# generated using pymatgen
data_V85Zn86O256
_symmetry_space_group_name_H-M   'P 1'
_cell_length_a   16.94051101
_cell_length_b   16.91686519
_cell_length_c   16.93783299
_cell_angle_alpha   89.94897591
_cell_angle_beta   89.96852563
_cell_angle_gamma   90.02065184
_symmetry_Int_Tables_number   1
_chemical_formula_structural   V85Zn86O256
_chemical_formula_sum   'V85 Zn86 O256'
_cell_volume   4854.04698032
_cell_formula_units_Z   1
loop_
 _symmetry_equiv_pos_site_id
 _symmetry_equiv_pos_as_xyz
  1  'x, y, z'
loop_
 _atom_site_type_symbol
 _atom_site_label
 _atom_site_symmetry_multiplicity
 _atom_site_fract_x
 _atom_site_fract_y
 _atom_site_fract_z
 _atom_site_occupancy
  V  V0  1  0.12260615  0.37019768  0.24761940  1
  V  V1  1  0.37727372  0.13275954  0.24588128  1
  V  V2  1  0.74929371  0.49822329  0.23944259  1
  V  V3  1  -0.00226516  0.00220904  0.00159810  1
  V  V4  1  0.42545329  0.30657176  0.06517153  1
  V  V5  1  0.62854141  0.75178845  0.36749850  1
  V  V6  1  0.62815944  0.50128702  0.62015458  1
  V  V7  1  -0.01261189  0.12746464  0.62790154  1
  V  V8  1  0.87134662  0.25632168  0.12736622  1
  V  V9  1  0.49796334  0.12241450  0.12152977  1
  V  V10  1  0.00351074  0.62680144  0.12236289  1
  V  V11  1  0.75661203  0.12720693  0.87266626  1
  V  V12  1  0.37846482  -0.01172397  0.87254910  1
  V  V13  1  0.74688819  0.87294265  0.62622907  1
  V  V14  1  0.12777866  0.00136878  0.62362798  1
  V  V15  1  0.25329980  0.13343534  0.37809502  1
  V  V16  1  0.50768228  0.87787678  0.36966788  1
  V  V17  1  -0.00577589  0.37559967  0.87606955  1
  V  V18  1  0.62412772  0.12475115  -0.00749645  1
  V  V19  1  0.86969515  0.38118098  0.00090873  1
  V  V20  1  -0.00043250  0.74898842  0.74854516  1
  V  V21  1  0.62015037  0.37173625  0.76136526  1
  V  V22  1  0.36154873  0.86982450  0.01252776  1
  V  V23  1  0.74605612  -0.00610999  0.25069958  1
  V  V24  1  0.87541360  0.12972753  0.25193643  1
  V  V25  1  0.12590841  0.25033153  0.37300308  1
  V  V26  1  0.62861529  0.37263366  0.25308375  1
  V  V27  1  0.50387756  0.25532171  0.26041998  1
  V  V28  1  0.12610277  0.62330842  0.49846305  1
  V  V29  1  0.50372974  0.75343373  0.75894091  1
  V  V30  1  0.49307632  0.73973074  0.25315874  1
  V  V31  1  0.50314252  0.49853901  0.50050586  1
  V  V32  1  0.50161031  0.25007753  0.76678089  1
  V  V33  1  0.62506258  0.00231676  0.62028452  1
  V  V34  1  0.37853147  0.88185365  0.49924472  1
  V  V35  1  0.38087669  0.49320474  0.37250107  1
  V  V36  1  0.25585193  0.62120826  0.37016713  1
  V  V37  1  -0.01614293  0.24685582  0.74950649  1
  V  V38  1  0.24826128  0.25004908  0.00378547  1
  V  V39  1  0.87224632  0.35934564  0.50448573  1
  V  V40  1  0.87237300  0.49679382  0.37586367  1
  V  V41  1  0.12309572  0.37088973  0.75089658  1
  V  V42  1  0.87434436  0.87595307  0.00546180  1
  V  V43  1  0.37467435  0.12972363  0.74346823  1
  V  V44  1  0.50017056  0.13265945  0.62310646  1
  V  V45  1  -0.00130394  0.13167548  0.12893102  1
  V  V46  1  0.74436684  0.74768618  -0.00596259  1
  V  V47  1  -0.00111099  0.75163064  0.25376760  1
  V  V48  1  0.62181716  0.87426842  0.76201818  1
  V  V49  1  0.12925159  0.87520262  0.25383446  1
  V  V50  1  0.12586738  -0.00049192  0.12703360  1
  V  V51  1  0.37789192  0.00306009  0.37400925  1
  V  V52  1  0.74758618  0.25306298  -0.00244049  1
  V  V53  1  0.12549983  0.87219818  0.74867458  1
  V  V54  1  0.24921132  0.12266240  0.87733960  1
  V  V55  1  0.37037290  0.36691107  0.50903710  1
  V  V56  1  0.25261590  0.49753647  0.74951753  1
  V  V57  1  0.25301085  0.00013391  0.24658173  1
  V  V58  1  -0.00101149  0.62250875  0.62338839  1
  V  V59  1  0.25157440  0.37416638  0.12027829  1
  V  V60  1  0.74071642  0.74328164  0.50193558  1
  V  V61  1  0.87546861  0.62397265  0.25238425  1
  V  V62  1  0.38683141  0.48877315  0.88355058  1
  V  V63  1  0.12565475  0.49625052  0.62410301  1
  V  V64  1  0.50244775  -0.01702841  -0.00460032  1
  V  V65  1  -0.00151744  0.49617261  0.49847713  1
  V  V66  1  0.87166066  0.74625593  0.62331191  1
  V  V67  1  0.87416026  -0.00008850  0.37729244  1
  V  V68  1  0.75658983  0.00304406  0.74952544  1
  V  V69  1  0.37747700  0.62497575  0.74491473  1
  V  V70  1  0.61687243  0.50456318  0.11601388  1
  V  V71  1  -0.00039195  0.50519475  -0.00579251  1
  V  V72  1  -0.00205944  0.36721291  0.37067386  1
  V  V73  1  0.74339721  0.61706943  0.37842461  1
  V  V74  1  0.25081018  -0.00164697  0.74940911  1
  V  V75  1  0.87573792  0.62018894  0.75976150  1
  V  V76  1  0.00002561  0.87580442  0.87573272  1
  V  V77  1  0.75076018  0.35982700  0.62400087  1
  V  V78  1  0.25349375  0.75027202  0.50056802  1
  V  V79  1  0.12589736  0.50078645  0.11939593  1
  V  V80  1  0.75319197  0.49788915  0.75520747  1
  V  V81  1  0.12935722  0.13185961  0.50381713  1
  V  V82  1  0.62385324  -0.01210673  0.12676093  1
  V  V83  1  0.24509170  0.62694447  0.88012396  1
  V  V84  1  0.74175161  0.13860120  0.38054196  1
  Zn  Zn85  1  0.12399184  0.12409479  0.00086472  1
  Zn  Zn86  1  0.87226870  0.75058787  0.12691972  1
  Zn  Zn87  1  0.50904533  0.62869247  0.61989957  1
  Zn  Zn88  1  0.35693095  0.73847357  0.14637597  1
  Zn  Zn89  1  0.74769139  0.62541045  0.87489382  1
  Zn  Zn90  1  0.62805883  0.15958984  0.50065653  1
  Zn  Zn91  1  0.25311902  0.87459717  0.62328733  1
  Zn  Zn92  1  0.24924101  0.35772535  0.62495830  1
  Zn  Zn93  1  0.87607102  0.87328947  0.49952498  1
  Zn  Zn94  1  0.50615688  0.00639937  0.49682267  1
  Zn  Zn95  1  0.12181695  0.24810808  0.87755741  1
  Zn  Zn96  1  0.12160798  0.74268528  0.88043451  1
  Zn  Zn97  1  0.25620330  0.50338053  0.24451785  1
  Zn  Zn98  1  -0.00064560  0.87657082  0.37840140  1
  Zn  Zn99  1  0.74255423  0.86784028  0.12885561  1
  Zn  Zn100  1  0.23743933  0.74648157  0.01590620  1
  Zn  Zn101  1  0.87796242  0.00387504  0.87142660  1
  Zn  Zn102  1  -0.00081728  -0.00111012  0.50105320  1
  Zn  Zn103  1  0.60628532  0.62323806  -0.02080087  1
  Zn  Zn104  1  0.38227980  0.75212416  0.62202598  1
  Zn  Zn105  1  0.48881175  0.62224380  0.11963960  1
  Zn  Zn106  1  0.12440342  0.74985624  0.37788206  1
  Zn  Zn107  1  0.18885833  0.18849594  0.18754302  1
  Zn  Zn108  1  0.17992159  0.18597222  0.69433914  1
  Zn  Zn109  1  0.18487468  0.68715337  0.18903127  1
  Zn  Zn110  1  0.19007263  0.68608281  0.68597808  1
  Zn  Zn111  1  0.68846866  0.18293020  0.18417385  1
  Zn  Zn112  1  0.68372066  0.18711359  0.69189009  1
  Zn  Zn113  1  0.68618483  0.68647170  0.18517529  1
  Zn  Zn114  1  0.68361938  0.68415692  0.69409922  1
  Zn  Zn115  1  0.31638466  0.31584926  0.30945548  1
  Zn  Zn116  1  0.31191957  0.31050235  0.81389201  1
  Zn  Zn117  1  0.31146164  0.81508960  0.31800871  1
  Zn  Zn118  1  0.31441842  0.80911213  0.81110108  1
  Zn  Zn119  1  0.81024236  0.31576765  0.30904214  1
  Zn  Zn120  1  0.80879419  0.31544211  0.81742000  1
  Zn  Zn121  1  0.81236389  0.81307127  0.31376948  1
  Zn  Zn122  1  0.81421525  0.81586039  0.81372081  1
  Zn  Zn123  1  0.19142112  0.43552292  0.43725436  1
  Zn  Zn124  1  0.18843381  0.43884694  0.93608169  1
  Zn  Zn125  1  0.18996618  0.94281406  0.43635636  1
  Zn  Zn126  1  0.18415391  0.93579506  0.93676328  1
  Zn  Zn127  1  0.65628560  0.36943157  0.45998000  1
  Zn  Zn128  1  0.68794507  0.44229630  0.93652004  1
  Zn  Zn129  1  0.69179656  0.93612926  0.43886296  1
  Zn  Zn130  1  0.69166236  0.93747274  0.93894940  1
  Zn  Zn131  1  0.31512094  0.05956166  0.06163527  1
  Zn  Zn132  1  0.31368689  0.18533855  0.56343776  1
  Zn  Zn133  1  0.31751970  0.56349381  0.06068679  1
  Zn  Zn134  1  0.31396494  0.55839405  0.56159712  1
  Zn  Zn135  1  0.81069946  0.06283352  0.06407136  1
  Zn  Zn136  1  0.80794512  0.06449515  0.55845595  1
  Zn  Zn137  1  0.81547603  0.56711992  0.06231838  1
  Zn  Zn138  1  0.81002914  0.55615256  0.56339606  1
  Zn  Zn139  1  0.44333276  0.44265690  0.19148708  1
  Zn  Zn140  1  0.43896076  0.43694300  0.68797665  1
  Zn  Zn141  1  0.44026904  0.93371978  0.18870723  1
  Zn  Zn142  1  0.44008326  0.93896094  0.68393513  1
  Zn  Zn143  1  0.93895357  0.43767722  0.18641955  1
  Zn  Zn144  1  0.93435811  0.43444437  0.68588292  1
  Zn  Zn145  1  0.93721362  0.93961098  0.19012695  1
  Zn  Zn146  1  0.93775615  0.93651926  0.68368866  1
  Zn  Zn147  1  0.06095174  0.06541386  0.31294194  1
  Zn  Zn148  1  0.06137181  0.06239980  0.81033006  1
  Zn  Zn149  1  0.06571796  0.55791643  0.31088578  1
  Zn  Zn150  1  0.06268135  0.55943755  0.81145981  1
  Zn  Zn151  1  0.56506131  0.06625469  0.30982254  1
  Zn  Zn152  1  0.56441171  0.05923876  0.81185969  1
  Zn  Zn153  1  0.56559664  0.55851286  0.31606287  1
  Zn  Zn154  1  0.56297575  0.56157918  0.80819761  1
  Zn  Zn155  1  0.44568969  0.19108831  0.43555427  1
  Zn  Zn156  1  0.43695877  0.17502781  0.93282466  1
  Zn  Zn157  1  0.43901131  0.68337920  0.43758512  1
  Zn  Zn158  1  0.42831599  0.68519904  0.93483414  1
  Zn  Zn159  1  0.94024845  0.18351535  0.43755691  1
  Zn  Zn160  1  0.93522278  0.18988134  0.93953260  1
  Zn  Zn161  1  0.93444043  0.68641014  0.43780260  1
  Zn  Zn162  1  0.93649350  0.69211487  0.93914147  1
  Zn  Zn163  1  0.06197324  0.31159297  0.06040260  1
  Zn  Zn164  1  0.06109814  0.30852945  0.56340406  1
  Zn  Zn165  1  0.06666328  0.81431611  0.06656761  1
  Zn  Zn166  1  0.06169954  0.81262409  0.56039822  1
  Zn  Zn167  1  0.58811913  0.31635958  0.06974476  1
  Zn  Zn168  1  0.54966240  0.31730462  0.57611934  1
  Zn  Zn169  1  0.54281465  0.78436378  0.04651222  1
  Zn  Zn170  1  0.56225809  0.81278272  0.56305574  1
  O  O171  1  0.11574509  0.11672008  0.12877993  1
  O  O172  1  0.11857133  0.11825436  0.61910183  1
  O  O173  1  0.11201141  0.61443686  0.13213538  1
  O  O174  1  0.12004111  0.61761622  0.61807778  1
  O  O175  1  0.61495995  0.11734826  0.11450109  1
  O  O176  1  0.61993631  0.11987321  0.62153309  1
  O  O177  1  0.62034382  0.61141690  0.12780827  1
  O  O178  1  0.62995374  0.60611295  0.62683965  1
  O  O179  1  0.36899761  0.38669296  0.38671539  1
  O  O180  1  0.37111204  0.38959562  0.86855579  1
  O  O181  1  0.38318460  0.88335070  0.38041492  1
  O  O182  1  0.36830655  0.88554549  0.88114277  1
  O  O183  1  0.88110647  0.37682479  0.38009960  1
  O  O184  1  0.88630741  0.37395932  0.88495696  1
  O  O185  1  0.87573245  0.88583420  0.37623749  1
  O  O186  1  0.88296907  0.87899502  0.88637052  1
  O  O187  1  0.25507002  0.01342920  0.36483467  1
  O  O188  1  0.25493705  0.00503765  0.86953074  1
  O  O189  1  0.25995417  0.50523799  0.37393917  1
  O  O190  1  0.25165556  0.50731481  0.86372887  1
  O  O191  1  0.75791668  0.00689769  0.36896445  1
  O  O192  1  0.75250689  0.00743751  0.86699924  1
  O  O193  1  0.75758819  0.50766818  0.36318056  1
  O  O194  1  0.75423667  0.49720732  0.85892043  1
  O  O195  1  0.24231597  0.49250058  0.12298213  1
  O  O196  1  0.24300377  0.49846096  0.63741722  1
  O  O197  1  0.24135532  1.00863689  0.13790783  1
  O  O198  1  0.23418003  0.99718173  0.63319233  1
  O  O199  1  0.74543377  0.51048680  0.13608190  1
  O  O200  1  0.74522297  0.49020984  0.63393150  1
  O  O201  1  0.74074096  1.00041343  0.13294158  1
  O  O202  1  0.74473549  0.99691342  0.63110983  1
  O  O203  1  0.00862952  0.37867773  0.25888650  1
  O  O204  1  0.00313073  0.37084138  0.75687603  1
  O  O205  1  0.00556358  0.86761283  0.25347787  1
  O  O206  1  0.00590706  0.86994273  0.75288309  1
  O  O207  1  0.51467572  0.36639642  0.23994725  1
  O  O208  1  0.51205014  0.36611551  0.74507208  1
  O  O209  1  0.49813573  0.86835236  0.26575195  1
  O  O210  1  0.50662067  0.86344278  0.74457288  1
  O  O211  1  0.50025842  0.13475663  0.23866404  1
  O  O212  1  0.49385757  0.12875852  0.74697723  1
  O  O213  1  0.50360132  0.63813882  0.25539013  1
  O  O214  1  0.49354459  0.63484328  0.74452701  1
  O  O215  1  0.98531231  0.12298897  0.24362740  1
  O  O216  1  1.00279863  0.13225177  0.73850948  1
  O  O217  1  0.99642586  0.63029950  0.24645904  1
  O  O218  1  0.99428763  0.62690808  0.74280510  1
  O  O219  1  0.37037416  0.24715340  -0.00048385  1
  O  O220  1  0.37800318  0.26130687  0.49733634  1
  O  O221  1  0.36287390  0.76661126  -0.00651160  1
  O  O222  1  0.36971196  0.75960796  0.49752408  1
  O  O223  1  0.86979646  0.26072140  0.00672191  1
  O  O224  1  0.87958598  0.26031955  0.49727412  1
  O  O225  1  0.87048354  0.76045686  0.00534344  1
  O  O226  1  0.86476025  0.74836651  0.50821660  1
  O  O227  1  0.12118780  0.23850419  0.49252259  1
  O  O228  1  0.13308632  0.24447433  0.99744842  1
  O  O229  1  0.13294505  0.74246726  0.49879138  1
  O  O230  1  0.12802176  0.76371256  0.99109195  1
  O  O231  1  0.61871981  0.27156366  0.50135615  1
  O  O232  1  0.63555007  0.23866461  1.00457147  1
  O  O233  1  0.63638993  0.75003760  0.49271701  1
  O  O234  1  0.64398273  0.75617746  0.99843982  1
  O  O235  1  0.49362782  0.24523152  0.12091299  1
  O  O236  1  0.50027767  0.23651256  0.64184701  1
  O  O237  1  0.49833994  0.75693993  0.15065537  1
  O  O238  1  0.50027693  0.74549084  0.63107789  1
  O  O239  1  0.99178206  0.23757625  0.11856395  1
  O  O240  1  1.00212676  0.23586651  0.63351693  1
  O  O241  1  1.00127002  0.74302563  0.13735759  1
  O  O242  1  0.99136406  0.74288591  0.62803674  1
  O  O243  1  0.00633541  0.26053407  0.37692579  1
  O  O244  1  0.00051390  0.25672432  0.86955376  1
  O  O245  1  0.00103739  0.74898698  0.36478887  1
  O  O246  1  0.00061609  0.75668744  0.86558240  1
  O  O247  1  0.50896629  0.24652288  0.35932505  1
  O  O248  1  0.50192695  0.24069473  0.86634328  1
  O  O249  1  0.50916016  0.75422822  0.37114000  1
  O  O250  1  0.49244214  0.74928862  0.85704563  1
  O  O251  1  0.24327785  0.12565197  0.48940956  1
  O  O252  1  0.25006216  0.12970006  0.99425211  1
  O  O253  1  0.24554105  0.62987397  0.49434054  1
  O  O254  1  0.25149777  0.62512571  0.98270661  1
  O  O255  1  0.74635579  0.12743485  0.48532592  1
  O  O256  1  0.74287653  0.12882342  0.99372210  1
  O  O257  1  0.75661198  0.62981387  0.49002722  1
  O  O258  1  0.75644393  0.63946154  0.99693643  1
  O  O259  1  0.24452852  0.36712166  0.01083292  1
  O  O260  1  0.26426703  0.37876032  0.50510407  1
  O  O261  1  0.26078971  0.88362875  0.00315327  1
  O  O262  1  0.25813901  0.86820905  0.49672421  1
  O  O263  1  0.75828810  0.36803294  -0.00567423  1
  O  O264  1  0.75833096  0.37733585  0.51645089  1
  O  O265  1  0.75921330  0.86887456  0.00313541  1
  O  O266  1  0.75319965  0.86316831  0.50862593  1
  O  O267  1  0.12700581  0.48744787  0.23790889  1
  O  O268  1  0.12923681  0.48826456  0.74557575  1
  O  O269  1  0.13220732  0.99757665  0.24724989  1
  O  O270  1  0.12849106  0.99266588  0.74334257  1
  O  O271  1  0.63111248  0.49496148  0.24255156  1
  O  O272  1  0.63121121  0.48771220  0.74116064  1
  O  O273  1  0.63428266  1.00608827  0.23978315  1
  O  O274  1  0.63225602  0.99403617  0.73963574  1
  O  O275  1  0.36990038  0.00704191  0.25324596  1
  O  O276  1  0.37186898  0.00533974  0.75557125  1
  O  O277  1  0.37387933  0.49197884  0.26721409  1
  O  O278  1  0.36735144  0.50546872  0.75266571  1
  O  O279  1  0.86700964  0.00923197  0.25543242  1
  O  O280  1  0.86043302  -0.00694024  0.74926173  1
  O  O281  1  0.86853276  0.50261845  0.25386278  1
  O  O282  1  0.86758461  0.50934889  0.74185924  1
  O  O283  1  0.11988000  0.37175283  0.36770848  1
  O  O284  1  0.11293131  0.37515842  0.86854919  1
  O  O285  1  0.12203690  0.87784481  0.36541575  1
  O  O286  1  0.11889770  0.87774309  0.86019378  1
  O  O287  1  0.62597722  0.38352496  0.35186043  1
  O  O288  1  0.62763980  0.37985407  0.86011413  1
  O  O289  1  0.61966046  0.86582338  0.38089455  1
  O  O290  1  0.62562562  0.88482671  0.86114847  1
  O  O291  1  0.39008845  0.11830907  0.12821982  1
  O  O292  1  0.38358950  0.12108619  0.63487468  1
  O  O293  1  0.37594337  0.62677717  0.12901002  1
  O  O294  1  0.37344086  0.62417161  0.63679029  1
  O  O295  1  0.87984887  0.13200154  0.13204924  1
  O  O296  1  0.88908478  0.11884437  0.62127156  1
  O  O297  1  0.88877271  0.62511876  0.13456624  1
  O  O298  1  0.87835866  0.63273992  0.62964728  1
  O  O299  1  0.24974218  0.25414456  0.11246351  1
  O  O300  1  0.24769435  0.24487977  0.62998031  1
  O  O301  1  0.24696537  0.75486318  0.12910856  1
  O  O302  1  0.25301443  0.75130091  0.61108696  1
  O  O303  1  0.76098762  0.24174642  0.11092800  1
  O  O304  1  0.74882804  0.26092294  0.63105221  1
  O  O305  1  0.75300482  0.75095213  0.11605449  1
  O  O306  1  0.75336704  0.74866766  0.61953039  1
  O  O307  1  0.24521505  0.23995436  0.36683327  1
  O  O308  1  0.24949333  0.24148211  0.88625552  1
  O  O309  1  0.24918721  0.74097745  0.38564194  1
  O  O310  1  0.24811871  0.73288919  0.86749148  1
  O  O311  1  0.75102535  0.23707241  0.36889891  1
  O  O312  1  0.75304636  0.24238745  0.88745893  1
  O  O313  1  0.74506914  0.74323232  0.38128035  1
  O  O314  1  0.75922609  0.75043242  0.88966350  1
  O  O315  1  -0.00006679  0.11814578  0.00789306  1
  O  O316  1  0.00792039  0.12273629  0.51185237  1
  O  O317  1  -0.00674380  0.61715581  0.00861724  1
  O  O318  1  0.00514748  0.61829595  0.50421059  1
  O  O319  1  0.50603336  0.11378530  0.00431799  1
  O  O320  1  0.50685836  0.12646023  0.50858471  1
  O  O321  1  0.50818543  0.67066749  0.01293887  1
  O  O322  1  0.49535036  0.60628632  0.50340668  1
  O  O323  1  0.48183001  0.38596740  0.50720288  1
  O  O324  1  0.49095252  0.35867150  1.01358866  1
  O  O325  1  0.49446097  0.87599984  0.48896511  1
  O  O326  1  0.48957855  0.87996275  1.00170302  1
  O  O327  1  0.99382826  0.37804137  0.49425819  1
  O  O328  1  0.99396706  0.38099426  0.99326802  1
  O  O329  1  0.99571309  0.87962175  0.49734065  1
  O  O330  1  0.99373321  0.88412196  0.99815683  1
  O  O331  1  0.48839433  0.50138966  0.38219867  1
  O  O332  1  0.48571062  0.50295081  0.86930724  1
  O  O333  1  0.49849897  0.99561429  0.37454511  1
  O  O334  1  0.49054753  1.00438972  0.88437096  1
  O  O335  1  0.99476571  0.48844211  0.37866856  1
  O  O336  1  1.00323693  0.49458940  0.88741635  1
  O  O337  1  0.98527113  1.00418396  0.37524618  1
  O  O338  1  0.99896593  0.99614334  0.88241629  1
  O  O339  1  0.00470685  0.01162208  0.12271995  1
  O  O340  1  0.00956050  0.00991890  0.62722675  1
  O  O341  1  0.00623226  0.50572688  0.11649859  1
  O  O342  1  0.00512012  0.50317540  0.61909868  1
  O  O343  1  0.50563515  0.00422335  0.11818951  1
  O  O344  1  0.50911984  0.01278372  0.62525564  1
  O  O345  1  0.51219545  0.50362035  0.12339985  1
  O  O346  1  0.51023587  0.50059596  0.61973248  1
  O  O347  1  0.24439304  0.37494105  0.23523444  1
  O  O348  1  0.23958328  0.37972105  0.75051111  1
  O  O349  1  0.24220431  0.88765005  0.25813166  1
  O  O350  1  0.24242179  0.87851879  0.74752013  1
  O  O351  1  0.74173456  0.38483834  0.24800044  1
  O  O352  1  0.74397153  0.37801259  0.74346897  1
  O  O353  1  0.75444904  0.88896281  0.24759578  1
  O  O354  1  0.74233080  0.87971082  0.74528336  1
  O  O355  1  0.25749360  0.12130898  0.25487296  1
  O  O356  1  0.25642518  0.11861714  0.75771438  1
  O  O357  1  0.24020059  0.62120255  0.26706913  1
  O  O358  1  0.25650264  0.61635502  0.75337854  1
  O  O359  1  0.75750321  0.11746372  0.25677823  1
  O  O360  1  0.74254387  0.11619898  0.76048383  1
  O  O361  1  0.75670852  0.62039932  0.25745530  1
  O  O362  1  0.76036107  0.61654322  0.74859923  1
  O  O363  1  0.37074028  0.12235847  0.37036689  1
  O  O364  1  0.36369697  0.11184706  0.86868847  1
  O  O365  1  0.36606720  0.60870005  0.38328363  1
  O  O366  1  0.36417019  0.61771132  0.86266100  1
  O  O367  1  0.86724018  0.12144772  0.36883172  1
  O  O368  1  0.86148542  0.12270352  0.88036771  1
  O  O369  1  0.86826263  0.61791461  0.36949939  1
  O  O370  1  0.87625606  0.62713467  0.86208562  1
  O  O371  1  0.12985661  0.37846780  0.12980973  1
  O  O372  1  0.12397672  0.37865631  0.63327665  1
  O  O373  1  0.11643157  0.89197400  0.14073432  1
  O  O374  1  0.12395581  0.88163122  0.63396288  1
  O  O375  1  0.63259804  0.39639496  0.13363620  1
  O  O376  1  0.63689977  0.38098581  0.63525238  1
  O  O377  1  0.62229353  0.88712865  0.11842564  1
  O  O378  1  0.63061650  0.88258297  0.63150072  1
  O  O379  1  0.12740888  0.26219813  0.25372376  1
  O  O380  1  0.11420163  0.26112859  0.75557790  1
  O  O381  1  0.11746244  0.76022437  0.25562000  1
  O  O382  1  0.11857488  0.75721478  0.74765847  1
  O  O383  1  0.62228924  0.26485896  0.23344773  1
  O  O384  1  0.61864648  0.26319657  0.75079285  1
  O  O385  1  0.61982147  0.74860909  0.26299357  1
  O  O386  1  0.61368530  0.75845808  0.74761734  1
  O  O387  1  0.38840500  0.24524927  0.25214875  1
  O  O388  1  0.38202368  0.23631138  0.75882471  1
  O  O389  1  0.38862182  0.75142466  0.26172715  1
  O  O390  1  0.38375865  0.74386192  0.74474391  1
  O  O391  1  0.86863928  0.24349254  0.23910482  1
  O  O392  1  0.88500727  0.25590978  0.75383108  1
  O  O393  1  0.88221530  0.74431501  0.24945536  1
  O  O394  1  0.87869266  0.74245636  0.74227155  1
  O  O395  1  0.37976721  0.49077001  0.49338196  1
  O  O396  1  0.37171438  0.50068029  0.98255584  1
  O  O397  1  0.38036596  0.98808247  0.49021626  1
  O  O398  1  0.38214168  0.98983993  0.99384910  1
  O  O399  1  0.88088379  0.49103721  0.49389839  1
  O  O400  1  0.88325330  0.48854404  1.00837925  1
  O  O401  1  0.87400575  0.99832303  0.49056021  1
  O  O402  1  0.88101935  0.99443234  1.00054349  1
  O  O403  1  0.11803018  0.00104316  0.01076932  1
  O  O404  1  0.12479583  0.01109865  0.50677690  1
  O  O405  1  0.11569306  0.49416546  0.01160251  1
  O  O406  1  0.11946335  0.50232324  0.50444209  1
  O  O407  1  0.61825382  0.00373926  0.00501132  1
  O  O408  1  0.62700387  -0.00324241  0.51411187  1
  O  O409  1  0.63077227  0.50624415  0.01202753  1
  O  O410  1  0.61283773  0.47840465  0.50783436  1
  O  O411  1  0.37047029  0.37453046  0.12430390  1
  O  O412  1  0.36972327  0.37839170  0.61390010  1
  O  O413  1  0.37632499  0.87216444  0.11413262  1
  O  O414  1  0.37370144  0.87579455  0.61342035  1
  O  O415  1  0.88135418  0.36384711  0.11782803  1
  O  O416  1  0.86183507  0.37521823  0.61857941  1
  O  O417  1  0.87511538  0.87619834  0.11506823  1
  O  O418  1  0.86813976  0.85999667  0.62687593  1
  O  O419  1  0.13172773  0.12974617  0.38107956  1
  O  O420  1  0.13827308  0.12342925  0.87490433  1
  O  O421  1  0.13134749  0.62153059  0.38519849  1
  O  O422  1  0.14042842  0.62298644  0.86631553  1
  O  O423  1  0.63886968  0.12356318  0.37691820  1
  O  O424  1  0.63364076  0.11695541  0.88746400  1
  O  O425  1  0.63757492  0.63096774  0.37399682  1
  O  O426  1  0.63410561  0.61824306  0.87109052  1
