# generated using pymatgen
data_V85Zn86O256
_symmetry_space_group_name_H-M   'P 1'
_cell_length_a   17.00918480
_cell_length_b   16.99493292
_cell_length_c   17.00913578
_cell_angle_alpha   89.96268138
_cell_angle_beta   89.98799720
_cell_angle_gamma   89.94455171
_symmetry_Int_Tables_number   1
_chemical_formula_structural   V85Zn86O256
_chemical_formula_sum   'V85 Zn86 O256'
_cell_volume   4916.82665725
_cell_formula_units_Z   1
loop_
 _symmetry_equiv_pos_site_id
 _symmetry_equiv_pos_as_xyz
  1  'x, y, z'
loop_
 _atom_site_type_symbol
 _atom_site_label
 _atom_site_symmetry_multiplicity
 _atom_site_fract_x
 _atom_site_fract_y
 _atom_site_fract_z
 _atom_site_occupancy
  V  V0  1  0.25838038  0.12777057  0.37009722  1
  V  V1  1  0.48734014  0.75249420  0.74244999  1
  V  V2  1  0.62686000  0.62662988  -0.00132289  1
  V  V3  1  0.87730765  0.37585673  0.50068759  1
  V  V4  1  0.49353082  0.87702317  0.37770351  1
  V  V5  1  -0.00422687  0.37710865  0.86320269  1
  V  V6  1  0.00111722  0.62275353  0.62382752  1
  V  V7  1  0.87920810  0.12438334  0.75611872  1
  V  V8  1  0.87488805  -0.00188189  0.37588453  1
  V  V9  1  0.62317754  0.49977545  0.12301627  1
  V  V10  1  0.74746972  0.75039005  0.00065724  1
  V  V11  1  0.87548399  0.87689993  0.00176820  1
  V  V12  1  0.74686043  0.12248769  0.37772803  1
  V  V13  1  0.12773142  0.49527794  0.62245482  1
  V  V14  1  0.62018014  0.87299327  0.25130957  1
  V  V15  1  0.12698935  0.86987889  0.25355503  1
  V  V16  1  0.25631920  0.00474333  0.24798802  1
  V  V17  1  0.74781342  -0.00336215  0.25315948  1
  V  V18  1  0.87383561  0.62337636  0.25266602  1
  V  V19  1  0.62658548  0.35752438  0.24451499  1
  V  V20  1  -0.00720269  0.87846888  0.87584302  1
  V  V21  1  0.24157138  0.75575803  0.49209068  1
  V  V22  1  0.37287050  0.62114898  0.25426608  1
  V  V23  1  0.62052574  0.12085088  0.50187805  1
  V  V24  1  0.75507660  0.37586568  0.11943260  1
  V  V25  1  -0.00012849  -0.00126538  0.49983328  1
  V  V26  1  0.12596457  0.87812010  0.74739825  1
  V  V27  1  0.24883097  0.49693035  0.25248531  1
  V  V28  1  0.00374388  0.86696405  0.37658790  1
  V  V29  1  0.36839265  0.88061711  0.51457081  1
  V  V30  1  0.24374044  0.10641651  0.86788074  1
  V  V31  1  0.74748260  0.87300043  0.12737856  1
  V  V32  1  0.13758432  0.37215198  0.74617229  1
  V  V33  1  0.87398187  0.74773436  0.62717578  1
  V  V34  1  -0.00455733  0.49956793  -0.00763396  1
  V  V35  1  0.36386069  0.73378522  0.62540809  1
  V  V36  1  0.49330782  0.12509114  0.63047179  1
  V  V37  1  0.62140872  0.74622378  0.38292530  1
  V  V38  1  0.61803637  0.36812139  0.76228112  1
  V  V39  1  0.00333908  0.61519965  0.12783896  1
  V  V40  1  0.75635904  0.62192628  0.87545622  1
  V  V41  1  0.37329433  0.88164756  -0.01145974  1
  V  V42  1  0.12945647  -0.00080898  0.62716694  1
  V  V43  1  0.12840624  0.62625433  0.49446497  1
  V  V44  1  0.12309481  0.12716755  0.49443093  1
  V  V45  1  0.75531502  0.49574532  0.75251332  1
  V  V46  1  0.74660721  0.62303551  0.38308904  1
  V  V47  1  0.11682932  0.00450851  0.12773601  1
  V  V48  1  0.75565213  -0.00594821  0.75648535  1
  V  V49  1  0.75482987  0.12386042  0.87736016  1
  V  V50  1  -0.00573264  0.00385554  0.00035626  1
  V  V51  1  0.12218901  0.24950374  0.86874368  1
  V  V52  1  0.30601559  0.43224372  0.56730381  1
  V  V53  1  0.62196361  0.00689669  0.12275825  1
  V  V54  1  0.24767847  0.87442821  0.11923112  1
  V  V55  1  0.25885363  0.51440557  0.76434055  1
  V  V56  1  0.75344519  0.24714835  0.49848723  1
  V  V57  1  0.87325441  0.87138629  0.50173954  1
  V  V58  1  0.58242222  0.29566280  0.41848054  1
  V  V59  1  0.29533041  0.69239808  -0.05368253  1
  V  V60  1  -0.00084851  0.74900029  0.75004139  1
  V  V61  1  0.61618157  0.50760651  0.62553368  1
  V  V62  1  0.12027317  0.74422208  0.87728626  1
  V  V63  1  0.75353880  0.25121545  -0.00848016  1
  V  V64  1  0.74366180  0.87135996  0.62909239  1
  V  V65  1  0.25544713  0.25224068  0.50965707  1
  V  V66  1  0.49408368  0.12610236  0.13467028  1
  V  V67  1  0.49627996  0.49445936  -0.01540925  1
  V  V68  1  0.49641802  0.62409825  0.12234531  1
  V  V69  1  0.62534772  0.76535684  0.86255888  1
  V  V70  1  0.87674287  0.24842450  0.62920543  1
  V  V71  1  0.12028772  0.12816349  0.00343483  1
  V  V72  1  0.37225067  0.37629083  -0.01417358  1
  V  V73  1  0.50036289  -0.00663888  -0.01101087  1
  V  V74  1  0.12333134  0.26292292  0.37417732  1
  V  V75  1  0.62841153  -0.00233939  0.62874498  1
  V  V76  1  0.00298103  0.74757786  0.25158758  1
  V  V77  1  0.12302502  0.62376466  0.00208569  1
  V  V78  1  0.00008088  0.12827083  0.62804989  1
  V  V79  1  0.74832695  0.49911312  0.24977783  1
  V  V80  1  0.36838102  0.75071743  0.12483122  1
  V  V81  1  0.57562649  0.17842484  -0.05837040  1
  V  V82  1  0.36923235  0.25110075  0.12928073  1
  V  V83  1  0.11843316  0.38025361  0.23494200  1
  V  V84  1  0.87503116  0.74950292  0.12738810  1
  Zn  Zn85  1  0.56482676  0.56921794  0.45908659  1
  Zn  Zn86  1  0.49591981  0.24683839  0.76222882  1
  Zn  Zn87  1  0.87579863  0.37795438  -0.00794058  1
  Zn  Zn88  1  0.37521275  0.11430085  0.75936182  1
  Zn  Zn89  1  0.74741910  0.37373585  0.62749138  1
  Zn  Zn90  1  0.24490357  0.25404261  -0.00058840  1
  Zn  Zn91  1  0.00412011  0.49543566  0.49849184  1
  Zn  Zn92  1  0.37584550  0.00232178  0.37241133  1
  Zn  Zn93  1  -0.00528625  0.37525835  0.37229105  1
  Zn  Zn94  1  0.48988622  0.25178896  0.25526968  1
  Zn  Zn95  1  0.29313415  0.95458522  0.69832691  1
  Zn  Zn96  1  0.88021920  0.61691202  0.75522519  1
  Zn  Zn97  1  0.37118999  0.25685064  0.63530666  1
  Zn  Zn98  1  0.24958212  0.38007749  0.11969274  1
  Zn  Zn99  1  0.74470324  0.74398516  0.50518820  1
  Zn  Zn100  1  0.88283207  0.12294710  0.24513488  1
  Zn  Zn101  1  0.49725870  -0.00198708  0.50296989  1
  Zn  Zn102  1  0.49670410  0.75079803  0.24885544  1
  Zn  Zn103  1  0.00255946  0.23437300  0.23918898  1
  Zn  Zn104  1  0.88054588  0.23999303  0.12342629  1
  Zn  Zn105  1  0.24809918  0.62551887  0.37335369  1
  Zn  Zn106  1  0.87453832  0.49801348  0.37660528  1
  Zn  Zn107  1  0.18499476  0.19006916  0.18610391  1
  Zn  Zn108  1  0.18573672  0.18500502  0.69005386  1
  Zn  Zn109  1  0.18799293  0.68659520  0.18490468  1
  Zn  Zn110  1  0.18784065  0.68763077  0.68419067  1
  Zn  Zn111  1  0.71179300  0.17796053  0.17681657  1
  Zn  Zn112  1  0.68844244  0.18672721  0.69017159  1
  Zn  Zn113  1  0.68475519  0.68688145  0.19164880  1
  Zn  Zn114  1  0.68897083  0.68234334  0.69060596  1
  Zn  Zn115  1  0.30375942  0.31429709  0.30859501  1
  Zn  Zn116  1  0.30883998  0.30242168  0.81215114  1
  Zn  Zn117  1  0.31314964  0.81371591  0.31170046  1
  Zn  Zn118  1  0.30973048  0.81344680  0.80861203  1
  Zn  Zn119  1  0.81485659  0.30803213  0.31087046  1
  Zn  Zn120  1  0.81160125  0.31095265  0.81070614  1
  Zn  Zn121  1  0.81096020  0.80906601  0.31551404  1
  Zn  Zn122  1  0.81294764  0.80942651  0.81316939  1
  Zn  Zn123  1  0.38760605  0.48393371  0.38594708  1
  Zn  Zn124  1  0.18382497  0.43984313  0.93584026  1
  Zn  Zn125  1  0.18788365  0.93935075  0.43575378  1
  Zn  Zn126  1  0.17772729  0.93199425  0.94169612  1
  Zn  Zn127  1  0.69450834  0.43774605  0.44227686  1
  Zn  Zn128  1  0.68607472  0.44008898  0.93596623  1
  Zn  Zn129  1  0.68626113  0.93315270  0.44130103  1
  Zn  Zn130  1  0.68987531  0.94214900  0.94089326  1
  Zn  Zn131  1  0.31001111  0.06235625  0.05837622  1
  Zn  Zn132  1  0.31326168  0.06882994  0.55307754  1
  Zn  Zn133  1  0.31604707  0.55155195  0.06866768  1
  Zn  Zn134  1  0.43763008  0.56576230  0.57203548  1
  Zn  Zn135  1  0.80961584  0.06191908  0.06199792  1
  Zn  Zn136  1  0.81341747  0.05980999  0.56443362  1
  Zn  Zn137  1  0.81606686  0.56154627  0.06228005  1
  Zn  Zn138  1  0.80952452  0.55983708  0.56851523  1
  Zn  Zn139  1  0.43806961  0.43210856  0.18599548  1
  Zn  Zn140  1  0.43872362  0.43747035  0.70582019  1
  Zn  Zn141  1  0.43673946  0.93710341  0.18194036  1
  Zn  Zn142  1  0.45666298  0.93549957  0.69945998  1
  Zn  Zn143  1  0.93620286  0.43649483  0.18660574  1
  Zn  Zn144  1  0.93913178  0.43573977  0.68590500  1
  Zn  Zn145  1  0.93716059  0.93915733  0.19060525  1
  Zn  Zn146  1  0.93711696  0.93926537  0.68719682  1
  Zn  Zn147  1  0.06488042  0.05920072  0.31394188  1
  Zn  Zn148  1  0.06047760  0.06063452  0.81377412  1
  Zn  Zn149  1  0.06075525  0.55523555  0.31741650  1
  Zn  Zn150  1  0.06935585  0.55896491  0.80921969  1
  Zn  Zn151  1  0.56223523  0.06366149  0.31430333  1
  Zn  Zn152  1  0.56494035  0.05272992  0.80482778  1
  Zn  Zn153  1  0.55522257  0.55227352  0.29854629  1
  Zn  Zn154  1  0.56943379  0.57076955  0.80715881  1
  Zn  Zn155  1  0.42314893  0.30580705  0.43957311  1
  Zn  Zn156  1  0.41288042  0.18107466  0.94454063  1
  Zn  Zn157  1  0.43272775  0.69448301  0.43805121  1
  Zn  Zn158  1  0.45829564  0.69031352  0.93281287  1
  Zn  Zn159  1  0.93765105  0.18764017  0.43212440  1
  Zn  Zn160  1  0.93984859  0.19292868  0.93751228  1
  Zn  Zn161  1  0.93586592  0.68559271  0.43968932  1
  Zn  Zn162  1  0.93637451  0.68867536  0.94004833  1
  Zn  Zn163  1  0.05467101  0.31057967  0.05848379  1
  Zn  Zn164  1  0.06342732  0.31150176  0.56282896  1
  Zn  Zn165  1  0.06234037  0.80902355  0.06385582  1
  Zn  Zn166  1  0.06236781  0.81232023  0.56513091  1
  Zn  Zn167  1  0.55692710  0.31662203  0.06705638  1
  Zn  Zn168  1  0.56109889  0.31538639  0.58947680  1
  Zn  Zn169  1  0.55950755  0.81349071  0.06059023  1
  Zn  Zn170  1  0.55488423  0.80615328  0.56393621  1
  O  O171  1  0.12823136  0.11395547  0.11628592  1
  O  O172  1  0.11629150  0.12128106  0.61574061  1
  O  O173  1  0.11352184  0.63252898  0.11539564  1
  O  O174  1  0.11726395  0.62046772  0.61897518  1
  O  O175  1  0.62213531  0.11033760  0.12924824  1
  O  O176  1  0.62474724  0.11565118  0.62131035  1
  O  O177  1  0.61617605  0.62274538  0.11943438  1
  O  O178  1  0.62930894  0.60692781  0.63020974  1
  O  O179  1  0.37647175  0.37251279  0.36716999  1
  O  O180  1  0.37279129  0.36432531  0.88715860  1
  O  O181  1  0.38147752  0.87597324  0.38186058  1
  O  O182  1  0.36504152  0.86883525  0.89013083  1
  O  O183  1  0.87305842  0.37381843  0.38671404  1
  O  O184  1  0.89232601  0.36883750  0.87067912  1
  O  O185  1  0.88065827  0.87808104  0.38108976  1
  O  O186  1  0.88659622  0.86845704  0.88265358  1
  O  O187  1  0.24698885  0.00864969  0.36438830  1
  O  O188  1  0.23010175  0.00827027  0.87520808  1
  O  O189  1  0.26912911  0.50936900  0.35553032  1
  O  O190  1  0.24118321  0.50547969  0.86273902  1
  O  O191  1  0.75482949  0.00172944  0.37504046  1
  O  O192  1  0.74876292  0.00800132  0.86705788  1
  O  O193  1  0.75117776  0.50715394  0.36907778  1
  O  O194  1  0.74583381  0.50853549  0.86398882  1
  O  O195  1  0.25409079  0.49691709  0.14376904  1
  O  O196  1  0.24394651  0.48888986  0.62902573  1
  O  O197  1  0.24005484  0.99452707  0.13069573  1
  O  O198  1  0.23356074  1.00818830  0.61677364  1
  O  O199  1  0.74289951  0.49518196  0.12623310  1
  O  O200  1  0.74178730  0.49737772  0.63898069  1
  O  O201  1  0.73836741  0.98929166  0.13006326  1
  O  O202  1  0.74776501  0.99086735  0.63212871  1
  O  O203  1  0.01132495  0.37804671  0.25160983  1
  O  O204  1  0.01059040  0.38209160  0.76032358  1
  O  O205  1  0.00721993  0.87012355  0.25773932  1
  O  O206  1  0.00428420  0.87201859  0.75870106  1
  O  O207  1  0.51788515  0.36784622  0.24071875  1
  O  O208  1  0.51238821  0.36637936  0.75462140  1
  O  O209  1  0.50468783  0.87422244  0.25584878  1
  O  O210  1  0.51301760  0.85185918  0.74828016  1
  O  O211  1  0.50307873  0.12714894  0.23749696  1
  O  O212  1  0.50375605  0.12565504  0.74257675  1
  O  O213  1  0.49309090  0.62861761  0.23410229  1
  O  O214  1  0.51269573  0.65305207  0.75265786  1
  O  O215  1  0.99596448  0.11886005  0.25366022  1
  O  O216  1  0.99026457  0.11854215  0.74087858  1
  O  O217  1  0.99741101  0.62679093  0.24460045  1
  O  O218  1  1.00025678  0.62765979  0.73981237  1
  O  O219  1  0.36770605  0.26018923  0.00922684  1
  O  O220  1  0.35924016  0.24354701  0.50760845  1
  O  O221  1  0.36627243  0.75105937  0.00237218  1
  O  O222  1  0.36116353  0.75843933  0.51180190  1
  O  O223  1  0.86580078  0.25502592  0.00102683  1
  O  O224  1  0.87091992  0.25346625  0.50832825  1
  O  O225  1  0.86784662  0.75575190  0.00861094  1
  O  O226  1  0.87256191  0.75492949  0.51029550  1
  O  O227  1  0.13112769  0.24548026  0.49178274  1
  O  O228  1  0.12352416  0.24102774  0.99220339  1
  O  O229  1  0.13624361  0.74703581  0.50761262  1
  O  O230  1  0.11888879  0.73831680  0.99113890  1
  O  O231  1  0.63502751  0.24024883  0.50069722  1
  O  O232  1  0.62675472  0.24742283  0.99708593  1
  O  O233  1  0.62618456  0.75719408  0.48652960  1
  O  O234  1  0.62977806  0.74540399  0.99503987  1
  O  O235  1  0.49146396  0.24078532  0.12400193  1
  O  O236  1  0.49414082  0.23768365  0.63187022  1
  O  O237  1  0.48624661  0.74247720  0.12116551  1
  O  O238  1  0.47859048  0.75440787  0.63248179  1
  O  O239  1  0.99354414  0.24894044  0.12508277  1
  O  O240  1  0.99240905  0.23540919  0.61929630  1
  O  O241  1  0.99349102  0.74189876  0.13261203  1
  O  O242  1  0.99461859  0.74324100  0.63164619  1
  O  O243  1  0.01460623  0.25083846  0.37414676  1
  O  O244  1  0.01148784  0.26424541  0.87839880  1
  O  O245  1  -0.00551351  0.76052362  0.36971941  1
  O  O246  1  0.00356297  0.75557388  0.86957157  1
  O  O247  1  0.50883040  0.24237773  0.37114739  1
  O  O248  1  0.50667680  0.22749984  0.88580318  1
  O  O249  1  0.50501597  0.76218918  0.37144133  1
  O  O250  1  0.51822076  0.75465499  0.86630718  1
  O  O251  1  0.23964733  0.13370296  0.49109439  1
  O  O252  1  0.23188937  0.12077016  0.99124390  1
  O  O253  1  0.24067317  0.64366461  0.49597901  1
  O  O254  1  0.24364942  0.62422837  1.00570721  1
  O  O255  1  0.74394853  0.12703039  0.49641821  1
  O  O256  1  0.75380811  0.13079041  0.98414359  1
  O  O257  1  0.75499329  0.62414063  0.48714236  1
  O  O258  1  0.74667976  0.62916636  0.99528362  1
  O  O259  1  0.25640643  0.37931591  0.00073119  1
  O  O260  1  0.25264196  0.36790522  0.50991871  1
  O  O261  1  0.25340624  0.88273720  0.01346428  1
  O  O262  1  0.25434306  0.86680165  0.49592744  1
  O  O263  1  0.75240875  0.37089196  0.00076556  1
  O  O264  1  0.75718542  0.36202098  0.50519929  1
  O  O265  1  0.75749470  0.87176062  0.00830367  1
  O  O266  1  0.75815483  0.87092808  0.50982721  1
  O  O267  1  0.13140110  0.48582150  0.25681258  1
  O  O268  1  0.13431122  0.49417847  0.73823584  1
  O  O269  1  0.13066146  0.98755715  0.24253926  1
  O  O270  1  0.11544001  0.99169414  0.73885789  1
  O  O271  1  0.63221333  0.49154035  0.23939709  1
  O  O272  1  0.63258374  0.49350184  0.74511063  1
  O  O273  1  0.62726615  0.98865784  0.24508180  1
  O  O274  1  0.64129155  0.99988006  0.73752361  1
  O  O275  1  0.35933985  -0.00661957  0.24873962  1
  O  O276  1  0.37939503  -0.00039100  0.74752570  1
  O  O277  1  0.37540608  0.51075772  0.24386172  1
  O  O278  1  0.35823481  0.49989238  0.75250291  1
  O  O279  1  0.86389933  -0.00216429  0.25765796  1
  O  O280  1  0.86451775  0.01076001  0.74455775  1
  O  O281  1  0.86626936  0.50724863  0.24971311  1
  O  O282  1  0.85941996  0.49789885  0.74415660  1
  O  O283  1  0.12335073  0.36292896  0.36989547  1
  O  O284  1  0.11828502  0.36827161  0.86602267  1
  O  O285  1  0.11560297  0.87901882  0.36549329  1
  O  O286  1  0.11260980  0.86372595  0.87165730  1
  O  O287  1  0.63743353  0.36743950  0.36452708  1
  O  O288  1  0.62786565  0.37861011  0.86040412  1
  O  O289  1  0.61780052  0.86932234  0.36832617  1
  O  O290  1  0.63649720  0.86212434  0.87907620  1
  O  O291  1  0.38482402  0.13447792  0.11333692  1
  O  O292  1  0.38992891  0.11847359  0.62244463  1
  O  O293  1  0.37990045  0.63258070  0.12827645  1
  O  O294  1  0.36402055  0.63629284  0.62737514  1
  O  O295  1  0.82552934  0.13538623  0.14294119  1
  O  O296  1  0.88159153  0.12877853  0.63118497  1
  O  O297  1  0.88171537  0.63054505  0.13266527  1
  O  O298  1  0.88308787  0.63039831  0.62650714  1
  O  O299  1  0.25484812  0.25264958  0.11962204  1
  O  O300  1  0.25004900  0.24182693  0.61568190  1
  O  O301  1  0.25983398  0.75890593  0.12610158  1
  O  O302  1  0.25887331  0.75250832  0.61801655  1
  O  O303  1  0.74378727  0.26363074  0.10470132  1
  O  O304  1  0.75907058  0.24523728  0.61427293  1
  O  O305  1  0.75273518  0.75401959  0.12134075  1
  O  O306  1  0.75487006  0.75452047  0.62608904  1
  O  O307  1  0.23708455  0.24412972  0.37940899  1
  O  O308  1  0.23345185  0.24035134  0.87903019  1
  O  O309  1  0.25170130  0.75097751  0.38887615  1
  O  O310  1  0.23924630  0.75032929  0.88023050  1
  O  O311  1  0.75503164  0.23763320  0.38979297  1
  O  O312  1  0.75095093  0.24359090  0.88349407  1
  O  O313  1  0.73948511  0.74037798  0.37592033  1
  O  O314  1  0.74426735  0.74480270  0.88268820  1
  O  O315  1  0.00916218  0.11578586  -0.00747596  1
  O  O316  1  0.00628739  0.12039920  0.50404127  1
  O  O317  1  0.00416896  0.62109471  0.00718182  1
  O  O318  1  0.00654336  0.62737425  0.51167411  1
  O  O319  1  0.50954978  0.12216060  0.00298293  1
  O  O320  1  0.51665633  0.11964306  0.51215888  1
  O  O321  1  0.50440513  0.61755299  0.00808723  1
  O  O322  1  0.49548323  0.63970756  0.51068250  1
  O  O323  1  0.52225157  0.34989757  0.48629106  1
  O  O324  1  0.49581463  0.38937920  0.99907905  1
  O  O325  1  0.48744021  0.87536680  0.49469008  1
  O  O326  1  0.48631745  0.88223292  1.00508388  1
  O  O327  1  0.98988075  0.37343957  0.49951372  1
  O  O328  1  1.00215093  0.38542818  0.98624183  1
  O  O329  1  0.99490333  0.87612488  0.49332953  1
  O  O330  1  0.99461989  0.87969259  0.99497382  1
  O  O331  1  0.49682394  0.51608582  0.38346139  1
  O  O332  1  0.50607983  0.51218401  0.88782945  1
  O  O333  1  0.49942222  0.98811485  0.37683806  1
  O  O334  1  0.51037614  1.00233565  0.89008339  1
  O  O335  1  0.99143652  0.49507932  0.38267534  1
  O  O336  1  1.00523282  0.48763301  0.87772410  1
  O  O337  1  0.99520506  0.98641823  0.38190070  1
  O  O338  1  1.00450039  0.98883575  0.88724489  1
  O  O339  1  0.01051264  -0.00790378  0.11877868  1
  O  O340  1  0.00482314  0.01000733  0.61758912  1
  O  O341  1  -0.00323713  0.51152215  0.11771631  1
  O  O342  1  0.00741008  0.50801612  0.62389619  1
  O  O343  1  0.50391014  0.00842727  0.11877965  1
  O  O344  1  0.51486295  0.00402750  0.62491680  1
  O  O345  1  0.50527292  0.50839739  0.11735102  1
  O  O346  1  0.51054993  0.49850958  0.63343886  1
  O  O347  1  0.23374290  0.38029442  0.24544048  1
  O  O348  1  0.23910422  0.38022631  0.75611062  1
  O  O349  1  0.24305109  0.87965588  0.24107558  1
  O  O350  1  0.23139905  0.87395413  0.75166042  1
  O  O351  1  0.74596551  0.37997376  0.23946952  1
  O  O352  1  0.74381786  0.38323721  0.75127327  1
  O  O353  1  0.74064512  0.87733133  0.24795734  1
  O  O354  1  0.76039658  0.88359536  0.74180161  1
  O  O355  1  0.23709308  0.11484369  0.25769355  1
  O  O356  1  0.24279874  0.11925061  0.76455957  1
  O  O357  1  0.25596818  0.62121382  0.24950214  1
  O  O358  1  0.24239924  0.61257238  0.74845217  1
  O  O359  1  0.73750573  0.11334485  0.27141010  1
  O  O360  1  0.75695690  0.11918681  0.76013753  1
  O  O361  1  0.75273604  0.61918081  0.25890771  1
  O  O362  1  0.75337719  0.61322860  0.75885358  1
  O  O363  1  0.35693885  0.12295730  0.37391520  1
  O  O364  1  0.34810136  0.11787286  0.87989515  1
  O  O365  1  0.37453562  0.63816015  0.35697281  1
  O  O366  1  0.36009214  0.64294605  0.89159854  1
  O  O367  1  0.86428686  0.11357046  0.37949905  1
  O  O368  1  0.87157367  0.13156961  0.86313650  1
  O  O369  1  0.86579849  0.62537234  0.36815844  1
  O  O370  1  0.86098289  0.63224687  0.87466103  1
  O  O371  1  0.12331162  0.37423833  0.13391880  1
  O  O372  1  0.11617789  0.38340546  0.63456752  1
  O  O373  1  0.13124772  0.88004999  0.12952978  1
  O  O374  1  0.11424363  0.88688947  0.63518793  1
  O  O375  1  0.63517090  0.38047624  0.12732337  1
  O  O376  1  0.62991272  0.38683626  0.64036982  1
  O  O377  1  0.62585074  0.87690117  0.13631490  1
  O  O378  1  0.63822466  0.87843715  0.61764779  1
  O  O379  1  0.12354940  0.26232453  0.25754942  1
  O  O380  1  0.12579040  0.25870391  0.75624159  1
  O  O381  1  0.11973332  0.76273502  0.24376451  1
  O  O382  1  0.11720360  0.75662154  0.75573973  1
  O  O383  1  0.63506402  0.25738625  0.23916527  1
  O  O384  1  0.62680485  0.26444827  0.74773445  1
  O  O385  1  0.62097426  0.75909916  0.25955940  1
  O  O386  1  0.63676998  0.75361284  0.76243170  1
  O  O387  1  0.37262141  0.25322961  0.23373279  1
  O  O388  1  0.37708549  0.23565154  0.75101715  1
  O  O389  1  0.37542560  0.74558445  0.23864610  1
  O  O390  1  0.37743141  0.75462567  0.73833479  1
  O  O391  1  0.87974376  0.24447792  0.24673294  1
  O  O392  1  0.86847790  0.23997009  0.73625151  1
  O  O393  1  0.88084372  0.74314603  0.24640950  1
  O  O394  1  0.88178984  0.74607871  0.74243014  1
  O  O395  1  0.36454347  0.49481329  0.51058506  1
  O  O396  1  0.38865998  0.49326475  1.00091998  1
  O  O397  1  0.37539802  0.99304983  0.49374847  1
  O  O398  1  0.38472275  0.99149213  1.00518684  1
  O  O399  1  0.87110609  0.48347087  0.50567863  1
  O  O400  1  0.89041242  0.50080004  0.99908565  1
  O  O401  1  0.88132715  0.99115285  0.49730522  1
  O  O402  1  0.88731408  0.99588262  1.00953519  1
  O  O403  1  0.11205654  0.00330143  0.00987172  1
  O  O404  1  0.11842598  0.00820254  0.50395541  1
  O  O405  1  0.11307799  0.51616748  -0.00676089  1
  O  O406  1  0.12485975  0.51151729  0.51616223  1
  O  O407  1  0.61554742  -0.01208840  0.01465346  1
  O  O408  1  0.62835427  0.00449108  0.51316811  1
  O  O409  1  0.61582226  0.50614241  0.00445399  1
  O  O410  1  0.63057627  0.49543053  0.51937643  1
  O  O411  1  0.37470138  0.36598814  0.11423574  1
  O  O412  1  0.37304909  0.37799972  0.62524948  1
  O  O413  1  0.36671029  0.86719828  0.11732775  1
  O  O414  1  0.37036632  0.88158069  0.61726289  1
  O  O415  1  0.86105724  0.37890452  0.11984107  1
  O  O416  1  0.87371345  0.36314389  0.62122096  1
  O  O417  1  0.86876610  0.86838808  0.12328016  1
  O  O418  1  0.86830541  0.86798782  0.62139929  1
  O  O419  1  0.12856298  0.12942393  0.38598048  1
  O  O420  1  0.12559566  0.13105337  0.87967109  1
  O  O421  1  0.12307478  0.62078607  0.39120165  1
  O  O422  1  0.11623641  0.63778140  0.88118177  1
  O  O423  1  0.63237974  0.11529772  0.39054651  1
  O  O424  1  0.63332028  0.12296606  0.87674329  1
  O  O425  1  0.62957899  0.63160759  0.37259926  1
  O  O426  1  0.63792748  0.63510605  0.88188794  1
