# generated using pymatgen
data_V85Zn86O256
_symmetry_space_group_name_H-M   'P 1'
_cell_length_a   16.93936640
_cell_length_b   16.94673553
_cell_length_c   16.94092816
_cell_angle_alpha   90.02891346
_cell_angle_beta   90.07684949
_cell_angle_gamma   90.03600783
_symmetry_Int_Tables_number   1
_chemical_formula_structural   V85Zn86O256
_chemical_formula_sum   'V85 Zn86 O256'
_cell_volume   4863.17482764
_cell_formula_units_Z   1
loop_
 _symmetry_equiv_pos_site_id
 _symmetry_equiv_pos_as_xyz
  1  'x, y, z'
loop_
 _atom_site_type_symbol
 _atom_site_label
 _atom_site_symmetry_multiplicity
 _atom_site_fract_x
 _atom_site_fract_y
 _atom_site_fract_z
 _atom_site_occupancy
  V  V0  1  0.25066552  0.62262941  0.37351214  1
  V  V1  1  0.12004655  0.24112639  0.87209582  1
  V  V2  1  0.74939374  0.12408033  0.87209448  1
  V  V3  1  0.37569658  -0.01245077  0.37173991  1
  V  V4  1  0.24817401  0.24035346  -0.00332108  1
  V  V5  1  0.37782413  0.24773875  0.12550925  1
  V  V6  1  0.12736572  0.50468096  0.62961319  1
  V  V7  1  0.88899195  0.01162414  0.38143548  1
  V  V8  1  0.88906033  0.49178744  0.88945908  1
  V  V9  1  0.87186035  0.61717032  0.75184670  1
  V  V10  1  0.25026073  0.12800532  0.38124917  1
  V  V11  1  0.49463398  0.24194055  0.74926346  1
  V  V12  1  0.75738197  0.36848131  0.63016538  1
  V  V13  1  0.12065403  0.11008599  0.50092539  1
  V  V14  1  -0.00119541  0.12762043  0.11704400  1
  V  V15  1  -0.00252361  0.87360946  0.87629217  1
  V  V16  1  0.87511074  -0.00300637  0.87404694  1
  V  V17  1  0.62045826  0.62532564  0.00347196  1
  V  V18  1  -0.00140699  0.25466275  0.74130527  1
  V  V19  1  0.62868732  -0.00596568  0.11594051  1
  V  V20  1  0.36947551  0.61819667  0.74960536  1
  V  V21  1  0.00048499  0.85731966  0.37930161  1
  V  V22  1  0.12374844  0.38132007  0.75870303  1
  V  V23  1  0.73784337  0.62261948  0.38594229  1
  V  V24  1  0.49962416  0.49517985  0.50259053  1
  V  V25  1  0.75315198  0.75123512  0.01344035  1
  V  V26  1  0.00220791  0.00166095  -0.00185985  1
  V  V27  1  0.12830010  0.37428041  0.25425223  1
  V  V28  1  0.85510548  0.75379168  0.62044610  1
  V  V29  1  0.37788052  0.12487264  0.25082242  1
  V  V30  1  0.00030354  0.11062832  0.61972612  1
  V  V31  1  0.87161725  0.13634918  0.24294663  1
  V  V32  1  0.87429903  0.12921486  0.74312718  1
  V  V33  1  0.12145734  0.62823080  0.49546403  1
  V  V34  1  0.49893386  0.62256921  0.62806580  1
  V  V35  1  -0.01748950  0.63795804  0.13073314  1
  V  V36  1  0.12794139  0.25173617  0.38740705  1
  V  V37  1  0.12367693  0.75024611  0.87532623  1
  V  V38  1  0.63515713  -0.00332705  0.62041861  1
  V  V39  1  0.36764803  0.36875336  0.50187738  1
  V  V40  1  0.75200578  -0.00341803  0.25020677  1
  V  V41  1  0.24498969  0.87967606  0.62230282  1
  V  V42  1  0.37960790  0.87277260  0.49772340  1
  V  V43  1  0.25109896  0.74911986  -0.00281006  1
  V  V44  1  0.24689270  0.74882574  0.49698999  1
  V  V45  1  0.63209649  0.49735903  0.63191363  1
  V  V46  1  0.75270170  0.50619966  0.25038874  1
  V  V47  1  0.37127323  0.49854995  0.87295843  1
  V  V48  1  0.24971409  0.87455771  0.12193435  1
  V  V49  1  0.75388296  0.25442797  0.49438495  1
  V  V50  1  0.62204003  0.13464201  0.49295406  1
  V  V51  1  0.38622450  0.87671360  -0.00441700  1
  V  V52  1  0.24768598  0.00138144  0.24699621  1
  V  V53  1  -0.00474424  0.75013561  0.74573548  1
  V  V54  1  0.49975520  0.49972235  0.00305460  1
  V  V55  1  0.50359124  0.36449840  0.37829186  1
  V  V56  1  0.74674527  0.24777676  0.00324397  1
  V  V57  1  0.75001013  0.61473357  0.87588788  1
  V  V58  1  0.38403607  0.62195781  0.24742724  1
  V  V59  1  0.92046687  0.31118259  0.06446224  1
  V  V60  1  0.24694206  0.37430753  0.62958351  1
  V  V61  1  0.50185144  0.11909286  0.11753593  1
  V  V62  1  0.62619096  0.36748989  0.25403390  1
  V  V63  1  0.38327806  0.00605202  0.87046083  1
  V  V64  1  0.49967208  0.37336567  0.87362875  1
  V  V65  1  0.87509021  0.50610470  0.37679808  1
  V  V66  1  0.62153201  0.50610776  0.12644827  1
  V  V67  1  0.25183102  0.00601030  0.74756373  1
  V  V68  1  0.37522414  0.37408583  -0.00136368  1
  V  V69  1  -0.00130849  0.37679588  0.37854905  1
  V  V70  1  0.50482924  0.75310659  0.25721374  1
  V  V71  1  0.12285979  0.88000340  0.74494503  1
  V  V72  1  0.37348408  0.74836451  0.62670093  1
  V  V73  1  0.11684201  0.50199330  0.11947884  1
  V  V74  1  0.62666680  0.75251648  0.87479118  1
  V  V75  1  0.24635369  0.61856689  0.87165862  1
  V  V76  1  0.12851667  0.00724488  0.11648475  1
  V  V77  1  0.50043473  0.00033432  0.49657870  1
  V  V78  1  0.25391067  0.37632461  0.12532334  1
  V  V79  1  0.74866864  0.37430507  0.12122351  1
  V  V80  1  0.61958166  0.88069566  0.25629969  1
  V  V81  1  0.62847745  0.37319058  0.75219281  1
  V  V82  1  0.87423388  0.87120311  0.01796873  1
  V  V83  1  0.38581471  0.74375098  0.12196952  1
  V  V84  1  0.36747585  0.24116464  0.62734859  1
  Zn  Zn85  1  0.62020053  0.11959588  -0.00594027  1
  Zn  Zn86  1  0.24938295  0.12259567  0.87168292  1
  Zn  Zn87  1  0.37641232  0.49699895  0.37416180  1
  Zn  Zn88  1  0.62556982  0.62940641  0.50762236  1
  Zn  Zn89  1  0.50507143  0.87873152  0.87149031  1
  Zn  Zn90  1  0.11082229  0.85951019  0.24538353  1
  Zn  Zn91  1  -0.00360750  0.62657379  0.62225861  1
  Zn  Zn92  1  0.86704000  0.88294277  0.50685375  1
  Zn  Zn93  1  0.74531106  0.13380336  0.36871958  1
  Zn  Zn94  1  0.92214782  0.78792904  0.20733637  1
  Zn  Zn95  1  0.50685767  0.24494967  0.25269399  1
  Zn  Zn96  1  0.62970768  0.87027585  0.74219693  1
  Zn  Zn97  1  0.87859949  0.37463127  0.50771830  1
  Zn  Zn98  1  0.49915064  0.75245208  0.75287413  1
  Zn  Zn99  1  0.62305150  0.24648026  0.87439264  1
  Zn  Zn100  1  0.11754872  0.61898539  -0.00174800  1
  Zn  Zn101  1  0.49633061  0.12272980  0.62563680  1
  Zn  Zn102  1  -0.00365914  0.25370740  0.24925711  1
  Zn  Zn103  1  -0.00069421  0.50163146  0.50269770  1
  Zn  Zn104  1  0.62285795  0.77502180  0.39607007  1
  Zn  Zn105  1  0.75472696  -0.00797005  0.74184019  1
  Zn  Zn106  1  0.25396740  0.49948356  0.25041780  1
  Zn  Zn107  1  0.18653253  0.18881310  0.18890351  1
  Zn  Zn108  1  0.18198068  0.18846531  0.68226729  1
  Zn  Zn109  1  0.19134848  0.68427309  0.18582708  1
  Zn  Zn110  1  0.18546420  0.69055866  0.68722676  1
  Zn  Zn111  1  0.68802233  0.18550804  0.18147175  1
  Zn  Zn112  1  0.68455776  0.18685836  0.68233380  1
  Zn  Zn113  1  0.73382092  0.72179782  0.22443075  1
  Zn  Zn114  1  0.68702554  0.68343006  0.69257116  1
  Zn  Zn115  1  0.31455972  0.31000103  0.31433681  1
  Zn  Zn116  1  0.30870092  0.31179425  0.80948506  1
  Zn  Zn117  1  0.28541718  0.79707489  0.29521864  1
  Zn  Zn118  1  0.31360659  0.81342052  0.81088838  1
  Zn  Zn119  1  0.81219068  0.31777505  0.31384942  1
  Zn  Zn120  1  0.81459189  0.31167553  0.81552966  1
  Zn  Zn121  1  0.80238670  0.82403989  0.35287303  1
  Zn  Zn122  1  0.80790285  0.80974945  0.81497851  1
  Zn  Zn123  1  0.18875818  0.44225729  0.44265891  1
  Zn  Zn124  1  0.18707334  0.43389510  0.93806884  1
  Zn  Zn125  1  0.18398886  0.93358812  0.43076754  1
  Zn  Zn126  1  0.19065605  0.93710388  0.93452597  1
  Zn  Zn127  1  0.68471248  0.43766911  0.44079131  1
  Zn  Zn128  1  0.68997653  0.43569011  0.93792749  1
  Zn  Zn129  1  0.69460389  0.94603969  0.43492306  1
  Zn  Zn130  1  0.69500405  0.93346733  0.93550611  1
  Zn  Zn131  1  0.31893124  0.06021321  0.05736173  1
  Zn  Zn132  1  0.30895486  0.06029634  0.55938991  1
  Zn  Zn133  1  0.31060197  0.56296849  0.06122458  1
  Zn  Zn134  1  0.30987736  0.55707648  0.56272049  1
  Zn  Zn135  1  0.81234728  0.06145924  0.06169138  1
  Zn  Zn136  1  0.81303757  0.07245018  0.55851233  1
  Zn  Zn137  1  0.81062321  0.56407209  0.06350792  1
  Zn  Zn138  1  0.81451202  0.55948273  0.56470315  1
  Zn  Zn139  1  0.44077797  0.43589933  0.18958469  1
  Zn  Zn140  1  0.43692144  0.43369805  0.68877966  1
  Zn  Zn141  1  0.43939090  0.93593926  0.18325302  1
  Zn  Zn142  1  0.44168515  0.93568547  0.68713588  1
  Zn  Zn143  1  0.94101255  0.44681187  0.19609396  1
  Zn  Zn144  1  0.94146478  0.44159303  0.69213108  1
  Zn  Zn145  1  0.94280825  0.95193465  0.19556818  1
  Zn  Zn146  1  0.93181695  0.93563686  0.68636019  1
  Zn  Zn147  1  0.06536913  0.06941523  0.30260887  1
  Zn  Zn148  1  0.06213559  0.06255593  0.80767827  1
  Zn  Zn149  1  0.06421646  0.56418717  0.30957838  1
  Zn  Zn150  1  0.05790451  0.56240302  0.81278137  1
  Zn  Zn151  1  0.56112548  0.06146423  0.31230748  1
  Zn  Zn152  1  0.56457270  0.06197094  0.80665930  1
  Zn  Zn153  1  0.55926570  0.55532194  0.31142288  1
  Zn  Zn154  1  0.56181754  0.56114880  0.81363623  1
  Zn  Zn155  1  0.43343089  0.18686529  0.44044322  1
  Zn  Zn156  1  0.43595388  0.18601859  0.93646820  1
  Zn  Zn157  1  0.44024993  0.68608995  0.43785231  1
  Zn  Zn158  1  0.44003696  0.68610024  0.93581510  1
  Zn  Zn159  1  0.93694747  0.19167303  0.43865549  1
  Zn  Zn160  1  0.94014853  0.18491432  0.92768254  1
  Zn  Zn161  1  0.93068039  0.68555563  0.43716612  1
  Zn  Zn162  1  0.93724469  0.68327421  0.94346846  1
  Zn  Zn163  1  0.08027854  0.31417665  0.05915054  1
  Zn  Zn164  1  0.06351129  0.31082531  0.56530616  1
  Zn  Zn165  1  0.06315570  0.81213290  0.06357469  1
  Zn  Zn166  1  0.05824560  0.81385928  0.55941666  1
  Zn  Zn167  1  0.56411386  0.31014373  0.06331703  1
  Zn  Zn168  1  0.56258407  0.31000776  0.56654924  1
  Zn  Zn169  1  0.56610996  0.81142978  0.06685073  1
  Zn  Zn170  1  0.55940201  0.81258480  0.56651185  1
  O  O171  1  0.11572674  0.11959413  0.12708057  1
  O  O172  1  0.11223495  0.12547585  0.61482856  1
  O  O173  1  0.13711834  0.60725348  0.12225794  1
  O  O174  1  0.12526332  0.61928357  0.61945342  1
  O  O175  1  0.61772485  0.11455521  0.12145489  1
  O  O176  1  0.62115892  0.11570407  0.61098815  1
  O  O177  1  0.62768053  0.60831516  0.11686311  1
  O  O178  1  0.61549318  0.61410247  0.63005900  1
  O  O179  1  0.37943651  0.37464974  0.38540405  1
  O  O180  1  0.37710211  0.38009832  0.87842698  1
  O  O181  1  0.36332058  0.88497514  0.38037028  1
  O  O182  1  0.37782058  0.88138641  0.88016131  1
  O  O183  1  0.88483878  0.38402718  0.37706603  1
  O  O184  1  0.86975303  0.39427333  0.86950609  1
  O  O185  1  0.89556730  0.89988448  0.36762122  1
  O  O186  1  0.88234737  0.88086785  0.87938850  1
  O  O187  1  0.25433695  0.00591044  0.36485561  1
  O  O188  1  0.25818649  0.00052499  0.86456142  1
  O  O189  1  0.25571858  0.51002120  0.37607013  1
  O  O190  1  0.25540127  0.50896759  0.88079065  1
  O  O191  1  0.76209580  0.01317344  0.36374979  1
  O  O192  1  0.75684114  0.01246637  0.87617081  1
  O  O193  1  0.75675064  0.49846008  0.36990965  1
  O  O194  1  0.75197810  0.51205153  0.87876243  1
  O  O195  1  0.24651762  0.48600144  0.12413858  1
  O  O196  1  0.23620362  0.49267019  0.62414989  1
  O  O197  1  0.24489554  1.00049107  0.12632065  1
  O  O198  1  0.25584185  0.98621371  0.63013618  1
  O  O199  1  0.74448916  0.49249975  0.13169607  1
  O  O200  1  0.73665785  0.49158449  0.62244398  1
  O  O201  1  0.73650121  1.00709556  0.13278161  1
  O  O202  1  0.73845941  1.00427849  0.61773222  1
  O  O203  1  0.00915135  0.37505995  0.26141389  1
  O  O204  1  0.01068318  0.36646660  0.74459809  1
  O  O205  1  -0.00380231  0.86996857  0.25542851  1
  O  O206  1  0.00514980  0.87048702  0.75423674  1
  O  O207  1  0.50780440  0.37172111  0.26011449  1
  O  O208  1  0.50719154  0.36605393  0.75517219  1
  O  O209  1  0.50580495  0.86531681  0.24519598  1
  O  O210  1  0.50929723  0.87062362  0.75184600  1
  O  O211  1  0.49462195  0.12631455  0.24138092  1
  O  O212  1  0.50085437  0.13794170  0.74631976  1
  O  O213  1  0.49061540  0.62897008  0.25202566  1
  O  O214  1  0.49045531  0.62253379  0.74078986  1
  O  O215  1  0.99402602  0.13336203  0.23377517  1
  O  O216  1  0.99530201  0.12900333  0.73757034  1
  O  O217  1  1.01106500  0.62304481  0.22823023  1
  O  O218  1  0.99104375  0.63534365  0.74974821  1
  O  O219  1  0.36903309  0.25570996  0.00517060  1
  O  O220  1  0.37723170  0.26194464  0.51004255  1
  O  O221  1  0.37127520  0.75349973  0.00256258  1
  O  O222  1  0.37098062  0.75638483  0.50575257  1
  O  O223  1  0.86894204  0.25141128  -0.00342559  1
  O  O224  1  0.85982483  0.25561882  0.49950715  1
  O  O225  1  0.86636698  0.75935599  -0.00285524  1
  O  O226  1  0.87566702  0.74390845  0.52057569  1
  O  O227  1  0.12355371  0.24273101  0.48956015  1
  O  O228  1  0.13575371  0.25347707  0.98547666  1
  O  O229  1  0.13354979  0.73859292  0.50491870  1
  O  O230  1  0.13495839  0.74930316  0.99407092  1
  O  O231  1  0.63287807  0.24420916  0.50357140  1
  O  O232  1  0.63393409  0.24491163  0.99640160  1
  O  O233  1  0.60628789  0.73969583  0.49940163  1
  O  O234  1  0.62884450  0.74123913  0.99743724  1
  O  O235  1  0.49410639  0.24220706  0.12788140  1
  O  O236  1  0.48810120  0.25011438  0.63306607  1
  O  O237  1  0.49009069  0.75028066  0.13152626  1
  O  O238  1  0.49051598  0.73798323  0.62969447  1
  O  O239  1  0.99256434  0.25136719  0.11890539  1
  O  O240  1  1.00389867  0.24167555  0.63688415  1
  O  O241  1  0.99675012  0.74458022  0.13125460  1
  O  O242  1  0.99823030  0.74930495  0.63817181  1
  O  O243  1  0.00896978  0.25923007  0.37318128  1
  O  O244  1  0.00955941  0.24478307  0.85981143  1
  O  O245  1  -0.00831739  0.75810943  0.37112740  1
  O  O246  1  0.00238757  0.75343771  0.86593421  1
  O  O247  1  0.49481276  0.26052120  0.37424761  1
  O  O248  1  0.49800888  0.25507033  0.86735748  1
  O  O249  1  0.50274382  0.74540791  0.36045242  1
  O  O250  1  0.51390392  0.74753430  0.87442231  1
  O  O251  1  0.24141323  0.12060168  0.48726202  1
  O  O252  1  0.25477127  0.13785819  1.00051502  1
  O  O253  1  0.24628511  0.63053034  0.49555546  1
  O  O254  1  0.24882055  0.63204319  0.98779539  1
  O  O255  1  0.74273016  0.14107607  0.49745241  1
  O  O256  1  0.75042685  0.13254524  0.99192271  1
  O  O257  1  0.74450491  0.61446801  0.49012228  1
  O  O258  1  0.73895788  0.62889765  0.99545357  1
  O  O259  1  0.25594264  0.36544366  0.00723941  1
  O  O260  1  0.25698124  0.37917680  0.51233733  1
  O  O261  1  0.25884104  0.86635317  0.00206335  1
  O  O262  1  0.25371935  0.86867933  0.50322873  1
  O  O263  1  0.74656612  0.36744587  0.01297837  1
  O  O264  1  0.74795178  0.36679752  0.50955219  1
  O  O265  1  0.76273185  0.86505112  -0.00019076  1
  O  O266  1  0.76612547  0.86267272  0.45498200  1
  O  O267  1  0.13103020  0.48835659  0.24186521  1
  O  O268  1  0.12002562  0.49186489  0.74455763  1
  O  O269  1  0.13456875  1.00014484  0.23699199  1
  O  O270  1  0.13238468  0.98539142  0.75497110  1
  O  O271  1  0.62780651  0.48803854  0.24166455  1
  O  O272  1  0.61792285  0.48750758  0.74307114  1
  O  O273  1  0.63042070  0.99910157  0.24195158  1
  O  O274  1  0.62654343  1.00540836  0.72835048  1
  O  O275  1  0.37398901  0.00756186  0.25585938  1
  O  O276  1  0.36650581  -0.00856728  0.76137709  1
  O  O277  1  0.37517678  0.50715951  0.25055288  1
  O  O278  1  0.37619314  0.51047530  0.75439383  1
  O  O279  1  0.86826281  0.01585930  0.25529319  1
  O  O280  1  0.87420279  0.01091754  0.75464155  1
  O  O281  1  0.86379138  0.49654058  0.26168809  1
  O  O282  1  0.88107066  0.51432590  0.75950386  1
  O  O283  1  0.12344545  0.37134543  0.37175148  1
  O  O284  1  0.13189699  0.36575555  0.86301043  1
  O  O285  1  0.10289276  0.88173895  0.36872173  1
  O  O286  1  0.11859620  0.86873026  0.86831149  1
  O  O287  1  0.61585689  0.37980703  0.36663862  1
  O  O288  1  0.62024150  0.37206427  0.86808952  1
  O  O289  1  0.61989218  0.88646792  0.36150836  1
  O  O290  1  0.62302279  0.86273155  0.88174782  1
  O  O291  1  0.38241316  0.12592148  0.13010351  1
  O  O292  1  0.37215043  0.13779610  0.61723032  1
  O  O293  1  0.37011472  0.63269722  0.13251793  1
  O  O294  1  0.37685469  0.62515817  0.63245936  1
  O  O295  1  0.88401205  0.12184335  0.13126895  1
  O  O296  1  0.88669471  0.12389242  0.63080517  1
  O  O297  1  0.88320760  0.62330888  0.13062470  1
  O  O298  1  0.87360279  0.63193251  0.63548309  1
  O  O299  1  0.25277003  0.25862392  0.11829101  1
  O  O300  1  0.25569839  0.25931764  0.62911608  1
  O  O301  1  0.26230462  0.75117622  0.10860010  1
  O  O302  1  0.25456902  0.75749064  0.61576889  1
  O  O303  1  0.75124353  0.25605803  0.11248301  1
  O  O304  1  0.74532700  0.25953314  0.61397388  1
  O  O305  1  0.74348395  0.74369795  0.11200812  1
  O  O306  1  0.75648066  0.74740367  0.62696793  1
  O  O307  1  0.24114948  0.23899726  0.36917422  1
  O  O308  1  0.24537978  0.24513230  0.88029944  1
  O  O309  1  0.26063405  0.73720969  0.39200610  1
  O  O310  1  0.24682620  0.74484718  0.88263669  1
  O  O311  1  0.74828475  0.25503833  0.38907466  1
  O  O312  1  0.75071995  0.23936258  0.88358067  1
  O  O313  1  0.72767784  0.72354794  0.36896485  1
  O  O314  1  0.74036002  0.73852229  0.88667311  1
  O  O315  1  -0.00673400  0.12021606  0.00901843  1
  O  O316  1  0.00401908  0.13027968  0.51277552  1
  O  O317  1  0.00455896  0.63188481  0.02251216  1
  O  O318  1  0.00856346  0.62527296  0.50029131  1
  O  O319  1  0.49961396  0.12746172  0.01264176  1
  O  O320  1  0.50495549  0.11910845  0.50123608  1
  O  O321  1  0.51286146  0.61716790  -0.00434976  1
  O  O322  1  0.49283285  0.61222592  0.51458953  1
  O  O323  1  0.49414166  0.37746044  0.49688857  1
  O  O324  1  0.49463785  0.37704199  0.99292866  1
  O  O325  1  0.48496261  0.88173414  0.50174019  1
  O  O326  1  0.48859761  0.86920750  0.99839349  1
  O  O327  1  1.00221832  0.37614948  0.48988622  1
  O  O328  1  0.98457105  0.36510822  1.01286572  1
  O  O329  1  0.99074248  0.86968217  0.48469691  1
  O  O330  1  0.99431213  0.87939194  0.99488009  1
  O  O331  1  0.49642427  0.48761819  0.38668741  1
  O  O332  1  0.49251495  0.49328008  0.88209103  1
  O  O333  1  0.48862667  1.00430102  0.38648621  1
  O  O334  1  0.48766059  1.00026746  0.86884994  1
  O  O335  1  0.99312791  0.49553333  0.37484351  1
  O  O336  1  0.98943402  0.50344876  0.88162911  1
  O  O337  1  0.98968126  1.01468837  0.36939951  1
  O  O338  1  0.99608975  0.99616045  0.88000982  1
  O  O339  1  0.00926354  0.01044783  0.11898432  1
  O  O340  1  -0.00135062  0.01152127  0.62737670  1
  O  O341  1  0.01449514  0.50358342  0.12729549  1
  O  O342  1  0.01258177  0.50396698  0.62353309  1
  O  O343  1  0.51397801  0.00715346  0.12799326  1
  O  O344  1  0.50259412  0.00304266  0.61066957  1
  O  O345  1  0.50928127  0.49012230  0.11446918  1
  O  O346  1  0.50535950  0.50230419  0.62172679  1
  O  O347  1  0.24636220  0.37479962  0.24288046  1
  O  O348  1  0.23966783  0.37443227  0.73872261  1
  O  O349  1  0.26789914  0.89705420  0.23659846  1
  O  O350  1  0.24235750  0.87835055  0.74062918  1
  O  O351  1  0.74410348  0.38167540  0.24139544  1
  O  O352  1  0.73695616  0.36415621  0.74485015  1
  O  O353  1  0.73942068  0.89387758  0.25472576  1
  O  O354  1  0.74204916  0.88125248  0.76096332  1
  O  O355  1  0.25571555  0.11712723  0.25550462  1
  O  O356  1  0.24275960  0.10831113  0.74315316  1
  O  O357  1  0.26329810  0.62170967  0.25910689  1
  O  O358  1  0.25443162  0.63065933  0.76238030  1
  O  O359  1  0.75618061  0.12202255  0.24850211  1
  O  O360  1  0.75790338  0.12534924  0.75408676  1
  O  O361  1  0.73826506  0.60772730  0.26155479  1
  O  O362  1  0.75995765  0.62893087  0.76343855  1
  O  O363  1  0.36623537  0.11793210  0.37168609  1
  O  O364  1  0.37128509  0.10958861  0.87676348  1
  O  O365  1  0.37041743  0.62146073  0.36814014  1
  O  O366  1  0.36783044  0.61978660  0.86816506  1
  O  O367  1  0.87481729  0.12368689  0.36616742  1
  O  O368  1  0.86925005  0.11697918  0.86557139  1
  O  O369  1  0.85855085  0.61253850  0.38163187  1
  O  O370  1  0.86790727  0.61965481  0.87171219  1
  O  O371  1  0.13303090  0.38267175  0.13366833  1
  O  O372  1  0.13064953  0.38170439  0.63094449  1
  O  O373  1  0.13276561  0.88491921  0.12590559  1
  O  O374  1  0.13273573  0.86899602  0.63193445  1
  O  O375  1  0.63285347  0.38146714  0.12998330  1
  O  O376  1  0.63071448  0.37956559  0.63428619  1
  O  O377  1  0.62132713  0.88967987  0.13320381  1
  O  O378  1  0.62161115  0.89279913  0.61985424  1
  O  O379  1  0.12324000  0.26277605  0.25579129  1
  O  O380  1  0.11891167  0.25759409  0.75458378  1
  O  O381  1  0.17907309  0.77071980  0.25204105  1
  O  O382  1  0.11745509  0.75921514  0.75558892  1
  O  O383  1  0.62696813  0.26326025  0.24314620  1
  O  O384  1  0.61450566  0.25592016  0.74975137  1
  O  O385  1  0.62042151  0.76605632  0.24692297  1
  O  O386  1  0.62282027  0.74733505  0.76202313  1
  O  O387  1  0.37563392  0.24085902  0.24262261  1
  O  O388  1  0.38158039  0.25576244  0.73980014  1
  O  O389  1  0.38155780  0.74329549  0.24051303  1
  O  O390  1  0.37423791  0.73721604  0.74507129  1
  O  O391  1  0.87491959  0.24102501  0.25376562  1
  O  O392  1  0.88365717  0.23763472  0.75637064  1
  O  O393  1  0.83468152  0.75983155  0.26501995  1
  O  O394  1  0.87941458  0.74354774  0.74330866  1
  O  O395  1  0.38444902  0.48661117  0.50470116  1
  O  O396  1  0.38005788  0.49389424  0.99576746  1
  O  O397  1  0.37897290  0.99305693  0.49222879  1
  O  O398  1  0.37016142  0.98916932  0.98280441  1
  O  O399  1  0.87909750  0.49407735  0.49375960  1
  O  O400  1  0.87056608  0.50315965  0.98824426  1
  O  O401  1  0.87201639  1.00552330  0.48440795  1
  O  O402  1  0.88070538  0.99087468  0.99509351  1
  O  O403  1  0.12169218  -0.00341452  0.00909540  1
  O  O404  1  0.12651273  0.01106499  0.49368214  1
  O  O405  1  0.12698700  0.49502443  0.01548971  1
  O  O406  1  0.12384645  0.51318746  0.50824541  1
  O  O407  1  0.63166277  -0.00125279  0.01253472  1
  O  O408  1  0.61838097  0.00565497  0.50343661  1
  O  O409  1  0.62043806  0.50443442  0.00513336  1
  O  O410  1  0.61128908  0.49659819  0.51335767  1
  O  O411  1  0.36940488  0.36875963  0.12156597  1
  O  O412  1  0.36523074  0.36930247  0.62134567  1
  O  O413  1  0.37066943  0.86828615  0.11376209  1
  O  O414  1  0.36699512  0.86924483  0.61639317  1
  O  O415  1  0.86952497  0.37553552  0.12953605  1
  O  O416  1  0.86044475  0.38426323  0.63020065  1
  O  O417  1  0.88513805  0.87921736  0.11916883  1
  O  O418  1  0.87332970  0.86033652  0.62368262  1
  O  O419  1  0.13004554  0.13304922  0.37808072  1
  O  O420  1  0.12945431  0.13609258  0.86757546  1
  O  O421  1  0.13683077  0.61991040  0.38266283  1
  O  O422  1  0.13091682  0.62999678  0.87676564  1
  O  O423  1  0.62522006  0.12105423  0.38806973  1
  O  O424  1  0.63435573  0.12448822  0.87486665  1
  O  O425  1  0.63475684  0.60086793  0.38451005  1
  O  O426  1  0.63126033  0.62756181  0.88236560  1
