# generated using pymatgen
data_V85Zn86O256
_symmetry_space_group_name_H-M   'P 1'
_cell_length_a   16.96842988
_cell_length_b   16.95996387
_cell_length_c   16.97470461
_cell_angle_alpha   90.03357212
_cell_angle_beta   89.99471280
_cell_angle_gamma   89.88650069
_symmetry_Int_Tables_number   1
_chemical_formula_structural   V85Zn86O256
_chemical_formula_sum   'V85 Zn86 O256'
_cell_volume   4885.03722872
_cell_formula_units_Z   1
loop_
 _symmetry_equiv_pos_site_id
 _symmetry_equiv_pos_as_xyz
  1  'x, y, z'
loop_
 _atom_site_type_symbol
 _atom_site_label
 _atom_site_symmetry_multiplicity
 _atom_site_fract_x
 _atom_site_fract_y
 _atom_site_fract_z
 _atom_site_occupancy
  V  V0  1  0.50012450  0.74919738  0.75442974  1
  V  V1  1  0.61593957  0.87690658  0.24886506  1
  V  V2  1  0.74720770  0.48038739  0.24731282  1
  V  V3  1  0.63456539  0.25031315  0.87357662  1
  V  V4  1  0.13962750  0.76104230  0.88704601  1
  V  V5  1  0.74621523  0.25346085  0.01028771  1
  V  V6  1  0.24824494  0.00538416  0.25527487  1
  V  V7  1  0.87227564  0.75124570  0.12544258  1
  V  V8  1  0.74854117  0.00538380  0.74798271  1
  V  V9  1  0.24843935  0.62477620  0.87172374  1
  V  V10  1  0.87311302  0.25892005  0.12933876  1
  V  V11  1  0.63005603  0.74664383  0.37510642  1
  V  V12  1  0.37211013  0.37554425  0.50410293  1
  V  V13  1  0.49329647  0.73464317  0.24652945  1
  V  V14  1  0.62144011  0.88107955  0.74650579  1
  V  V15  1  0.00487711  0.37521006  0.37890474  1
  V  V16  1  0.86965378  0.49548418  0.88434312  1
  V  V17  1  0.74490151  0.87913269  0.12405932  1
  V  V18  1  0.37815110  0.74921753  0.62601678  1
  V  V19  1  0.60841107  0.00592929  0.11989611  1
  V  V20  1  0.49751334  0.24392815  0.24200670  1
  V  V21  1  0.37138014  0.25115953  0.62587619  1
  V  V22  1  0.12535965  0.11561106  0.48995242  1
  V  V23  1  0.24936300  -0.00257623  0.75448337  1
  V  V24  1  0.19705949  0.42836954  0.67817040  1
  V  V25  1  0.12638618  0.87048737  0.24974224  1
  V  V26  1  -0.00224820  0.87455436  0.37200236  1
  V  V27  1  0.63289884  0.62219620  0.49986730  1
  V  V28  1  0.12734000  0.63043193  0.00287825  1
  V  V29  1  0.00467085  0.24447058  0.24607511  1
  V  V30  1  0.07366062  0.05411783  0.67335778  1
  V  V31  1  0.74697910  0.00220923  0.24605674  1
  V  V32  1  0.87273819  0.50178915  0.37731842  1
  V  V33  1  0.11790975  0.61733454  0.51281007  1
  V  V34  1  0.87869150  0.12185718  0.23911861  1
  V  V35  1  0.37827709  0.50356412  0.37199272  1
  V  V36  1  0.24937712  0.24306696  0.49379732  1
  V  V37  1  0.12638488  0.12851050  0.00709977  1
  V  V38  1  0.74810699  0.24853168  0.49730778  1
  V  V39  1  0.87400365  0.22810823  0.62384528  1
  V  V40  1  0.87407655  0.00658691  0.87259979  1
  V  V41  1  0.37497845  0.87475908  0.49738211  1
  V  V42  1  0.62344554  0.25119125  0.36989340  1
  V  V43  1  0.87575561  0.00137459  0.37209086  1
  V  V44  1  -0.00246542  0.00644971  0.00556454  1
  V  V45  1  0.12469934  0.74338928  0.37413053  1
  V  V46  1  0.25020376  0.12587453  0.87748715  1
  V  V47  1  0.87211425  0.87781419  0.00151495  1
  V  V48  1  0.50282281  0.11601080  0.62566842  1
  V  V49  1  0.12290097  -0.00048265  0.12775307  1
  V  V50  1  0.50726419  0.49662538  0.50475706  1
  V  V51  1  0.24891057  0.25260198  -0.00385842  1
  V  V52  1  0.62324851  0.75064331  0.87739165  1
  V  V53  1  0.26154786  0.37375952  0.12625159  1
  V  V54  1  0.87824045  0.37276355  0.50575078  1
  V  V55  1  0.74648002  0.50418099  0.74609355  1
  V  V56  1  0.12742361  0.37439349  0.25060272  1
  V  V57  1  0.86063739  0.62366085  0.25350518  1
  V  V58  1  0.61054561  0.12407435  0.00477156  1
  V  V59  1  0.87048061  0.87237308  0.49851443  1
  V  V60  1  0.50807872  0.62064320  0.62818520  1
  V  V61  1  0.50209813  0.24984191  0.74918234  1
  V  V62  1  0.49960719  0.50369725  0.00894713  1
  V  V63  1  0.74734996  0.75335941  0.00165189  1
  V  V64  1  0.62450380  0.11607209  0.50204718  1
  V  V65  1  0.37374361  0.12093041  0.75363635  1
  V  V66  1  0.25277423  0.50074643  0.25164939  1
  V  V67  1  0.25018013  0.87932996  0.63049308  1
  V  V68  1  0.75707677  0.62987432  0.87214046  1
  V  V69  1  0.37148633  0.00949885  0.37962995  1
  V  V70  1  0.12045327  0.49870156  0.12184737  1
  V  V71  1  0.00278244  0.86859409  0.87912936  1
  V  V72  1  0.62170635  0.62471176  0.01043281  1
  V  V73  1  0.49525217  0.89194162  0.88493440  1
  V  V74  1  0.50377338  0.37438358  0.36611376  1
  V  V75  1  0.74243811  0.87530011  0.62322591  1
  V  V76  1  0.50257821  0.37728025  0.87372802  1
  V  V77  1  0.25312305  0.62247919  0.37547889  1
  V  V78  1  0.75092935  0.12360306  0.37135961  1
  V  V79  1  0.25240640  0.74683391  0.50081457  1
  V  V80  1  0.74397864  0.37896320  0.62407752  1
  V  V81  1  0.06666920  0.81732786  0.70555151  1
  V  V82  1  0.37535887  0.50165988  0.86970917  1
  V  V83  1  -0.00152534  0.73865585  0.24962257  1
  V  V84  1  0.36542623  0.88131171  0.00427404  1
  Zn  Zn85  1  0.62672872  0.37734974  0.74567802  1
  Zn  Zn86  1  0.75064422  0.12546446  0.87450205  1
  Zn  Zn87  1  0.03339414  0.44893403  -0.04782827  1
  Zn  Zn88  1  0.89620526  0.62678121  0.73052395  1
  Zn  Zn89  1  0.00013497  0.00329228  0.50461603  1
  Zn  Zn90  1  0.62615573  0.48819820  0.12887761  1
  Zn  Zn91  1  -0.00947404  0.23067172  0.73761789  1
  Zn  Zn92  1  0.49769072  0.87303677  0.37614564  1
  Zn  Zn93  1  0.37931931  0.23095686  0.11570441  1
  Zn  Zn94  1  0.37215221  0.62098283  0.74750381  1
  Zn  Zn95  1  0.87893621  0.75226600  0.63451707  1
  Zn  Zn96  1  0.00399411  0.49414874  0.52529968  1
  Zn  Zn97  1  0.50323200  -0.00575330  0.50224117  1
  Zn  Zn98  1  0.13226149  0.24732289  0.37310933  1
  Zn  Zn99  1  -0.00802210  0.62094951  0.10698579  1
  Zn  Zn100  1  0.36952869  0.73432464  0.11523772  1
  Zn  Zn101  1  0.75378791  0.74143014  0.49849570  1
  Zn  Zn102  1  0.37259288  0.12365015  0.25081744  1
  Zn  Zn103  1  0.86941991  0.38156776  0.00994256  1
  Zn  Zn104  1  0.07183077  0.31565204  0.82409153  1
  Zn  Zn105  1  0.37804727  0.37330254  -0.00012354  1
  Zn  Zn106  1  0.24740888  0.86705523  0.12164650  1
  Zn  Zn107  1  0.19231167  0.18645892  0.18442812  1
  Zn  Zn108  1  0.18975951  0.20427761  0.69208345  1
  Zn  Zn109  1  0.19311289  0.68349595  0.18560508  1
  Zn  Zn110  1  0.19477628  0.68662507  0.68954684  1
  Zn  Zn111  1  0.68524406  0.30839642  0.18808868  1
  Zn  Zn112  1  0.68870387  0.18959757  0.68482595  1
  Zn  Zn113  1  0.68327917  0.68897835  0.18829550  1
  Zn  Zn114  1  0.69180281  0.69215354  0.68708893  1
  Zn  Zn115  1  0.31825277  0.31520689  0.31461632  1
  Zn  Zn116  1  0.31206945  0.31300714  0.81372134  1
  Zn  Zn117  1  0.31101877  0.81160792  0.30851010  1
  Zn  Zn118  1  0.31775259  0.81372259  0.81592412  1
  Zn  Zn119  1  0.82214377  0.30717712  0.32068308  1
  Zn  Zn120  1  0.84582691  0.32482045  0.79295517  1
  Zn  Zn121  1  0.80782061  0.81308170  0.31051809  1
  Zn  Zn122  1  0.81588633  0.81409939  0.81242983  1
  Zn  Zn123  1  0.18837592  0.43464217  0.44781623  1
  Zn  Zn124  1  0.19754230  0.43902686  0.93322577  1
  Zn  Zn125  1  0.18959437  0.93471870  0.43611713  1
  Zn  Zn126  1  0.18939584  0.94380855  0.93730349  1
  Zn  Zn127  1  0.68989938  0.43704033  0.43501832  1
  Zn  Zn128  1  0.68822380  0.43732860  0.93946194  1
  Zn  Zn129  1  0.68670861  0.93519171  0.43266043  1
  Zn  Zn130  1  0.68183077  0.94070157  0.93504719  1
  Zn  Zn131  1  0.31662718  0.05458222  0.06498701  1
  Zn  Zn132  1  0.30873580  0.06325264  0.56508120  1
  Zn  Zn133  1  0.30793102  0.55971557  0.05459610  1
  Zn  Zn134  1  0.31621964  0.56108488  0.56276889  1
  Zn  Zn135  1  0.80392892  0.06902962  0.06141832  1
  Zn  Zn136  1  0.80504293  0.05264111  0.55662801  1
  Zn  Zn137  1  0.80538592  0.56761940  0.06689230  1
  Zn  Zn138  1  0.82017612  0.56046535  0.56706019  1
  Zn  Zn139  1  0.43681862  0.56091302  0.18692829  1
  Zn  Zn140  1  0.43699862  0.43717108  0.68752377  1
  Zn  Zn141  1  0.43187504  0.93844405  0.18793143  1
  Zn  Zn142  1  0.43507288  0.93768817  0.68958912  1
  Zn  Zn143  1  0.94175406  0.43677246  0.18723120  1
  Zn  Zn144  1  0.94537838  0.42918062  0.69990998  1
  Zn  Zn145  1  0.93974551  0.93555297  0.18702817  1
  Zn  Zn146  1  0.92630521  0.93920761  0.68641668  1
  Zn  Zn147  1  0.06342293  0.06243084  0.31450108  1
  Zn  Zn148  1  0.03954054  0.10260114  0.84560559  1
  Zn  Zn149  1  0.06348825  0.55904864  0.31522854  1
  Zn  Zn150  1  0.06276444  0.56120347  0.70354355  1
  Zn  Zn151  1  0.55893522  0.06063241  0.31601812  1
  Zn  Zn152  1  0.56569690  0.06565583  0.81320457  1
  Zn  Zn153  1  0.57166333  0.55929699  0.31903438  1
  Zn  Zn154  1  0.56913198  0.56249557  0.81666015  1
  Zn  Zn155  1  0.43945915  0.18650481  0.43910906  1
  Zn  Zn156  1  0.43523249  0.19006575  0.93293282  1
  Zn  Zn157  1  0.44400304  0.68671266  0.43636055  1
  Zn  Zn158  1  0.43421184  0.68904453  0.94163156  1
  Zn  Zn159  1  0.94278997  0.18706000  0.43780321  1
  Zn  Zn160  1  0.93458173  0.19651706  0.94137816  1
  Zn  Zn161  1  0.93576658  0.68377894  0.44026976  1
  Zn  Zn162  1  0.99576483  0.63583303  0.87789953  1
  Zn  Zn163  1  0.06209013  0.31209321  0.06311327  1
  Zn  Zn164  1  0.06674817  0.30503565  0.57443910  1
  Zn  Zn165  1  0.06018338  0.81148824  0.06259982  1
  Zn  Zn166  1  0.06534840  0.81412953  0.54448920  1
  Zn  Zn167  1  0.55971644  0.31420950  0.05977193  1
  Zn  Zn168  1  0.56078717  0.30667725  0.55930168  1
  Zn  Zn169  1  0.55408852  0.81232624  0.06456924  1
  Zn  Zn170  1  0.56342651  0.80952530  0.56342975  1
  O  O171  1  0.13067409  0.11311451  0.11683105  1
  O  O172  1  0.12775142  0.12044300  0.61643090  1
  O  O173  1  0.12532844  0.61826758  0.11781177  1
  O  O174  1  0.12894411  0.62700649  0.61587628  1
  O  O175  1  0.62318256  0.11779303  0.10824425  1
  O  O176  1  0.61585493  0.13116700  0.61412374  1
  O  O177  1  0.63053545  0.61938737  0.11334909  1
  O  O178  1  0.61345705  0.63299756  0.61789843  1
  O  O179  1  0.38504130  0.38368476  0.38397848  1
  O  O180  1  0.38474969  0.38171058  0.87407342  1
  O  O181  1  0.37232618  0.87675249  0.38889000  1
  O  O182  1  0.39023829  0.87176056  0.88417565  1
  O  O183  1  0.88374191  0.37804030  0.38706236  1
  O  O184  1  0.85855494  0.39279825  0.88530070  1
  O  O185  1  0.87952166  0.87986725  0.37578814  1
  O  O186  1  0.88261045  0.88374247  0.88351037  1
  O  O187  1  0.25948997  -0.00555136  0.36914365  1
  O  O188  1  0.25000198  0.00712019  0.86145678  1
  O  O189  1  0.25954633  0.50373976  0.37586945  1
  O  O190  1  0.26405343  0.50998071  0.87709043  1
  O  O191  1  0.75653346  0.00266858  0.36630356  1
  O  O192  1  0.75652534  -0.00234631  0.86675543  1
  O  O193  1  0.76426481  0.49226225  0.36404399  1
  O  O194  1  0.74952111  0.51168063  0.87034911  1
  O  O195  1  0.24072754  0.49227892  0.13034018  1
  O  O196  1  0.26455317  0.49151926  0.63307720  1
  O  O197  1  0.23649470  0.98961222  0.13414848  1
  O  O198  1  0.25243417  0.98573062  0.63219001  1
  O  O199  1  0.75217839  0.49949760  0.14512142  1
  O  O200  1  0.75423545  0.49040792  0.63285227  1
  O  O201  1  0.74039227  0.99661456  0.12996705  1
  O  O202  1  0.75312139  0.98581642  0.63314184  1
  O  O203  1  0.00805833  0.36691517  0.25762425  1
  O  O204  1  -0.03808623  0.34686049  0.76958613  1
  O  O205  1  0.00305961  0.86325655  0.25821937  1
  O  O206  1  0.00392649  0.88103478  0.75947207  1
  O  O207  1  0.49918867  0.36095257  0.26654764  1
  O  O208  1  0.50435655  0.36961122  0.75761017  1
  O  O209  1  0.50855236  0.87053826  0.25082882  1
  O  O210  1  0.50314996  0.86951452  0.75656389  1
  O  O211  1  0.50023974  0.14189981  0.25816685  1
  O  O212  1  0.49358361  0.12874960  0.74522601  1
  O  O213  1  0.50533080  0.62985494  0.25330812  1
  O  O214  1  0.50472280  0.63262086  0.74454206  1
  O  O215  1  0.99100650  0.13289687  0.25938941  1
  O  O216  1  1.00872988  0.10601121  0.73258388  1
  O  O217  1  0.99228021  0.63376214  0.25441481  1
  O  O218  1  1.00416248  0.63163247  0.76685394  1
  O  O219  1  0.36627927  0.25330331  0.00082557  1
  O  O220  1  0.37306412  0.25494612  0.50639511  1
  O  O221  1  0.39324812  0.77160504  0.00526307  1
  O  O222  1  0.37168500  0.75521508  0.50481345  1
  O  O223  1  0.86550354  0.24721572  0.01434044  1
  O  O224  1  0.86702171  0.25516740  0.49935573  1
  O  O225  1  0.86227443  0.76189578  0.01191976  1
  O  O226  1  0.87241168  0.76336061  0.49384101  1
  O  O227  1  0.13435228  0.23908226  0.49990432  1
  O  O228  1  0.13353184  0.23752965  1.01106180  1
  O  O229  1  0.13315264  0.73777021  0.49363508  1
  O  O230  1  0.12919712  0.74765003  0.99650630  1
  O  O231  1  0.62910643  0.23828513  0.48977184  1
  O  O232  1  0.62757182  0.24131005  0.99427087  1
  O  O233  1  0.62415643  0.74102854  0.49160740  1
  O  O234  1  0.62647902  0.74503887  0.99832691  1
  O  O235  1  0.49622019  0.25475936  0.13956840  1
  O  O236  1  0.49270575  0.23946439  0.63009592  1
  O  O237  1  0.49958695  0.74989694  0.14440011  1
  O  O238  1  0.49704225  0.74479304  0.63661246  1
  O  O239  1  0.99278618  0.24852854  0.14100595  1
  O  O240  1  0.97659931  0.24840444  0.61706639  1
  O  O241  1  0.99158975  0.74680511  0.13433027  1
  O  O242  1  1.00870676  0.76858701  0.63772088  1
  O  O243  1  0.00152998  0.26121755  0.36620292  1
  O  O244  1  0.00553973  0.21496142  0.85851939  1
  O  O245  1  0.00245701  0.75464384  0.36857330  1
  O  O246  1  0.01332318  0.76732847  0.88164946  1
  O  O247  1  0.50710252  0.25552053  0.37511548  1
  O  O248  1  0.50711595  0.25883095  0.86813621  1
  O  O249  1  0.51027312  0.75140248  0.36518342  1
  O  O250  1  0.50491295  0.75279706  0.86408378  1
  O  O251  1  0.23837534  0.12999065  0.50266993  1
  O  O252  1  0.24746103  0.12973447  0.99572892  1
  O  O253  1  0.24227181  0.62698673  0.49484832  1
  O  O254  1  0.23695112  0.62092583  0.98731356  1
  O  O255  1  0.74216026  0.12686356  0.49143914  1
  O  O256  1  0.73917482  0.13769586  0.99596219  1
  O  O257  1  0.73570841  0.62076105  0.50574918  1
  O  O258  1  0.74094864  0.63646861  0.99555797  1
  O  O259  1  0.25264992  0.36674280  0.00815818  1
  O  O260  1  0.26748163  0.36765005  0.49703570  1
  O  O261  1  0.26137788  0.87603306  -0.00129065  1
  O  O262  1  0.25350306  0.86669375  0.50915149  1
  O  O263  1  0.74857591  0.35764451  -0.00148528  1
  O  O264  1  0.75764729  0.36939066  0.50283894  1
  O  O265  1  0.74986948  0.87285733  0.00469927  1
  O  O266  1  0.75523607  0.87684882  0.50546735  1
  O  O267  1  0.13364308  0.49349051  0.24712832  1
  O  O268  1  0.13747973  0.48344095  0.73993049  1
  O  O269  1  0.12658546  0.99247088  0.24641876  1
  O  O270  1  0.13553338  1.00682822  0.73980769  1
  O  O271  1  0.64452674  0.49977516  0.25417242  1
  O  O272  1  0.63989733  0.49471938  0.75475000  1
  O  O273  1  0.62595608  0.99451173  0.24410334  1
  O  O274  1  0.63018617  0.98728886  0.75612471  1
  O  O275  1  0.36483267  -0.00386407  0.26252368  1
  O  O276  1  0.36526385  0.01398858  0.74388347  1
  O  O277  1  0.37137886  0.50146815  0.26518724  1
  O  O278  1  0.38813007  0.50472122  0.76531489  1
  O  O279  1  0.87237843  0.00527536  0.25238751  1
  O  O280  1  0.86224734  -0.00549389  0.76087568  1
  O  O281  1  0.86659995  0.50455722  0.25546519  1
  O  O282  1  0.85866885  0.50808187  0.76588419  1
  O  O283  1  0.11974036  0.37353197  0.37181451  1
  O  O284  1  0.10991863  0.38149947  0.90079956  1
  O  O285  1  0.11573459  0.86530695  0.37178404  1
  O  O286  1  0.11942851  0.87146369  0.88193255  1
  O  O287  1  0.61618240  0.36315406  0.38504168  1
  O  O288  1  0.61820552  0.36683208  0.87393777  1
  O  O289  1  0.62054399  0.86904184  0.36520540  1
  O  O290  1  0.61280623  0.86979643  0.86945648  1
  O  O291  1  0.36652385  0.12125435  0.13709519  1
  O  O292  1  0.38219004  0.13069923  0.63110750  1
  O  O293  1  0.37447927  0.62061883  0.11823553  1
  O  O294  1  0.38856472  0.63172701  0.62535914  1
  O  O295  1  0.87260181  0.12987943  0.13669240  1
  O  O296  1  0.87162765  0.13045713  0.60659241  1
  O  O297  1  0.87631147  0.63152722  0.13420149  1
  O  O298  1  0.87491893  0.63979835  0.61809935  1
  O  O299  1  0.25270794  0.25777526  0.11621181  1
  O  O300  1  0.26679879  0.24182632  0.61265588  1
  O  O301  1  0.26112197  0.75804030  0.14517361  1
  O  O302  1  0.25848899  0.75901690  0.62275543  1
  O  O303  1  0.75903325  0.24610901  0.12200071  1
  O  O304  1  0.75743524  0.25285620  0.61358969  1
  O  O305  1  0.75094454  0.75940790  0.12276293  1
  O  O306  1  0.74622643  0.76532078  0.61749519  1
  O  O307  1  0.25356774  0.25381381  0.38927995  1
  O  O308  1  0.25115537  0.24362562  0.88809028  1
  O  O309  1  0.24639615  0.74058604  0.37971260  1
  O  O310  1  0.24493190  0.74695448  0.87459728  1
  O  O311  1  0.74285166  0.24340347  0.37806122  1
  O  O312  1  0.73863012  0.24942735  0.87864935  1
  O  O313  1  0.73496629  0.75506209  0.37709942  1
  O  O314  1  0.74212935  0.74905233  0.88295295  1
  O  O315  1  0.00957961  0.11296873  -0.00079553  1
  O  O316  1  0.01802935  0.12198587  0.49687536  1
  O  O317  1  0.01990640  0.63090848  -0.00734626  1
  O  O318  1  0.01611978  0.62422424  0.49788000  1
  O  O319  1  0.51166170  0.13141833  -0.00517174  1
  O  O320  1  0.50715438  0.12201933  0.50868471  1
  O  O321  1  0.51140528  0.61525809  -0.00996774  1
  O  O322  1  0.50808069  0.61606381  0.50800625  1
  O  O323  1  0.49415174  0.38048839  0.49521204  1
  O  O324  1  0.49884140  0.38228684  0.98766461  1
  O  O325  1  0.48921759  0.87479239  0.50155561  1
  O  O326  1  0.50447871  0.88108391  0.98686003  1
  O  O327  1  0.99482491  0.37471990  0.49536944  1
  O  O328  1  0.98303276  0.37922593  1.02360966  1
  O  O329  1  0.99238237  0.87704515  0.48533880  1
  O  O330  1  0.99386259  0.88585265  0.99614296  1
  O  O331  1  0.49603504  0.49309581  0.38095218  1
  O  O332  1  0.49936420  0.49217984  0.88114680  1
  O  O333  1  0.48741417  0.99371541  0.37911305  1
  O  O334  1  0.49932711  0.98905738  0.86847417  1
  O  O335  1  0.99046685  0.48566667  0.37074963  1
  O  O336  1  0.97167628  0.51212017  0.87970962  1
  O  O337  1  0.99339071  0.98875322  0.37285605  1
  O  O338  1  0.99262145  0.99625334  0.88608382  1
  O  O339  1  0.01204670  -0.00512985  0.11976479  1
  O  O340  1  0.00967360  -0.01103549  0.62232101  1
  O  O341  1  0.01575696  0.50784244  0.13739628  1
  O  O342  1  -0.00998804  0.50326087  0.63598704  1
  O  O343  1  0.51008725  -0.00041277  0.13064271  1
  O  O344  1  0.49575629  0.01228183  0.62461552  1
  O  O345  1  0.50283249  0.49832602  0.11177008  1
  O  O346  1  0.49841873  0.50793078  0.61665508  1
  O  O347  1  0.24692189  0.37931388  0.24586756  1
  O  O348  1  0.24717042  0.35908392  0.73608260  1
  O  O349  1  0.23757992  0.88399913  0.25660152  1
  O  O350  1  0.25944307  0.88576317  0.74479999  1
  O  O351  1  0.75367022  0.37761424  0.25681860  1
  O  O352  1  0.75401226  0.38203641  0.73888033  1
  O  O353  1  0.73624338  0.88109045  0.24457561  1
  O  O354  1  0.73928096  0.88128840  0.74364890  1
  O  O355  1  0.24395016  0.10889338  0.25264656  1
  O  O356  1  0.25514278  0.12414893  0.75704329  1
  O  O357  1  0.24287723  0.61550148  0.26866940  1
  O  O358  1  0.25439148  0.62918578  0.76568088  1
  O  O359  1  0.76315107  0.11609907  0.25902299  1
  O  O360  1  0.73802744  0.10836669  0.75069808  1
  O  O361  1  0.75913066  0.62452495  0.25084298  1
  O  O362  1  0.74117582  0.61905138  0.75924671  1
  O  O363  1  0.37621449  0.11255647  0.37561557  1
  O  O364  1  0.36301827  0.12886175  0.86599942  1
  O  O365  1  0.36640270  0.61512855  0.38769716  1
  O  O366  1  0.36760234  0.61974397  0.87642188  1
  O  O367  1  0.87116351  0.11834923  0.37099608  1
  O  O368  1  0.87009474  0.10952994  0.88401398  1
  O  O369  1  0.87946974  0.61237373  0.36826097  1
  O  O370  1  0.85860465  0.62145581  0.88204944  1
  O  O371  1  0.13288161  0.38223898  0.13309913  1
  O  O372  1  0.13835339  0.38523707  0.60506806  1
  O  O373  1  0.12264683  0.87924192  0.13481839  1
  O  O374  1  0.13038831  0.86330747  0.63587195  1
  O  O375  1  0.62728265  0.37527690  0.12215528  1
  O  O376  1  0.64003386  0.36416403  0.62218291  1
  O  O377  1  0.62611238  0.88276694  0.13045231  1
  O  O378  1  0.62848619  0.87425652  0.63399528  1
  O  O379  1  0.12070404  0.25359210  0.25137231  1
  O  O380  1  0.10410955  0.26024868  0.72975414  1
  O  O381  1  0.11484327  0.74959454  0.25598697  1
  O  O382  1  0.12777697  0.75593545  0.76023167  1
  O  O383  1  0.61440156  0.25036386  0.26272938  1
  O  O384  1  0.62054523  0.25133804  0.75743861  1
  O  O385  1  0.61612871  0.75611034  0.25566693  1
  O  O386  1  0.61872536  0.76171931  0.75561214  1
  O  O387  1  0.38938786  0.24753787  0.25453783  1
  O  O388  1  0.38062151  0.23998321  0.74351216  1
  O  O389  1  0.39357220  0.75041886  0.25773016  1
  O  O390  1  0.38552673  0.74779441  0.74505330  1
  O  O391  1  0.88262746  0.24065348  0.24731632  1
  O  O392  1  0.86214748  0.22956630  0.72706918  1
  O  O393  1  0.87856062  0.74264028  0.24748007  1
  O  O394  1  0.86463990  0.74071792  0.74793045  1
  O  O395  1  0.38662675  0.49291153  0.49368084  1
  O  O396  1  0.38514403  0.49628089  0.98755485  1
  O  O397  1  0.37257778  0.99157932  0.49564903  1
  O  O398  1  0.37561597  0.98246270  0.99737906  1
  O  O399  1  0.87866039  0.49020360  0.49203879  1
  O  O400  1  0.85635140  0.50130113  0.99013083  1
  O  O401  1  0.87789114  0.98763927  0.49138328  1
  O  O402  1  0.88042265  0.99698056  1.00054027  1
  O  O403  1  0.11864506  0.00367044  0.01049230  1
  O  O404  1  0.12544190  0.01063427  0.49540868  1
  O  O405  1  0.12470727  0.50852824  0.00939384  1
  O  O406  1  0.12092452  0.51411202  0.49624018  1
  O  O407  1  0.62663876  0.01402909  0.00503995  1
  O  O408  1  0.62374050  0.01177673  0.49303708  1
  O  O409  1  0.61904668  0.50893534  0.00003374  1
  O  O410  1  0.61417009  0.50525975  0.49290112  1
  O  O411  1  0.36177166  0.37451383  0.12426325  1
  O  O412  1  0.38721350  0.36268659  0.61579247  1
  O  O413  1  0.37353339  0.87625294  0.11256381  1
  O  O414  1  0.36837895  0.87074268  0.61643530  1
  O  O415  1  0.87117375  0.36159358  0.13606411  1
  O  O416  1  0.86415317  0.36687805  0.61229703  1
  O  O417  1  0.86626930  0.87240829  0.12261447  1
  O  O418  1  0.86668579  0.87121290  0.61373825  1
  O  O419  1  0.12706604  0.12765229  0.38607643  1
  O  O420  1  0.14260814  0.11501517  0.89390370  1
  O  O421  1  0.13182042  0.62746586  0.38403841  1
  O  O422  1  0.13374904  0.64341194  0.88397345  1
  O  O423  1  0.63076160  0.13050884  0.37987907  1
  O  O424  1  0.62637794  0.13342301  0.88328879  1
  O  O425  1  0.62182375  0.63412127  0.38746550  1
  O  O426  1  0.63417486  0.63461277  0.88412985  1
