# generated using pymatgen
data_V85Zn86O256
_symmetry_space_group_name_H-M   'P 1'
_cell_length_a   16.95478819
_cell_length_b   16.97771835
_cell_length_c   16.96809105
_cell_angle_alpha   90.01577300
_cell_angle_beta   89.97760318
_cell_angle_gamma   89.97630395
_symmetry_Int_Tables_number   1
_chemical_formula_structural   V85Zn86O256
_chemical_formula_sum   'V85 Zn86 O256'
_cell_volume   4884.32543400
_cell_formula_units_Z   1
loop_
 _symmetry_equiv_pos_site_id
 _symmetry_equiv_pos_as_xyz
  1  'x, y, z'
loop_
 _atom_site_type_symbol
 _atom_site_label
 _atom_site_symmetry_multiplicity
 _atom_site_fract_x
 _atom_site_fract_y
 _atom_site_fract_z
 _atom_site_occupancy
  V  V0  1  0.24554135  0.37331143  0.11987829  1
  V  V1  1  0.49979264  0.75069134  0.25033870  1
  V  V2  1  0.62474617  0.87495921  0.25046145  1
  V  V3  1  0.12786108  0.49925798  0.12548322  1
  V  V4  1  0.49606668  0.37955654  0.36923153  1
  V  V5  1  0.00172362  0.37583514  0.87352357  1
  V  V6  1  0.12306965  0.88712075  0.75067712  1
  V  V7  1  0.00342452  0.74648145  0.25000117  1
  V  V8  1  0.25483823  0.62455475  0.37632074  1
  V  V9  1  0.87403372  0.37831075  -0.00030134  1
  V  V10  1  0.50696050  0.25489199  0.24562795  1
  V  V11  1  0.49494835  0.62423297  0.12394896  1
  V  V12  1  0.26026289  0.49869400  0.25497629  1
  V  V13  1  0.12913294  0.24271033  0.88520174  1
  V  V14  1  0.12631590  0.12884147  0.49145514  1
  V  V15  1  0.80685620  0.70345646  0.55937166  1
  V  V16  1  0.37419504  0.74754277  0.61920066  1
  V  V17  1  0.87417557  0.87259382  -0.00358190  1
  V  V18  1  0.61913902  0.49922850  0.62226542  1
  V  V19  1  0.62336730  0.62160115  -0.00223953  1
  V  V20  1  0.87514549  0.00049583  0.87725750  1
  V  V21  1  0.61769413  0.87505806  0.75232268  1
  V  V22  1  0.00276519  0.24370838  0.75093621  1
  V  V23  1  0.12820045  0.74656551  0.87143896  1
  V  V24  1  0.00726320  0.50181553  0.51418818  1
  V  V25  1  0.62640804  0.25422089  0.36836989  1
  V  V26  1  0.37152250  0.25152805  0.12140622  1
  V  V27  1  0.49031046  -0.00045988  0.49982487  1
  V  V28  1  0.12609070  0.62696920  0.51042426  1
  V  V29  1  0.37366272  0.25027141  0.63418241  1
  V  V30  1  0.74746888  0.37080313  0.62460145  1
  V  V31  1  -0.00080042  0.87653092  0.37429153  1
  V  V32  1  0.61700437  0.75304073  0.87404189  1
  V  V33  1  0.86530803  0.61886144  0.25697741  1
  V  V34  1  0.37021648  0.37289270  -0.00439214  1
  V  V35  1  0.87900840  0.24933329  0.12932647  1
  V  V36  1  0.87293409  0.74535238  0.12351265  1
  V  V37  1  0.62070380  0.62954280  0.49731732  1
  V  V38  1  0.49468503  0.87388577  0.37919338  1
  V  V39  1  0.37143996  0.76479075  0.11874848  1
  V  V40  1  0.25170023  0.25238073  0.48809447  1
  V  V41  1  0.74867399  0.74879906  -0.00233053  1
  V  V42  1  0.61508559  0.37290179  0.74707509  1
  V  V43  1  0.62099656  0.00092675  0.62291475  1
  V  V44  1  0.13351764  0.62694340  -0.00168201  1
  V  V45  1  0.13309797  0.87884086  0.23802204  1
  V  V46  1  0.36770273  -0.00152042  0.37078191  1
  V  V47  1  0.36291137  0.50948615  0.86709440  1
  V  V48  1  0.00263293  0.37666898  0.37499840  1
  V  V49  1  0.62530463  0.24865347  0.87044109  1
  V  V50  1  0.86996297  0.88220449  0.49665667  1
  V  V51  1  0.25577873  0.87848672  0.62113891  1
  V  V52  1  0.49653724  0.37337149  0.87171293  1
  V  V53  1  0.88020081  0.50467817  0.86967109  1
  V  V54  1  0.63617950  0.12612078  -0.00386106  1
  V  V55  1  0.62243243  0.12481854  0.49610345  1
  V  V56  1  0.74975074  0.24867530  0.49824340  1
  V  V57  1  0.75429003  -0.00122735  0.25456933  1
  V  V58  1  0.87323735  0.24887205  0.62486172  1
  V  V59  1  0.50504242  0.12741734  0.12095324  1
  V  V60  1  0.48614514  0.74728644  0.75329815  1
  V  V61  1  0.75964472  0.12284335  0.37206402  1
  V  V62  1  0.74828512  0.87450592  0.12545963  1
  V  V63  1  0.49562212  0.13005891  0.63345627  1
  V  V64  1  -0.00102782  0.00174086  0.49407641  1
  V  V65  1  0.75107995  0.25223221  -0.00313596  1
  V  V66  1  0.49164418  0.50089336  0.49485728  1
  V  V67  1  0.25996614  0.13065854  0.89296162  1
  V  V68  1  0.25324272  0.01480488  0.75044443  1
  V  V69  1  0.75079923  0.62514439  0.87119064  1
  V  V70  1  0.49967286  -0.00800282  -0.00479096  1
  V  V71  1  -0.00071481  0.12413098  0.62201620  1
  V  V72  1  0.12923532  0.37001741  0.25613066  1
  V  V73  1  0.12971596  0.37806464  0.74256371  1
  V  V74  1  0.00093651  0.87641580  0.87604215  1
  V  V75  1  0.75214640  0.87727210  0.62215134  1
  V  V76  1  0.86926920  0.12623086  0.75403357  1
  V  V77  1  0.74750656  0.00254203  0.75493987  1
  V  V78  1  0.74900063  0.50071869  0.74731961  1
  V  V79  1  0.63581616  0.74966971  0.37966386  1
  V  V80  1  0.00071619  0.62097583  0.12534162  1
  V  V81  1  -0.00715432  0.74868590  0.73556706  1
  V  V82  1  0.38394471  -0.00117933  0.86632198  1
  V  V83  1  0.00509734  0.24461520  0.25101845  1
  V  V84  1  0.62777020  0.49563141  0.13110552  1
  Zn  Zn85  1  0.25404993  0.52826238  0.73408472  1
  Zn  Zn86  1  0.88957543  0.10937727  0.24378909  1
  Zn  Zn87  1  0.12709901  0.00252250  0.62360147  1
  Zn  Zn88  1  0.62993398  0.00194426  0.12249179  1
  Zn  Zn89  1  0.73762090  0.49270882  0.27381789  1
  Zn  Zn90  1  0.37290973  0.37814210  0.49642824  1
  Zn  Zn91  1  0.87343325  0.49959288  0.37836180  1
  Zn  Zn92  1  0.05466895  0.04186023  0.09147220  1
  Zn  Zn93  1  0.12948076  0.74970974  0.37386974  1
  Zn  Zn94  1  0.87823192  0.62758141  0.73311446  1
  Zn  Zn95  1  0.49689978  0.50042171  -0.00413115  1
  Zn  Zn96  1  0.49269872  0.62162924  0.62999280  1
  Zn  Zn97  1  0.24964970  0.12407945  0.36847063  1
  Zn  Zn98  1  0.37646956  0.62347559  0.25333719  1
  Zn  Zn99  1  0.24486043  0.00422617  0.22330577  1
  Zn  Zn100  1  0.37531500  0.12330454  0.24831588  1
  Zn  Zn101  1  0.25285658  0.75353670  0.00241213  1
  Zn  Zn102  1  0.74831242  0.37721208  0.13494093  1
  Zn  Zn103  1  0.87860811  0.37391143  0.49897490  1
  Zn  Zn104  1  0.00254424  0.50224732  -0.00395742  1
  Zn  Zn105  1  0.25131274  0.75602034  0.49515556  1
  Zn  Zn106  1  0.24765986  0.37990403  0.62001114  1
  Zn  Zn107  1  0.18957750  0.18294460  0.18814326  1
  Zn  Zn108  1  0.18472658  0.19248853  0.68127811  1
  Zn  Zn109  1  0.19070669  0.68807291  0.18782989  1
  Zn  Zn110  1  0.18834108  0.69694664  0.69239674  1
  Zn  Zn111  1  0.69375716  0.18761038  0.18351222  1
  Zn  Zn112  1  0.68309227  0.18581771  0.68694441  1
  Zn  Zn113  1  0.68500079  0.68524392  0.18803461  1
  Zn  Zn114  1  0.67697686  0.68375562  0.69126053  1
  Zn  Zn115  1  0.31884843  0.31054471  0.30865521  1
  Zn  Zn116  1  0.30985702  0.31073871  0.81216999  1
  Zn  Zn117  1  0.31438720  0.80999462  0.30880553  1
  Zn  Zn118  1  0.27380055  0.85711423  0.86102165  1
  Zn  Zn119  1  0.81543675  0.31820295  0.31088614  1
  Zn  Zn120  1  0.80882500  0.31490536  0.81193918  1
  Zn  Zn121  1  0.81655785  0.81089723  0.31284245  1
  Zn  Zn122  1  0.81009809  0.81178051  0.80768922  1
  Zn  Zn123  1  0.18739311  0.44115417  0.43733577  1
  Zn  Zn124  1  0.18425127  0.43484881  0.93642659  1
  Zn  Zn125  1  0.18235728  0.93592180  0.43776586  1
  Zn  Zn126  1  0.20281054  0.93961170  1.03315086  1
  Zn  Zn127  1  0.68476991  0.43604055  0.43686067  1
  Zn  Zn128  1  0.68830915  0.43851101  0.93532934  1
  Zn  Zn129  1  0.68350541  0.93752733  0.43705814  1
  Zn  Zn130  1  0.68657774  0.93733159  0.93611761  1
  Zn  Zn131  1  0.32284203  0.06329211  0.06105380  1
  Zn  Zn132  1  0.31256920  0.06700968  0.56243944  1
  Zn  Zn133  1  0.31314006  0.55937285  0.05849617  1
  Zn  Zn134  1  0.31008536  0.56482448  0.56146636  1
  Zn  Zn135  1  0.85260608  0.04585862  0.08170840  1
  Zn  Zn136  1  0.81154745  0.06132644  0.56234773  1
  Zn  Zn137  1  0.81259781  0.56189100  0.06118779  1
  Zn  Zn138  1  0.80408441  0.54158066  0.54627539  1
  Zn  Zn139  1  0.44050679  0.43644485  0.18448166  1
  Zn  Zn140  1  0.42856045  0.43822114  0.68391588  1
  Zn  Zn141  1  0.43915863  0.94162372  0.18637865  1
  Zn  Zn142  1  0.43377631  0.93738930  0.69033818  1
  Zn  Zn143  1  0.93952869  0.43485150  0.18752838  1
  Zn  Zn144  1  0.93783204  0.43443516  0.68871620  1
  Zn  Zn145  1  0.93373740  0.92862350  0.19313768  1
  Zn  Zn146  1  0.93665661  0.93818654  0.68510315  1
  Zn  Zn147  1  0.06585519  0.05853791  0.31130807  1
  Zn  Zn148  1  0.07155151  0.05514019  0.92667314  1
  Zn  Zn149  1  0.06995303  0.55913691  0.31625970  1
  Zn  Zn150  1  0.08557416  0.58020483  0.79232875  1
  Zn  Zn151  1  0.56407203  0.06243754  0.31039380  1
  Zn  Zn152  1  0.56477146  0.06716362  0.81222732  1
  Zn  Zn153  1  0.56175877  0.56669490  0.31370251  1
  Zn  Zn154  1  0.55648613  0.56139682  0.81143519  1
  Zn  Zn155  1  0.43535247  0.18615841  0.43665228  1
  Zn  Zn156  1  0.44093913  0.18921900  0.93616012  1
  Zn  Zn157  1  0.43597835  0.68892426  0.43830643  1
  Zn  Zn158  1  0.43582451  0.68720826  0.93685308  1
  Zn  Zn159  1  0.93925245  0.19284505  0.43202486  1
  Zn  Zn160  1  0.93347805  0.18741509  0.93476053  1
  Zn  Zn161  1  0.94678210  0.68484470  0.43551116  1
  Zn  Zn162  1  0.94402261  0.68791026  0.93309817  1
  Zn  Zn163  1  0.06257432  0.20405167  0.06027048  1
  Zn  Zn164  1  0.06405824  0.30947855  0.55893906  1
  Zn  Zn165  1  0.06056481  0.81362473  0.05834188  1
  Zn  Zn166  1  0.06798726  0.81444417  0.56211053  1
  Zn  Zn167  1  0.56034514  0.31537840  0.05646378  1
  Zn  Zn168  1  0.55772439  0.31161736  0.55771626  1
  Zn  Zn169  1  0.56109720  0.81152859  0.06334499  1
  Zn  Zn170  1  0.55908851  0.81383260  0.56332707  1
  O  O171  1  0.11626559  0.13013862  0.12597085  1
  O  O172  1  0.11563867  0.12527493  0.61225888  1
  O  O173  1  0.11831149  0.62208173  0.11885710  1
  O  O174  1  0.13101829  0.63403026  0.60874483  1
  O  O175  1  0.62235220  0.12368539  0.11464491  1
  O  O176  1  0.61891911  0.11990809  0.61483339  1
  O  O177  1  0.61575463  0.62033572  0.11617275  1
  O  O178  1  0.62129775  0.62011057  0.61274502  1
  O  O179  1  0.39187593  0.36936939  0.37649082  1
  O  O180  1  0.37986422  0.37613211  0.87850002  1
  O  O181  1  0.38828927  0.87998797  0.36869639  1
  O  O182  1  0.38333631  0.90011816  0.86556715  1
  O  O183  1  0.88845689  0.37674270  0.37948636  1
  O  O184  1  0.87798301  0.38646693  0.87538468  1
  O  O185  1  0.88818171  0.86817000  0.38355020  1
  O  O186  1  0.87615777  0.88130953  0.87649988  1
  O  O187  1  0.26405916  -0.00459974  0.38161876  1
  O  O188  1  0.26837921  0.01796916  0.86800181  1
  O  O189  1  0.24865043  0.50808412  0.36540157  1
  O  O190  1  0.26206146  0.49364292  0.87375703  1
  O  O191  1  0.73802796  0.01250463  0.36834773  1
  O  O192  1  0.75449425  -0.00514597  0.86014894  1
  O  O193  1  0.75745173  0.50232937  0.38563419  1
  O  O194  1  0.75697061  0.50553857  0.86705590  1
  O  O195  1  0.24709165  0.49211147  0.13001216  1
  O  O196  1  0.26245811  0.49158251  0.62879756  1
  O  O197  1  0.26311307  0.98841055  0.11368785  1
  O  O198  1  0.25358943  0.99528851  0.63254595  1
  O  O199  1  0.73361366  0.50203418  0.11987733  1
  O  O200  1  0.74015698  0.48996577  0.62667834  1
  O  O201  1  0.75369592  0.99034201  0.13345089  1
  O  O202  1  0.74226664  0.99419527  0.63235477  1
  O  O203  1  0.01069065  0.37074079  0.25555412  1
  O  O204  1  0.00042387  0.36159308  0.75702156  1
  O  O205  1  0.00387902  0.86563312  0.25666014  1
  O  O206  1  0.00280638  0.87339796  0.75457683  1
  O  O207  1  0.50123991  0.36662966  0.25414774  1
  O  O208  1  0.50997544  0.37900602  0.75262227  1
  O  O209  1  0.50841911  0.87139325  0.25523838  1
  O  O210  1  0.51324101  0.86881415  0.74351322  1
  O  O211  1  0.50345299  0.12973888  0.23369728  1
  O  O212  1  0.50998161  0.12576712  0.73183718  1
  O  O213  1  0.49838042  0.63222632  0.24187265  1
  O  O214  1  0.50825007  0.64080862  0.74551363  1
  O  O215  1  1.00057418  0.14026485  0.26439214  1
  O  O216  1  0.98837611  0.13702526  0.74265109  1
  O  O217  1  0.99885012  0.62966199  0.24163720  1
  O  O218  1  0.99728379  0.64331291  0.74556002  1
  O  O219  1  0.38339045  0.26425858  0.00791690  1
  O  O220  1  0.36255443  0.24975763  0.50277148  1
  O  O221  1  0.37690387  0.74480784  0.01500237  1
  O  O222  1  0.37439742  0.75342583  0.51540937  1
  O  O223  1  0.86779032  0.25822877  0.00300151  1
  O  O224  1  0.86777907  0.25023623  0.50624631  1
  O  O225  1  0.86641619  0.75058680  0.00251898  1
  O  O226  1  0.87350629  0.75569039  0.49888831  1
  O  O227  1  0.14042224  0.24270366  0.50287886  1
  O  O228  1  0.12227125  0.26325089  0.98229660  1
  O  O229  1  0.12553359  0.74208509  0.49424425  1
  O  O230  1  0.12389742  0.74323004  0.99213273  1
  O  O231  1  0.62984800  0.24288216  0.49161871  1
  O  O232  1  0.63142935  0.24831244  0.99172644  1
  O  O233  1  0.61771620  0.74249381  0.49276841  1
  O  O234  1  0.62672789  0.74112225  0.99277498  1
  O  O235  1  0.49814050  0.24751824  0.12832543  1
  O  O236  1  0.48663083  0.24168235  0.61543034  1
  O  O237  1  0.49523676  0.74204610  0.12919969  1
  O  O238  1  0.48786868  0.75206055  0.63165211  1
  O  O239  1  0.98962479  0.25567497  0.13648320  1
  O  O240  1  0.99213381  0.24479688  0.62968335  1
  O  O241  1  0.99394895  0.74320859  0.13461741  1
  O  O242  1  0.99725017  0.76313409  0.63735329  1
  O  O243  1  0.00030782  0.26572290  0.36689711  1
  O  O244  1  0.00485631  0.25496663  0.86574621  1
  O  O245  1  0.00233225  0.75482044  0.36207157  1
  O  O246  1  0.00004505  0.76235109  0.86427622  1
  O  O247  1  0.50684801  0.25313893  0.36448868  1
  O  O248  1  0.51001291  0.26440299  0.87714710  1
  O  O249  1  0.50348922  0.75790679  0.36992852  1
  O  O250  1  0.50921739  0.74681192  0.86912496  1
  O  O251  1  0.24322662  0.13468332  0.49683653  1
  O  O252  1  0.25848420  0.13097513  0.99133029  1
  O  O253  1  0.24371396  0.62868488  0.49182234  1
  O  O254  1  0.23694870  0.62893865  1.00325673  1
  O  O255  1  0.74385426  0.12806997  0.49169109  1
  O  O256  1  0.73846033  0.13612593  1.00119531  1
  O  O257  1  0.74581471  0.63854970  0.50679491  1
  O  O258  1  0.74268992  0.62993143  0.99275198  1
  O  O259  1  0.25658643  0.37706083  0.00881998  1
  O  O260  1  0.25037872  0.36407505  0.49744112  1
  O  O261  1  0.25047568  0.86205491  -0.02825925  1
  O  O262  1  0.24233146  0.87494053  0.51739134  1
  O  O263  1  0.76149469  0.37267394  -0.00152099  1
  O  O264  1  0.74844679  0.36590096  0.50974543  1
  O  O265  1  0.75324035  0.86738044  0.00381461  1
  O  O266  1  0.75761752  0.88046613  0.50583667  1
  O  O267  1  0.13604556  0.49217252  0.24248139  1
  O  O268  1  0.11180282  0.47585445  0.74862334  1
  O  O269  1  0.12484645  0.98433202  0.24821697  1
  O  O270  1  0.12926672  0.99178103  0.74583399  1
  O  O271  1  0.62608723  0.51075480  0.23417138  1
  O  O272  1  0.62818671  0.49329570  0.74265797  1
  O  O273  1  0.63262924  0.99161203  0.24626220  1
  O  O274  1  0.62982784  0.99411942  0.74589674  1
  O  O275  1  0.37491641  0.00116867  0.25841696  1
  O  O276  1  0.37186687  0.00848415  0.75815424  1
  O  O277  1  0.36380018  0.49991253  0.24377820  1
  O  O278  1  0.36941855  0.49850533  0.76169497  1
  O  O279  1  0.85789580  -0.00530813  0.26034163  1
  O  O280  1  0.86686898  0.00590482  0.75563566  1
  O  O281  1  0.87833061  0.51386973  0.24944336  1
  O  O282  1  0.86991316  0.50546635  0.75288324  1
  O  O283  1  0.12151184  0.38028858  0.36253278  1
  O  O284  1  0.11660767  0.36764765  0.86540053  1
  O  O285  1  0.11238994  0.87236704  0.36784087  1
  O  O286  1  0.11145766  0.86606437  0.86469654  1
  O  O287  1  0.61626741  0.35906759  0.37969575  1
  O  O288  1  0.61783013  0.37175221  0.86714543  1
  O  O289  1  0.61456568  0.86916131  0.37018410  1
  O  O290  1  0.63039752  0.86454148  0.86471574  1
  O  O291  1  0.38782335  0.13743530  0.12199050  1
  O  O292  1  0.38284945  0.13850498  0.62001095  1
  O  O293  1  0.38825474  0.62297563  0.12350672  1
  O  O294  1  0.37351200  0.64301209  0.62633784  1
  O  O295  1  0.85746465  0.14763699  0.13311956  1
  O  O296  1  0.87814071  0.12843989  0.63344493  1
  O  O297  1  0.88150227  0.62694251  0.13293962  1
  O  O298  1  0.85897040  0.63467449  0.61264017  1
  O  O299  1  0.26556993  0.25892938  0.13276443  1
  O  O300  1  0.26136261  0.25193035  0.61437023  1
  O  O301  1  0.26754028  0.74855947  0.12568860  1
  O  O302  1  0.26162083  0.75968907  0.62975386  1
  O  O303  1  0.75132017  0.25986718  0.11127657  1
  O  O304  1  0.75311763  0.25207828  0.61985048  1
  O  O305  1  0.75256438  0.75308622  0.11899511  1
  O  O306  1  0.74718811  0.75748328  0.62582612  1
  O  O307  1  0.25668713  0.24712385  0.38473679  1
  O  O308  1  0.24368661  0.23724131  0.86962208  1
  O  O309  1  0.24949477  0.74337450  0.37564855  1
  O  O310  1  0.22921656  0.74605124  0.86533724  1
  O  O311  1  0.74301632  0.24393684  0.37726118  1
  O  O312  1  0.74132800  0.25866435  0.88759180  1
  O  O313  1  0.73490971  0.75721850  0.37257190  1
  O  O314  1  0.73898542  0.74342964  0.87618487  1
  O  O315  1  0.00588200  0.12669629  -0.00690668  1
  O  O316  1  0.00381820  0.12019452  0.49907602  1
  O  O317  1  0.00008613  0.62569289  0.01639552  1
  O  O318  1  0.00997470  0.61113901  0.49569750  1
  O  O319  1  0.51263275  0.12537818  0.00771239  1
  O  O320  1  0.50611360  0.11777024  0.50359415  1
  O  O321  1  0.50813476  0.62231357  0.00530341  1
  O  O322  1  0.50580944  0.61865659  0.50145011  1
  O  O323  1  0.50042390  0.38458183  0.48907650  1
  O  O324  1  0.49180517  0.38021786  0.98898830  1
  O  O325  1  0.50553266  0.88651159  0.49038619  1
  O  O326  1  0.51134226  0.89382809  0.99968876  1
  O  O327  1  1.00616206  0.38399596  0.49291511  1
  O  O328  1  0.98571290  0.37646811  0.98108641  1
  O  O329  1  0.99470481  0.88227017  0.49428930  1
  O  O330  1  0.98361836  0.86400338  0.98898692  1
  O  O331  1  0.50962353  0.49009306  0.38067575  1
  O  O332  1  0.49041695  0.48801901  0.87254306  1
  O  O333  1  0.49444755  0.99355300  0.38051782  1
  O  O334  1  0.49396312  1.01187202  0.88188946  1
  O  O335  1  1.00036354  0.48879852  0.37782345  1
  O  O336  1  0.99214585  0.49224281  0.87097632  1
  O  O337  1  1.00089355  0.99225737  0.38552592  1
  O  O338  1  0.98748894  0.98612009  0.87059752  1
  O  O339  1  -0.04632343  0.01992706  0.13506461  1
  O  O340  1  -0.00227425  0.00694639  0.61200209  1
  O  O341  1  0.00826891  0.50641226  0.12392361  1
  O  O342  1  0.00016850  0.49444422  0.61255642  1
  O  O343  1  0.50269011  0.00960335  0.11117039  1
  O  O344  1  0.50168731  0.00559011  0.61742619  1
  O  O345  1  0.51028648  0.50717560  0.12126246  1
  O  O346  1  0.50285715  0.50074298  0.61654127  1
  O  O347  1  0.24762495  0.37963010  0.24627978  1
  O  O348  1  0.23373083  0.37088086  0.74964981  1
  O  O349  1  0.23423497  0.87530570  0.25402820  1
  O  O350  1  0.24023415  0.89176436  0.75248454  1
  O  O351  1  0.75175394  0.38301071  0.24748066  1
  O  O352  1  0.73959982  0.38136481  0.74307290  1
  O  O353  1  0.74396242  0.87837789  0.24749715  1
  O  O354  1  0.74103482  0.88125022  0.74067885  1
  O  O355  1  0.25591320  0.11774099  0.25277234  1
  O  O356  1  0.24192972  0.11511683  0.74555554  1
  O  O357  1  0.25140931  0.61528138  0.25584490  1
  O  O358  1  0.19381479  0.61506483  0.76615859  1
  O  O359  1  0.74852720  0.11548252  0.25675814  1
  O  O360  1  0.75645615  0.11437745  0.74249991  1
  O  O361  1  0.76329714  0.62132016  0.24571874  1
  O  O362  1  0.75217914  0.61921027  0.75378239  1
  O  O363  1  0.37645640  0.11300682  0.37047692  1
  O  O364  1  0.36654654  0.12824544  0.87442147  1
  O  O365  1  0.36174507  0.63056993  0.37274582  1
  O  O366  1  0.37687426  0.60729612  0.87990647  1
  O  O367  1  0.86178785  0.13055551  0.37001378  1
  O  O368  1  0.87541571  0.11677724  0.86114517  1
  O  O369  1  0.88163217  0.62599189  0.35847930  1
  O  O370  1  0.87236437  0.61386153  0.87494570  1
  O  O371  1  0.14032973  0.37931842  0.13478982  1
  O  O372  1  0.12590630  0.36243161  0.63933756  1
  O  O373  1  0.11972124  0.87030252  0.13774366  1
  O  O374  1  0.13506088  0.87759297  0.63513536  1
  O  O375  1  0.62315870  0.39379163  0.11561469  1
  O  O376  1  0.62633381  0.37560818  0.63102079  1
  O  O377  1  0.63212393  0.87565896  0.13105244  1
  O  O378  1  0.63352726  0.88085898  0.62920481  1
  O  O379  1  0.11905557  0.26151479  0.24576089  1
  O  O380  1  0.11569799  0.25372878  0.75701255  1
  O  O381  1  0.11753208  0.75796799  0.24941357  1
  O  O382  1  0.10971633  0.76418305  0.75365789  1
  O  O383  1  0.61589492  0.24425385  0.25411627  1
  O  O384  1  0.63275999  0.26040288  0.75947735  1
  O  O385  1  0.61850917  0.75378903  0.25685184  1
  O  O386  1  0.61814144  0.75813981  0.75703779  1
  O  O387  1  0.39034150  0.24798136  0.23940262  1
  O  O388  1  0.37233139  0.25425645  0.73299573  1
  O  O389  1  0.38336906  0.74757700  0.23673737  1
  O  O390  1  0.38743229  0.75441075  0.74531912  1
  O  O391  1  0.88742493  0.25494678  0.24264937  1
  O  O392  1  0.87636483  0.24276550  0.74747439  1
  O  O393  1  0.88161212  0.73836380  0.24424043  1
  O  O394  1  0.88662379  0.74899514  0.75044828  1
  O  O395  1  0.38870111  0.50123773  0.49933733  1
  O  O396  1  0.37540419  0.48810140  0.98984140  1
  O  O397  1  0.38612007  1.00467342  0.49365155  1
  O  O398  1  0.39457655  1.00895472  0.98495098  1
  O  O399  1  0.89360336  0.49527235  0.49796567  1
  O  O400  1  0.87728959  0.49450118  0.99095193  1
  O  O401  1  0.88086646  0.98929137  0.50053714  1
  O  O402  1  0.86179127  0.99125683  0.98208001  1
  O  O403  1  0.10366320  -0.01722982  0.00744256  1
  O  O404  1  0.11559815  0.00683823  0.50347975  1
  O  O405  1  0.12224594  0.50750309  0.00531976  1
  O  O406  1  0.11499013  0.50837238  0.49837555  1
  O  O407  1  0.61870049  0.01101308  -0.00464949  1
  O  O408  1  0.61508152  0.00640089  0.50422054  1
  O  O409  1  0.62382858  0.51171543  0.00248401  1
  O  O410  1  0.61640882  0.50848628  0.50522130  1
  O  O411  1  0.36877533  0.37170550  0.11595687  1
  O  O412  1  0.37723555  0.36030068  0.61633321  1
  O  O413  1  0.38581860  0.86217201  0.12298139  1
  O  O414  1  0.36518122  0.86502561  0.63331310  1
  O  O415  1  0.87481191  0.37000557  0.11357916  1
  O  O416  1  0.86599078  0.36657676  0.62501746  1
  O  O417  1  0.86731670  0.86286792  0.11820380  1
  O  O418  1  0.85976523  0.88032619  0.61687204  1
  O  O419  1  0.12857711  0.11847063  0.38781482  1
  O  O420  1  0.14403775  0.13093550  0.87701351  1
  O  O421  1  0.13752477  0.62741090  0.38032657  1
  O  O422  1  0.09805328  0.63765799  0.89354310  1
  O  O423  1  0.62840146  0.13587501  0.37857047  1
  O  O424  1  0.62210930  0.14096123  0.87965747  1
  O  O425  1  0.62129076  0.63435769  0.38791501  1
  O  O426  1  0.62817719  0.62972777  0.88108639  1
