# generated using pymatgen
data_V85Zn86O256
_symmetry_space_group_name_H-M   'P 1'
_cell_length_a   16.93192793
_cell_length_b   16.93133264
_cell_length_c   16.93497754
_cell_angle_alpha   89.93791953
_cell_angle_beta   90.00729745
_cell_angle_gamma   89.97524838
_symmetry_Int_Tables_number   1
_chemical_formula_structural   V85Zn86O256
_chemical_formula_sum   'V85 Zn86 O256'
_cell_volume   4854.91778166
_cell_formula_units_Z   1
loop_
 _symmetry_equiv_pos_site_id
 _symmetry_equiv_pos_as_xyz
  1  'x, y, z'
loop_
 _atom_site_type_symbol
 _atom_site_label
 _atom_site_symmetry_multiplicity
 _atom_site_fract_x
 _atom_site_fract_y
 _atom_site_fract_z
 _atom_site_occupancy
  V  V0  1  0.37063357  0.49931665  0.87046959  1
  V  V1  1  0.74937338  0.50137489  0.74866552  1
  V  V2  1  0.75254198  0.10889431  0.87132776  1
  V  V3  1  0.87222997  0.24704195  0.62397159  1
  V  V4  1  0.25702370  0.12008780  0.88461484  1
  V  V5  1  0.50102572  0.24817772  0.74908253  1
  V  V6  1  0.62564662  0.37536730  0.74929357  1
  V  V7  1  0.86899235  0.88513864  -0.00508165  1
  V  V8  1  0.00244427  0.00069571  -0.00985556  1
  V  V9  1  0.87186187  0.75578010  0.62171284  1
  V  V10  1  0.87497873  0.49863970  0.86987718  1
  V  V11  1  0.23773817  0.62843835  0.37595444  1
  V  V12  1  0.51034687  0.25440054  0.25282741  1
  V  V13  1  0.00294141  0.24966317  0.24970670  1
  V  V14  1  0.00245789  0.37287321  0.87278493  1
  V  V15  1  0.74786794  0.25013345  0.48230739  1
  V  V16  1  0.50068260  0.75103024  0.75190275  1
  V  V17  1  0.50187534  0.00052460  0.49831300  1
  V  V18  1  -0.00968583  0.75159118  0.24015224  1
  V  V19  1  0.24814405  0.74783314  0.49430754  1
  V  V20  1  0.75010375  0.37532359  0.62308229  1
  V  V21  1  0.62556516  0.24872670  0.87422173  1
  V  V22  1  0.80894182  0.70305093  0.06031743  1
  V  V23  1  0.62943547  0.12965902  0.48601640  1
  V  V24  1  0.24593764  0.37662234  0.12484178  1
  V  V25  1  0.62659156  -0.00178672  0.12689445  1
  V  V26  1  0.11920243  0.12349079  0.50012442  1
  V  V27  1  0.50130437  0.50079462  -0.00024569  1
  V  V28  1  0.87695863  0.37131606  -0.00267006  1
  V  V29  1  0.00171999  0.37797143  0.37687705  1
  V  V30  1  0.37528467  0.12530242  0.24932308  1
  V  V31  1  0.37363167  0.62777869  0.24924245  1
  V  V32  1  0.87764574  0.24615359  0.12529004  1
  V  V33  1  0.24458791  -0.00308408  0.23621596  1
  V  V34  1  0.00267825  0.51751513  0.50434921  1
  V  V35  1  0.12465040  0.51261746  0.12140446  1
  V  V36  1  0.12221278  0.00098744  0.62373495  1
  V  V37  1  0.24226926  0.62251933  0.88557403  1
  V  V38  1  0.63750009  0.87984230  0.74857065  1
  V  V39  1  0.26000291  0.00031100  0.75208950  1
  V  V40  1  0.37144313  0.49185260  0.37740500  1
  V  V41  1  0.75444240  0.87629368  0.12575846  1
  V  V42  1  0.00136138  0.74466250  0.74815459  1
  V  V43  1  0.37379877  0.37480042  -0.00044270  1
  V  V44  1  0.12558004  0.87607706  0.75455324  1
  V  V45  1  0.24940410  0.12365957  0.37637932  1
  V  V46  1  0.37743455  0.25828674  0.62038209  1
  V  V47  1  0.49997334  0.37433170  0.87477916  1
  V  V48  1  0.37330818  0.74950491  0.62429058  1
  V  V49  1  0.51379272  0.37286275  0.37450223  1
  V  V50  1  0.74975268  0.24900747  -0.00222969  1
  V  V51  1  0.63994961  -0.00011724  0.62713035  1
  V  V52  1  0.62548227  0.50408779  0.61873995  1
  V  V53  1  0.49000963  0.87846806  0.87799577  1
  V  V54  1  0.50083804  0.12455152  0.62383650  1
  V  V55  1  0.12383785  0.87282134  0.23192473  1
  V  V56  1  0.87763768  0.37744172  0.49996446  1
  V  V57  1  0.00516794  0.11309593  0.12776335  1
  V  V58  1  0.75976040  0.50636602  0.25232617  1
  V  V59  1  0.49428853  0.49726116  0.50000496  1
  V  V60  1  0.50109613  0.62664271  0.61873312  1
  V  V61  1  0.73346444  0.75375182  0.50443960  1
  V  V62  1  0.87739294  0.62345175  0.74100810  1
  V  V63  1  0.36864713  0.62336229  0.75076565  1
  V  V64  1  0.06678099  0.80943656  0.42230589  1
  V  V65  1  0.37411753  0.87638045  0.49806259  1
  V  V66  1  0.48771488  -0.00373463  -0.00034034  1
  V  V67  1  0.13503788  0.37397688  0.74385137  1
  V  V68  1  0.62138884  0.49746815  0.13430003  1
  V  V69  1  0.00541866  0.50827779  -0.00335457  1
  V  V70  1  0.62972265  0.75229450  0.87841675  1
  V  V71  1  0.62146411  0.63053920  0.00259604  1
  V  V72  1  0.12917123  0.51238613  0.62471708  1
  V  V73  1  0.87119718  0.11205067  0.75112461  1
  V  V74  1  0.88770458  -0.00183445  0.38497788  1
  V  V75  1  0.24869292  0.76664936  0.00684394  1
  V  V76  1  0.74444772  0.37133144  0.13280666  1
  V  V77  1  0.50156006  0.75096162  0.25587668  1
  V  V78  1  0.37420798  0.25040258  0.12853427  1
  V  V79  1  0.74401360  0.63556170  0.37855610  1
  V  V80  1  0.24696316  0.50177459  0.25103207  1
  V  V81  1  0.00004168  0.24764970  0.74792339  1
  V  V82  1  0.62845902  0.87301586  0.26204147  1
  V  V83  1  0.62354707  0.12099242  -0.00099605  1
  V  V84  1  0.25328088  0.25716150  0.49894763  1
  Zn  Zn85  1  0.12112053  0.74662474  0.88101726  1
  Zn  Zn86  1  0.12498166  0.25106147  0.37594581  1
  Zn  Zn87  1  0.49889850  0.12419156  0.12568083  1
  Zn  Zn88  1  0.37618922  -0.00126527  0.37342697  1
  Zn  Zn89  1  0.87833131  0.50726221  0.37076308  1
  Zn  Zn90  1  0.12384750  0.37717670  0.25042509  1
  Zn  Zn91  1  0.37770285  0.12131912  0.75295585  1
  Zn  Zn92  1  0.87611849  0.87526878  0.49965340  1
  Zn  Zn93  1  -0.00766221  0.63090205  0.12290650  1
  Zn  Zn94  1  0.75027365  0.62708274  0.87541087  1
  Zn  Zn95  1  0.50581674  0.86637333  0.38158586  1
  Zn  Zn96  1  0.24783051  0.24901809  -0.00129573  1
  Zn  Zn97  1  0.86981646  0.12367398  0.26410486  1
  Zn  Zn98  1  0.49618195  0.62757962  0.12617678  1
  Zn  Zn99  1  -0.00412434  0.11889804  0.62080257  1
  Zn  Zn100  1  0.12760185  0.24596325  0.87497678  1
  Zn  Zn101  1  0.12703029  0.12452394  0.00264572  1
  Zn  Zn102  1  0.37475372  0.76537123  0.12214101  1
  Zn  Zn103  1  -0.00881971  0.87769678  0.86988899  1
  Zn  Zn104  1  0.25184109  0.87596721  0.62629916  1
  Zn  Zn105  1  0.25439140  0.38077188  0.62137706  1
  Zn  Zn106  1  0.75060074  0.00870381  0.26735384  1
  Zn  Zn107  1  0.18649806  0.18590128  0.18661662  1
  Zn  Zn108  1  0.19104519  0.18518509  0.68748034  1
  Zn  Zn109  1  0.18571035  0.69275101  0.18734667  1
  Zn  Zn110  1  0.19106618  0.68917345  0.69031781  1
  Zn  Zn111  1  0.68747993  0.18452806  0.18802994  1
  Zn  Zn112  1  0.68928181  0.18374604  0.68415720  1
  Zn  Zn113  1  0.68044541  0.68363738  0.19690399  1
  Zn  Zn114  1  0.68730836  0.68859240  0.68755908  1
  Zn  Zn115  1  0.31322833  0.31355328  0.31296760  1
  Zn  Zn116  1  0.31348207  0.30562014  0.81050402  1
  Zn  Zn117  1  0.31106021  0.81485939  0.31045177  1
  Zn  Zn118  1  0.30908302  0.80841652  0.81579065  1
  Zn  Zn119  1  0.81880547  0.31807714  0.30908539  1
  Zn  Zn120  1  0.81256512  0.30791611  0.81042718  1
  Zn  Zn121  1  0.81340958  0.82089221  0.31953141  1
  Zn  Zn122  1  0.81280757  0.81109001  0.81435926  1
  Zn  Zn123  1  0.18276775  0.44031172  0.44026576  1
  Zn  Zn124  1  0.18654558  0.43599179  0.93524277  1
  Zn  Zn125  1  0.19154266  0.94284318  0.43756197  1
  Zn  Zn126  1  0.18043795  0.94327820  0.93291143  1
  Zn  Zn127  1  0.68824990  0.44312008  0.43799682  1
  Zn  Zn128  1  0.68785571  0.43841018  0.93997107  1
  Zn  Zn129  1  0.69506615  0.94117015  0.44146285  1
  Zn  Zn130  1  0.68419283  0.93273145  0.94096332  1
  Zn  Zn131  1  0.31163087  -0.05866146  0.06345747  1
  Zn  Zn132  1  0.31143161  0.06508108  0.56460865  1
  Zn  Zn133  1  0.31351798  0.56366441  0.06189756  1
  Zn  Zn134  1  0.31056376  0.56427188  0.56003372  1
  Zn  Zn135  1  0.81305291  0.06260533  0.06775396  1
  Zn  Zn136  1  0.81535416  0.06413982  0.54945532  1
  Zn  Zn137  1  0.81137539  0.54229942  0.05985057  1
  Zn  Zn138  1  0.81350046  0.56858744  0.55669730  1
  Zn  Zn139  1  0.43603014  0.43743418  0.19154850  1
  Zn  Zn140  1  0.43740646  0.43756466  0.68881038  1
  Zn  Zn141  1  0.44202680  0.93838990  0.19284507  1
  Zn  Zn142  1  0.44294522  0.93522761  0.68596888  1
  Zn  Zn143  1  0.93946869  0.43535815  0.18358900  1
  Zn  Zn144  1  0.94299701  0.43666652  0.68285029  1
  Zn  Zn145  1  0.93421577  0.93626738  0.19417482  1
  Zn  Zn146  1  0.93943835  0.93477051  0.68386642  1
  Zn  Zn147  1  0.06264334  0.05972883  0.31217632  1
  Zn  Zn148  1  0.06713604  0.06454764  0.81159514  1
  Zn  Zn149  1  0.05740049  0.56749525  0.30796995  1
  Zn  Zn150  1  0.06376520  0.55900236  0.80592717  1
  Zn  Zn151  1  0.56185078  0.06121702  0.31159998  1
  Zn  Zn152  1  0.56350087  0.05860284  0.81241966  1
  Zn  Zn153  1  0.56332060  0.56431425  0.31474007  1
  Zn  Zn154  1  0.56107204  0.56467482  0.81117578  1
  Zn  Zn155  1  0.43842052  0.18992596  0.43638154  1
  Zn  Zn156  1  0.43416991  0.18423000  0.93968023  1
  Zn  Zn157  1  0.43308246  0.68394708  0.43464624  1
  Zn  Zn158  1  0.43426241  0.69174438  0.93949057  1
  Zn  Zn159  1  0.93623239  0.18728305  0.43567025  1
  Zn  Zn160  1  0.93795702  0.18242901  0.93445323  1
  Zn  Zn161  1  0.92545960  0.68761682  0.43104370  1
  Zn  Zn162  1  0.93935595  0.68501669  0.92736473  1
  Zn  Zn163  1  0.06501077  0.31149282  0.05959140  1
  Zn  Zn164  1  0.06429642  0.31165093  0.56248335  1
  Zn  Zn165  1  0.06268503  0.81438539  0.05942854  1
  Zn  Zn166  1  0.06510866  0.80600101  0.58337368  1
  Zn  Zn167  1  0.56126959  0.31127237  0.06357290  1
  Zn  Zn168  1  0.56380342  0.31416325  0.55689068  1
  Zn  Zn169  1  0.55879522  0.81337792  0.06830133  1
  Zn  Zn170  1  0.56301386  0.81665120  0.56701731  1
  O  O171  1  0.10970644  0.13132386  0.12203380  1
  O  O172  1  0.12522485  0.11852220  0.61786207  1
  O  O173  1  0.12519338  0.61455854  0.12446205  1
  O  O174  1  0.12807679  0.61134772  0.63298638  1
  O  O175  1  0.62128595  0.11749613  0.11405551  1
  O  O176  1  0.61485750  0.11919722  0.62019575  1
  O  O177  1  0.62178628  0.61701640  0.11807264  1
  O  O178  1  0.61214226  0.61544414  0.63412873  1
  O  O179  1  0.38010073  0.38883220  0.37189211  1
  O  O180  1  0.37794151  0.38135377  0.87676914  1
  O  O181  1  0.37734031  0.87702176  0.38757679  1
  O  O182  1  0.39160153  0.86851994  0.87116385  1
  O  O183  1  0.88689801  0.38254510  0.38001136  1
  O  O184  1  0.88177975  0.37885667  0.87545495  1
  O  O185  1  0.87851221  0.88711063  0.38279892  1
  O  O186  1  0.87282781  0.87181024  0.88966674  1
  O  O187  1  0.25454672  0.01378126  0.37003709  1
  O  O188  1  0.24911048  0.01027306  0.86688314  1
  O  O189  1  0.25517155  0.50454185  0.37348691  1
  O  O190  1  0.25834327  0.51007844  0.87826945  1
  O  O191  1  0.76735293  -0.00030921  0.38084664  1
  O  O192  1  0.74311359  0.01036842  0.87836979  1
  O  O193  1  0.75343444  0.50223728  0.36575302  1
  O  O194  1  0.75616064  0.50026114  0.86767356  1
  O  O195  1  0.24328937  0.49462033  0.12762095  1
  O  O196  1  0.23520022  0.49750336  0.61516214  1
  O  O197  1  0.24899679  1.00745119  0.13849328  1
  O  O198  1  0.24209895  0.99972701  0.63368743  1
  O  O199  1  0.74186745  0.49121778  0.13189708  1
  O  O200  1  0.74147442  0.49791267  0.62603145  1
  O  O201  1  0.73749713  0.99222352  0.12214153  1
  O  O202  1  0.73824148  1.00789987  0.61961801  1
  O  O203  1  0.00042311  0.36910738  0.25711409  1
  O  O204  1  0.00539589  0.36378876  0.75189470  1
  O  O205  1  0.01512216  0.86786852  0.24366616  1
  O  O206  1  0.00731178  0.86699443  0.75029540  1
  O  O207  1  0.49609597  0.36970802  0.26404405  1
  O  O208  1  0.50679738  0.36960161  0.75572893  1
  O  O209  1  0.50978659  0.86911008  0.25717703  1
  O  O210  1  0.50716569  0.87060154  0.76073637  1
  O  O211  1  0.49201767  0.13321933  0.25100375  1
  O  O212  1  0.50077807  0.12923801  0.74196437  1
  O  O213  1  0.49190946  0.63043777  0.25074481  1
  O  O214  1  0.48943300  0.63023819  0.74345498  1
  O  O215  1  0.99744642  0.13271578  0.24258254  1
  O  O216  1  0.99411669  0.13549050  0.74886912  1
  O  O217  1  1.00242248  0.64416340  0.24331304  1
  O  O218  1  0.98935419  0.63108762  0.75608254  1
  O  O219  1  0.37403743  0.25675402  0.01090190  1
  O  O220  1  0.36730579  0.24446897  0.50875285  1
  O  O221  1  0.35595226  0.74515944  0.00233675  1
  O  O222  1  0.36861509  0.75619386  0.50396313  1
  O  O223  1  0.87113515  0.25307903  0.00489593  1
  O  O224  1  0.86864391  0.25629055  0.50665110  1
  O  O225  1  0.87295868  0.75471816  -0.00092581  1
  O  O226  1  0.86847169  0.74978966  0.50943280  1
  O  O227  1  0.13551969  0.24194518  0.49987463  1
  O  O228  1  0.12958705  0.24619186  0.99467689  1
  O  O229  1  0.12984909  0.75882514  0.49154018  1
  O  O230  1  0.14029700  0.75489360  0.99658873  1
  O  O231  1  0.63592750  0.24256419  0.50357239  1
  O  O232  1  0.62763668  0.23952224  0.99621270  1
  O  O233  1  0.63382157  0.74951536  0.50736821  1
  O  O234  1  0.61777044  0.73858965  0.99538325  1
  O  O235  1  0.48750489  0.25395520  0.13260368  1
  O  O236  1  0.49694800  0.24442690  0.62661015  1
  O  O237  1  0.49485528  0.74742585  0.13826582  1
  O  O238  1  0.49435135  0.74230259  0.62953646  1
  O  O239  1  0.99292586  0.24902818  0.13109124  1
  O  O240  1  0.98789993  0.24964533  0.63025425  1
  O  O241  1  1.00107722  0.74962291  0.13376152  1
  O  O242  1  0.98936293  0.74446062  0.63941067  1
  O  O243  1  -0.00012148  0.25914685  0.36677260  1
  O  O244  1  0.00075127  0.25471071  0.86496043  1
  O  O245  1  0.00604605  0.74624261  0.36666050  1
  O  O246  1  0.00274473  0.75370498  0.86322719  1
  O  O247  1  0.49663651  0.26541608  0.36989637  1
  O  O248  1  0.50522709  0.25407470  0.87037005  1
  O  O249  1  0.49461871  0.74837255  0.36259159  1
  O  O250  1  0.50810497  0.75753633  0.87302593  1
  O  O251  1  0.24515449  0.13306657  0.49247896  1
  O  O252  1  0.25098425  0.12279466  0.98680543  1
  O  O253  1  0.25457682  0.63931338  0.49187656  1
  O  O254  1  0.25023373  0.62578260  0.98751055  1
  O  O255  1  0.74071285  0.13947533  0.50464949  1
  O  O256  1  0.74233145  0.12910728  0.99415537  1
  O  O257  1  0.74905667  0.63602006  0.48972978  1
  O  O258  1  0.74814984  0.63324581  1.00497593  1
  O  O259  1  0.25680926  0.37431205  0.00719746  1
  O  O260  1  0.24633384  0.36091725  0.49770354  1
  O  O261  1  0.25013082  0.87160222  -0.00632273  1
  O  O262  1  0.25775501  0.86684629  0.50020673  1
  O  O263  1  0.75694639  0.37055650  0.00835454  1
  O  O264  1  0.75556208  0.37138878  0.50532672  1
  O  O265  1  0.75601675  0.87528332  0.00961625  1
  O  O266  1  0.74963695  0.85657629  0.49929655  1
  O  O267  1  0.12890991  0.49878209  0.23976086  1
  O  O268  1  0.11704631  0.48843152  0.73268654  1
  O  O269  1  0.13682766  0.99148070  0.25231609  1
  O  O270  1  0.13437122  0.99380310  0.74502408  1
  O  O271  1  0.63075885  0.50348262  0.23704177  1
  O  O272  1  0.62764183  0.49473102  0.74101077  1
  O  O273  1  0.62581170  0.99298443  0.24237743  1
  O  O274  1  0.62211403  0.99317335  0.73907718  1
  O  O275  1  0.36543037  0.00936663  0.25284902  1
  O  O276  1  0.36370196  -0.00146418  0.74168382  1
  O  O277  1  0.36682792  0.50612344  0.25724875  1
  O  O278  1  0.38012382  0.50677229  0.76225891  1
  O  O279  1  0.87362921  0.00048699  0.26408000  1
  O  O280  1  0.88115448  0.01318879  0.74330994  1
  O  O281  1  0.86325273  0.49776270  0.24480105  1
  O  O282  1  0.87186945  0.50463177  0.74931924  1
  O  O283  1  0.11345098  0.37409448  0.37366996  1
  O  O284  1  0.11868904  0.37420949  0.86274833  1
  O  O285  1  0.12292208  0.87699263  0.36995780  1
  O  O286  1  0.12039158  0.87380737  0.86279832  1
  O  O287  1  0.61224419  0.38117656  0.37497383  1
  O  O288  1  0.62049635  0.36992658  0.87085808  1
  O  O289  1  0.62624366  0.88203654  0.36494395  1
  O  O290  1  0.61819116  0.86786766  0.86943977  1
  O  O291  1  0.37775770  0.13702725  0.14024140  1
  O  O292  1  0.38875129  0.13253955  0.62508017  1
  O  O293  1  0.37490043  0.62129557  0.14018989  1
  O  O294  1  0.37964872  0.62714488  0.63332493  1
  O  O295  1  0.88542461  0.13837942  0.12052319  1
  O  O296  1  0.87534858  0.13276480  0.62939057  1
  O  O297  1  0.86496788  0.63522705  0.11218708  1
  O  O298  1  0.87042315  0.63220024  0.63607642  1
  O  O299  1  0.25936810  0.25800816  0.12747935  1
  O  O300  1  0.26114678  0.24948027  0.61681616  1
  O  O301  1  0.25094949  0.74853337  0.10926414  1
  O  O302  1  0.25598087  0.75119284  0.61586193  1
  O  O303  1  0.75592384  0.25607631  0.11791258  1
  O  O304  1  0.76025228  0.25637091  0.62265939  1
  O  O305  1  0.74840409  0.75490076  0.12628295  1
  O  O306  1  0.75557976  0.74235556  0.61253604  1
  O  O307  1  0.24973353  0.24115983  0.37970195  1
  O  O308  1  0.24994874  0.23592881  0.87488778  1
  O  O309  1  0.25513220  0.74185049  0.38254162  1
  O  O310  1  0.24796809  0.73820937  0.88519225  1
  O  O311  1  0.75541298  0.25889870  0.38343426  1
  O  O312  1  0.74196836  0.24695480  0.88161394  1
  O  O313  1  0.75002617  0.74307935  0.38517727  1
  O  O314  1  0.73400528  0.74690114  0.87318662  1
  O  O315  1  -0.00133313  0.11358997  0.00560053  1
  O  O316  1  0.01596964  0.13469600  0.50246245  1
  O  O317  1  -0.00576345  0.61224292  -0.00016286  1
  O  O318  1  -0.00385645  0.61509074  0.49551226  1
  O  O319  1  0.50872491  0.11754665  -0.00033600  1
  O  O320  1  0.50669269  0.12088720  0.50544710  1
  O  O321  1  0.50569632  0.61917003  0.00193630  1
  O  O322  1  0.49360702  0.61819614  0.51205861  1
  O  O323  1  0.50019973  0.38282071  0.48699688  1
  O  O324  1  0.49423023  0.37975208  0.99333698  1
  O  O325  1  0.49429360  0.88303740  0.50016900  1
  O  O326  1  0.50686406  0.88132438  0.98715765  1
  O  O327  1  0.99542737  0.37728795  0.49230919  1
  O  O328  1  0.99451758  0.38086084  0.99284506  1
  O  O329  1  1.00910483  0.85662807  0.49139347  1
  O  O330  1  0.99112139  0.88713727  0.99975832  1
  O  O331  1  0.49457824  0.49320351  0.38081616  1
  O  O332  1  0.49393236  0.49457518  0.88002298  1
  O  O333  1  0.49759096  1.00017237  0.38903373  1
  O  O334  1  0.50408189  0.98664751  0.88243833  1
  O  O335  1  1.00094577  0.49668698  0.38496388  1
  O  O336  1  0.99645869  0.49367091  0.87903769  1
  O  O337  1  0.98919627  1.00140741  0.37361437  1
  O  O338  1  0.99959269  1.00096242  0.88627119  1
  O  O339  1  -0.00785547  0.01027485  0.11981350  1
  O  O340  1  0.01686659  0.00148967  0.62938142  1
  O  O341  1  0.00614785  0.50363340  0.11605732  1
  O  O342  1  0.00954017  0.49933001  0.61144684  1
  O  O343  1  0.51231878  0.00046750  0.11877368  1
  O  O344  1  0.50405768  0.00819606  0.61486695  1
  O  O345  1  0.50614675  0.49827617  0.11891561  1
  O  O346  1  0.50323106  0.50437060  0.61806175  1
  O  O347  1  0.24834920  0.38322662  0.24278108  1
  O  O348  1  0.23819216  0.36883447  0.74684991  1
  O  O349  1  0.24094070  0.88924471  0.25493182  1
  O  O350  1  0.24445906  0.88109980  0.75169142  1
  O  O351  1  0.75267959  0.38102167  0.23709409  1
  O  O352  1  0.74535691  0.38093218  0.74306547  1
  O  O353  1  0.74304437  0.87649960  0.24300645  1
  O  O354  1  0.73676796  0.87078456  0.75261583  1
  O  O355  1  0.25332654  0.11797066  0.25617358  1
  O  O356  1  0.25378434  0.11579332  0.75676606  1
  O  O357  1  0.25461168  0.62172345  0.25552184  1
  O  O358  1  0.26393895  0.63102241  0.76142884  1
  O  O359  1  0.76012611  0.11822153  0.23321349  1
  O  O360  1  0.75862059  0.13009950  0.75938523  1
  O  O361  1  0.74783005  0.61734746  0.25991047  1
  O  O362  1  0.75558392  0.61658641  0.75102282  1
  O  O363  1  0.36870124  0.12699376  0.36495842  1
  O  O364  1  0.36303512  0.12655386  0.87095359  1
  O  O365  1  0.36794224  0.61352975  0.36495036  1
  O  O366  1  0.36875825  0.61763131  0.87027468  1
  O  O367  1  0.87777522  0.11105222  0.38007668  1
  O  O368  1  0.86351222  0.12971989  0.86409203  1
  O  O369  1  0.85488373  0.61981378  0.37464703  1
  O  O370  1  0.86974845  0.61638443  0.86392265  1
  O  O371  1  0.13673484  0.38077786  0.12500078  1
  O  O372  1  0.12780644  0.38109489  0.63019955  1
  O  O373  1  0.12893067  0.87801851  0.13352653  1
  O  O374  1  0.13083998  0.88202777  0.63714713  1
  O  O375  1  0.63421286  0.38404272  0.11555876  1
  O  O376  1  0.62915079  0.38272631  0.62951230  1
  O  O377  1  0.63315738  0.88117482  0.13125838  1
  O  O378  1  0.61932984  0.88877976  0.63548182  1
  O  O379  1  0.11349970  0.25311047  0.25077200  1
  O  O380  1  0.11612830  0.25573232  0.74637265  1
  O  O381  1  0.12321147  0.76704714  0.24849192  1
  O  O382  1  0.11817392  0.75722426  0.74955522  1
  O  O383  1  0.60917611  0.24896461  0.23957844  1
  O  O384  1  0.62063659  0.25511814  0.75319110  1
  O  O385  1  0.61526166  0.76099464  0.24780717  1
  O  O386  1  0.61787316  0.75517136  0.75710865  1
  O  O387  1  0.38103007  0.24645632  0.24538860  1
  O  O388  1  0.38520873  0.24661073  0.74008927  1
  O  O389  1  0.37829997  0.74238668  0.24855369  1
  O  O390  1  0.38025896  0.74343767  0.74499844  1
  O  O391  1  0.88603435  0.24981609  0.24169231  1
  O  O392  1  0.88154607  0.24463844  0.74089005  1
  O  O393  1  0.89290847  0.76368328  0.25290899  1
  O  O394  1  0.87887870  0.74243174  0.74570361  1
  O  O395  1  0.38556091  0.50388136  0.49340152  1
  O  O396  1  0.38035448  0.49518493  0.99005059  1
  O  O397  1  0.38165858  0.99322058  0.50167093  1
  O  O398  1  0.38910205  1.00585322  1.00487960  1
  O  O399  1  0.88833173  0.49506867  0.50337037  1
  O  O400  1  0.88318212  0.49010992  0.99047146  1
  O  O401  1  0.88253374  0.99381241  0.49522040  1
  O  O402  1  0.88457889  0.99470047  1.00365390  1
  O  O403  1  0.10697283  0.00118256  0.00159066  1
  O  O404  1  0.13494844  0.01103054  0.51019477  1
  O  O405  1  0.11475243  0.49264045  0.00695909  1
  O  O406  1  0.11225503  0.49940995  0.51088531  1
  O  O407  1  0.61863281  0.00699384  0.00586289  1
  O  O408  1  0.61895219  0.00676342  0.50757941  1
  O  O409  1  0.62283771  0.51164747  0.00666712  1
  O  O410  1  0.61381130  0.49685548  0.51230886  1
  O  O411  1  0.36411477  0.37249832  0.12235673  1
  O  O412  1  0.37446914  0.36360262  0.62809824  1
  O  O413  1  0.37476545  0.87815000  0.12940151  1
  O  O414  1  0.37583317  0.86844029  0.61421441  1
  O  O415  1  0.86873886  0.36401557  0.11887883  1
  O  O416  1  0.87018413  0.36837679  0.61990493  1
  O  O417  1  0.86067631  0.87968297  0.11759207  1
  O  O418  1  0.87754763  0.86027344  0.62312257  1
  O  O419  1  0.13280264  0.12701032  0.38145272  1
  O  O420  1  0.13917303  0.12577347  0.87614367  1
  O  O421  1  0.13899427  0.61817667  0.37159643  1
  O  O422  1  0.14026737  0.62271737  0.86604029  1
  O  O423  1  0.62227688  0.12301109  0.38698562  1
  O  O424  1  0.63009549  0.12917232  0.88104268  1
  O  O425  1  0.64370344  0.61585499  0.37522095  1
  O  O426  1  0.62621241  0.63061645  0.88413652  1
