# generated using pymatgen
data_V85Zn86O256
_symmetry_space_group_name_H-M   'P 1'
_cell_length_a   16.96727308
_cell_length_b   16.97173771
_cell_length_c   16.97116867
_cell_angle_alpha   89.94268748
_cell_angle_beta   89.93895189
_cell_angle_gamma   90.02815094
_symmetry_Int_Tables_number   1
_chemical_formula_structural   V85Zn86O256
_chemical_formula_sum   'V85 Zn86 O256'
_cell_volume   4887.08164119
_cell_formula_units_Z   1
loop_
 _symmetry_equiv_pos_site_id
 _symmetry_equiv_pos_as_xyz
  1  'x, y, z'
loop_
 _atom_site_type_symbol
 _atom_site_label
 _atom_site_symmetry_multiplicity
 _atom_site_fract_x
 _atom_site_fract_y
 _atom_site_fract_z
 _atom_site_occupancy
  V  V0  1  0.87345836  -0.00020060  0.87533342  1
  V  V1  1  0.13032258  0.50155320  0.62914006  1
  V  V2  1  0.87651790  0.62081755  0.75431080  1
  V  V3  1  -0.00151379  0.00009857  0.49907810  1
  V  V4  1  0.25135532  -0.00001384  0.74812133  1
  V  V5  1  0.37749934  0.87544579  -0.00697644  1
  V  V6  1  0.50032228  -0.00548359  0.49723606  1
  V  V7  1  0.25210296  0.37643453  0.12240737  1
  V  V8  1  0.37534908  0.86691151  0.49585295  1
  V  V9  1  0.12397261  0.62684257  -0.00031121  1
  V  V10  1  0.86964653  0.24856809  0.62736432  1
  V  V11  1  0.25270764  0.62290395  0.86869720  1
  V  V12  1  0.62491842  0.12062103  0.00280148  1
  V  V13  1  0.58040409  0.42821005  0.69603400  1
  V  V14  1  0.37797136  0.25652965  0.11570413  1
  V  V15  1  0.38348804  0.74826803  0.12693542  1
  V  V16  1  0.57810455  -0.05498317  0.18215057  1
  V  V17  1  0.75818129  0.49365845  0.75668653  1
  V  V18  1  0.49503549  0.37280760  0.88816336  1
  V  V19  1  0.00855774  0.25034168  0.24560656  1
  V  V20  1  0.87079821  0.87737882  0.49404370  1
  V  V21  1  0.62365359  0.25647558  0.37602210  1
  V  V22  1  0.75178927  0.62174609  0.87843374  1
  V  V23  1  -0.00592793  0.50193452  -0.00883714  1
  V  V24  1  0.61201565  0.61078172  0.50112621  1
  V  V25  1  0.75018055  0.24934511  0.00387084  1
  V  V26  1  0.24508119  0.12612557  0.37619686  1
  V  V27  1  0.62352769  0.12773574  0.49693203  1
  V  V28  1  0.62510073  0.25572519  0.87417870  1
  V  V29  1  0.24461110  0.12254416  0.88009397  1
  V  V30  1  0.37949823  0.62628427  0.25735547  1
  V  V31  1  0.25135290  0.86908541  0.62299363  1
  V  V32  1  0.00064021  0.62983836  0.12480149  1
  V  V33  1  0.22804100  0.74974109  0.48902662  1
  V  V34  1  0.50171819  0.24519199  0.74903022  1
  V  V35  1  0.12113028  0.87603925  0.24989611  1
  V  V36  1  -0.00249706  0.87684792  0.87598564  1
  V  V37  1  0.76971746  0.01249983  0.25954948  1
  V  V38  1  0.87326173  0.12311562  0.74996949  1
  V  V39  1  0.37428236  -0.00030712  0.37464770  1
  V  V40  1  0.75251278  0.37942113  0.62607037  1
  V  V41  1  0.87301953  0.50807558  0.37485685  1
  V  V42  1  0.50403840  -0.00349920  -0.01082796  1
  V  V43  1  0.87440425  0.87463252  0.00164791  1
  V  V44  1  0.79632898  0.19899436  0.44615368  1
  V  V45  1  0.25075943  0.75130200  0.00151875  1
  V  V46  1  0.00183092  0.24938192  0.75050907  1
  V  V47  1  0.61906742  0.74963861  0.36450469  1
  V  V48  1  0.24685220  0.50097977  0.24930036  1
  V  V49  1  0.61586491  0.87096777  0.75267997  1
  V  V50  1  0.74568534  0.73652546  0.49387269  1
  V  V51  1  0.87710411  0.23805679  0.13238963  1
  V  V52  1  0.50364252  0.26319504  0.25099734  1
  V  V53  1  0.62278216  0.49695558  0.13136547  1
  V  V54  1  0.87371050  0.37789109  0.49857037  1
  V  V55  1  0.36907201  0.49964509  0.87710116  1
  V  V56  1  0.12033345  0.49278772  0.12037453  1
  V  V57  1  0.00839500  0.62627622  0.62504310  1
  V  V58  1  0.74681356  0.86925769  0.62346042  1
  V  V59  1  0.25845579  0.25167120  0.50184593  1
  V  V60  1  0.74765659  0.12393433  0.87499265  1
  V  V61  1  0.25271626  0.37383661  0.62640174  1
  V  V62  1  0.00176421  0.01625051  0.00258677  1
  V  V63  1  0.24619597  0.00132000  0.24823737  1
  V  V64  1  0.12362405  0.75163944  0.87652600  1
  V  V65  1  0.74972450  0.37563058  0.13185662  1
  V  V66  1  0.05690427  0.70425484  0.30782862  1
  V  V67  1  0.75172894  0.87983706  0.13523750  1
  V  V68  1  0.49506038  0.50107351  0.00533495  1
  V  V69  1  0.50529397  0.12732471  0.12744888  1
  V  V70  1  -0.00458219  0.88343770  0.36736329  1
  V  V71  1  0.24042478  0.24788017  0.00193164  1
  V  V72  1  0.87401369  0.37836411  -0.00267702  1
  V  V73  1  0.62363468  -0.00140424  0.62418099  1
  V  V74  1  0.87789151  0.75188391  0.13546204  1
  V  V75  1  0.13000179  0.37541190  0.75462115  1
  V  V76  1  0.00639010  0.50131868  0.50346229  1
  V  V77  1  0.12261750  0.87384862  0.74803124  1
  V  V78  1  0.61740346  0.74887514  0.87451255  1
  V  V79  1  0.48816161  0.38637196  0.39244429  1
  V  V80  1  0.13129686  0.26911639  0.37481483  1
  V  V81  1  0.74795329  0.50687139  0.25422163  1
  V  V82  1  -0.00341676  0.75129988  0.75050897  1
  V  V83  1  0.37547433  0.12898692  0.24942343  1
  V  V84  1  0.12115774  0.01539036  0.12144570  1
  Zn  Zn85  1  0.37789473  0.24829843  0.62328073  1
  Zn  Zn86  1  0.62629312  0.62414668  0.00270211  1
  Zn  Zn87  1  0.50446348  0.62818271  0.12978295  1
  Zn  Zn88  1  0.30574136  0.56965867  0.70289668  1
  Zn  Zn89  1  0.50041028  0.61856653  0.63041829  1
  Zn  Zn90  1  0.37413530  0.12419730  0.74935766  1
  Zn  Zn91  1  0.74987494  0.74874710  0.00177243  1
  Zn  Zn92  1  -0.00271486  0.37752331  0.87352121  1
  Zn  Zn93  1  0.87619551  0.63008808  0.25608357  1
  Zn  Zn94  1  0.12003576  0.24645531  0.88079345  1
  Zn  Zn95  1  0.50414324  0.87386945  0.35978519  1
  Zn  Zn96  1  0.74872195  -0.00330734  0.75028708  1
  Zn  Zn97  1  0.37565788  -0.00163416  0.87262635  1
  Zn  Zn98  1  0.00043569  0.37808911  0.36987344  1
  Zn  Zn99  1  0.26258051  0.60817087  0.39153916  1
  Zn  Zn100  1  0.49555441  0.12268925  0.62532870  1
  Zn  Zn101  1  0.48708780  0.73928384  0.74983276  1
  Zn  Zn102  1  0.12336043  0.00192001  0.62308313  1
  Zn  Zn103  1  0.12466542  0.12584507  0.50331587  1
  Zn  Zn104  1  0.00014016  0.12404175  0.62281091  1
  Zn  Zn105  1  0.87183737  0.74687541  0.62467944  1
  Zn  Zn106  1  0.24449518  0.87658274  0.12307310  1
  Zn  Zn107  1  0.18793624  0.19156478  0.18912175  1
  Zn  Zn108  1  0.18554003  0.18458303  0.68681995  1
  Zn  Zn109  1  0.19556339  0.68272086  0.18360721  1
  Zn  Zn110  1  0.37334326  0.73461122  0.62652744  1
  Zn  Zn111  1  0.68750966  0.18565407  0.19358516  1
  Zn  Zn112  1  0.68519492  0.18795950  0.68718631  1
  Zn  Zn113  1  0.69192480  0.68458217  0.18475123  1
  Zn  Zn114  1  0.68084094  0.68163734  0.68609817  1
  Zn  Zn115  1  0.31474426  0.31612380  0.30691027  1
  Zn  Zn116  1  0.31361289  0.31083853  0.81700989  1
  Zn  Zn117  1  0.31032400  0.81056345  0.31177005  1
  Zn  Zn118  1  0.31116847  0.80987590  0.81228552  1
  Zn  Zn119  1  0.81911853  0.32053595  0.30719260  1
  Zn  Zn120  1  0.81291205  0.31139841  0.81468968  1
  Zn  Zn121  1  0.80707297  0.81539354  0.31476325  1
  Zn  Zn122  1  0.80706319  0.80859066  0.81136721  1
  Zn  Zn123  1  0.20892094  0.44814105  0.44733719  1
  Zn  Zn124  1  0.18732055  0.43297874  0.94074143  1
  Zn  Zn125  1  0.18285252  0.93469974  0.43414309  1
  Zn  Zn126  1  0.18573501  0.93927320  0.93849752  1
  Zn  Zn127  1  0.68870560  0.43295557  0.43472204  1
  Zn  Zn128  1  0.68521632  0.43844123  0.94136317  1
  Zn  Zn129  1  0.68693357  0.93390727  0.43051579  1
  Zn  Zn130  1  0.68772808  0.93465824  0.93900349  1
  Zn  Zn131  1  0.31353445  0.06429823  0.06211393  1
  Zn  Zn132  1  0.31342249  0.06189538  0.56423856  1
  Zn  Zn133  1  0.31374552  0.56413019  0.06149955  1
  Zn  Zn134  1  0.32725574  0.56066511  0.54070294  1
  Zn  Zn135  1  0.80964424  0.05833259  0.06589116  1
  Zn  Zn136  1  0.81412615  0.05561749  0.56430088  1
  Zn  Zn137  1  0.81365854  0.56349493  0.06634292  1
  Zn  Zn138  1  0.81500159  0.56056225  0.56849707  1
  Zn  Zn139  1  0.43214694  0.44084128  0.19311115  1
  Zn  Zn140  1  0.42070614  0.43098543  0.69872541  1
  Zn  Zn141  1  0.41595742  0.93964648  0.17992997  1
  Zn  Zn142  1  0.43481751  0.92787470  0.68635940  1
  Zn  Zn143  1  0.93741827  0.43511076  0.18630901  1
  Zn  Zn144  1  0.93952770  0.43701135  0.68965147  1
  Zn  Zn145  1  0.93846642  0.94414450  0.18611328  1
  Zn  Zn146  1  0.93344139  0.93724214  0.68292082  1
  Zn  Zn147  1  0.06234180  0.06316660  0.30876911  1
  Zn  Zn148  1  0.06337554  0.06310850  0.81288177  1
  Zn  Zn149  1  0.08378016  0.53463257  0.32490720  1
  Zn  Zn150  1  0.06700722  0.56358043  0.81100453  1
  Zn  Zn151  1  0.56303791  0.07121240  0.31875532  1
  Zn  Zn152  1  0.56573002  0.06334603  0.81132215  1
  Zn  Zn153  1  0.56405788  0.56370048  0.31659510  1
  Zn  Zn154  1  0.55906943  0.56595705  0.82013096  1
  Zn  Zn155  1  0.43843903  0.18721781  0.43591307  1
  Zn  Zn156  1  0.43294960  0.18205587  0.93626747  1
  Zn  Zn157  1  0.44679371  0.68813713  0.43869561  1
  Zn  Zn158  1  0.43770837  0.68326123  0.93877484  1
  Zn  Zn159  1  0.96580176  0.16621053  0.40144621  1
  Zn  Zn160  1  0.93308278  0.19196122  0.93626923  1
  Zn  Zn161  1  0.93494282  0.68705920  0.44597876  1
  Zn  Zn162  1  0.93331541  0.68966744  0.93924416  1
  Zn  Zn163  1  0.05965344  0.31252236  0.06476256  1
  Zn  Zn164  1  0.06484551  0.31228515  0.56153886  1
  Zn  Zn165  1  0.05999828  0.81813385  0.06545268  1
  Zn  Zn166  1  0.05750400  0.81632377  0.56470930  1
  Zn  Zn167  1  0.56692016  0.31371460  0.06419133  1
  Zn  Zn168  1  0.55825404  0.30928503  0.55557690  1
  Zn  Zn169  1  0.56196057  0.80932769  0.05492425  1
  Zn  Zn170  1  0.56032133  0.80518290  0.56341503  1
  O  O171  1  0.12605012  0.11455332  0.13136264  1
  O  O172  1  0.11861020  0.12038246  0.62149253  1
  O  O173  1  0.11947591  0.62165793  0.11506983  1
  O  O174  1  0.10998261  0.61236408  0.63509741  1
  O  O175  1  0.61237749  0.13290096  0.11962185  1
  O  O176  1  0.62442851  0.11610934  0.61480869  1
  O  O177  1  0.62483784  0.61269131  0.12290438  1
  O  O178  1  0.62511205  0.62394776  0.60551338  1
  O  O179  1  0.39070516  0.36794478  0.37182678  1
  O  O180  1  0.38558919  0.38208677  0.87426770  1
  O  O181  1  0.38007274  0.88152731  0.37734425  1
  O  O182  1  0.36867198  0.87758356  0.88992038  1
  O  O183  1  0.87742515  0.38447820  0.38493758  1
  O  O184  1  0.87536215  0.36848058  0.89258125  1
  O  O185  1  0.88036794  0.87019726  0.38621088  1
  O  O186  1  0.87532962  0.87893133  0.88241658  1
  O  O187  1  0.25150377  0.00865466  0.36896551  1
  O  O188  1  0.24963703  0.00532366  0.86795065  1
  O  O189  1  0.20059720  0.50729498  0.34488124  1
  O  O190  1  0.25801749  0.50880485  0.88961773  1
  O  O191  1  0.74715503  -0.00455408  0.35758445  1
  O  O192  1  0.75587571  0.00596545  0.87430114  1
  O  O193  1  0.76017797  0.49216803  0.36522810  1
  O  O194  1  0.74488254  0.51042665  0.87013433  1
  O  O195  1  0.24311631  0.49409200  0.12607300  1
  O  O196  1  0.24206242  0.49339021  0.62960293  1
  O  O197  1  0.24258275  1.00021455  0.13083841  1
  O  O198  1  0.24561899  0.99050838  0.63152949  1
  O  O199  1  0.74358151  0.49316414  0.13004966  1
  O  O200  1  0.75534443  0.48696227  0.63702364  1
  O  O201  1  0.75275916  0.99065220  0.13771941  1
  O  O202  1  0.73717871  0.98987326  0.62276568  1
  O  O203  1  -0.00442709  0.35864617  0.25128790  1
  O  O204  1  0.00779571  0.36645938  0.75180194  1
  O  O205  1  0.00436744  0.87817454  0.25686738  1
  O  O206  1  0.00323477  0.87312681  0.75439558  1
  O  O207  1  0.49812360  0.36419321  0.25031032  1
  O  O208  1  0.51197445  0.37202146  0.75773724  1
  O  O209  1  0.50950223  0.89212204  0.23686446  1
  O  O210  1  0.51416407  0.87337691  0.74895714  1
  O  O211  1  0.49549569  0.13338207  0.24374098  1
  O  O212  1  0.49846222  0.13185328  0.74874738  1
  O  O213  1  0.48341295  0.61673517  0.24673652  1
  O  O214  1  0.50942838  0.62643718  0.74432959  1
  O  O215  1  0.99403422  0.14932582  0.27477069  1
  O  O216  1  0.99169006  0.13209577  0.74960455  1
  O  O217  1  1.00262677  0.63613608  0.24929758  1
  O  O218  1  0.99335400  0.63072561  0.74854429  1
  O  O219  1  0.36853045  0.24363230  0.01265587  1
  O  O220  1  0.36205270  0.24372650  0.50069033  1
  O  O221  1  0.36890916  0.75528340  0.00414591  1
  O  O222  1  0.37530038  0.76212264  0.49774966  1
  O  O223  1  0.86966376  0.25636574  0.01148410  1
  O  O224  1  0.86494742  0.25520941  0.50605713  1
  O  O225  1  0.87134525  0.76045780  0.00870349  1
  O  O226  1  0.86132092  0.75584746  0.50287560  1
  O  O227  1  0.13349385  0.24759592  0.48986960  1
  O  O228  1  0.13611642  0.25088771  1.00240111  1
  O  O229  1  0.12959577  0.76308885  0.49527802  1
  O  O230  1  0.13099516  0.74921469  0.99617159  1
  O  O231  1  0.62404186  0.23901511  0.49353587  1
  O  O232  1  0.63134465  0.24200774  0.99575375  1
  O  O233  1  0.63491411  0.74255477  0.49411289  1
  O  O234  1  0.63110515  0.74814386  0.99034402  1
  O  O235  1  0.49579648  0.24592914  0.12979064  1
  O  O236  1  0.50130269  0.24837579  0.63553882  1
  O  O237  1  0.48734116  0.74955059  0.12035052  1
  O  O238  1  0.49294522  0.74187930  0.62510203  1
  O  O239  1  0.99229974  0.24910122  0.13578906  1
  O  O240  1  0.98731746  0.25020245  0.63292226  1
  O  O241  1  0.98951429  0.74363539  0.11822604  1
  O  O242  1  0.99759964  0.74227696  0.63134018  1
  O  O243  1  0.01512400  0.26258572  0.37017810  1
  O  O244  1  -0.00035943  0.25236624  0.86366229  1
  O  O245  1  -0.00475421  0.75845187  0.37175226  1
  O  O246  1  0.00239803  0.75794471  0.87159165  1
  O  O247  1  0.50635956  0.25480350  0.36833039  1
  O  O248  1  0.50487190  0.25568515  0.87378128  1
  O  O249  1  0.51308979  0.75518537  0.37257601  1
  O  O250  1  0.51387180  0.74463369  0.87551864  1
  O  O251  1  0.24743237  0.12948600  0.49115012  1
  O  O252  1  0.25342216  0.13341050  0.99295178  1
  O  O253  1  0.24163991  0.64924657  0.50339974  1
  O  O254  1  0.24237603  0.63425792  0.99653358  1
  O  O255  1  0.74405677  0.12976746  0.50430667  1
  O  O256  1  0.74476527  0.12984138  0.99681157  1
  O  O257  1  0.75168496  0.63560370  0.50449601  1
  O  O258  1  0.75170522  0.62475786  0.99098669  1
  O  O259  1  0.25090885  0.36468561  0.01217592  1
  O  O260  1  0.24263597  0.36197529  0.51516856  1
  O  O261  1  0.25429866  0.86686077  0.00100643  1
  O  O262  1  0.25583068  0.87263987  0.50131109  1
  O  O263  1  0.75476831  0.36938375  0.00957525  1
  O  O264  1  0.76330110  0.38182058  0.51158550  1
  O  O265  1  0.76228496  0.87963462  0.01117925  1
  O  O266  1  0.75326454  0.86909621  0.50673280  1
  O  O267  1  0.12537883  0.50508959  0.22321668  1
  O  O268  1  0.11878128  0.48797353  0.74128460  1
  O  O269  1  0.12664583  0.99490149  0.24232356  1
  O  O270  1  0.13294478  0.98887120  0.75182965  1
  O  O271  1  0.63366815  0.50350845  0.24290683  1
  O  O272  1  0.63380850  0.49203188  0.75521411  1
  O  O273  1  0.62696075  1.00459813  0.24648159  1
  O  O274  1  0.62707547  0.99235863  0.74127149  1
  O  O275  1  0.36628123  0.00856775  0.25499676  1
  O  O276  1  0.36122255  -0.00640119  0.75130312  1
  O  O277  1  0.36034112  0.51445028  0.24602139  1
  O  O278  1  0.36904490  0.49973289  0.76999392  1
  O  O279  1  0.86997368  0.00371888  0.25330646  1
  O  O280  1  0.87200938  0.00495837  0.75590161  1
  O  O281  1  0.87215821  0.50104194  0.25914324  1
  O  O282  1  0.87018525  0.50700069  0.75242394  1
  O  O283  1  0.13089399  0.36963058  0.38161103  1
  O  O284  1  0.12225774  0.37056204  0.86804743  1
  O  O285  1  0.11347619  0.87804143  0.35881436  1
  O  O286  1  0.11762195  0.87140582  0.86984291  1
  O  O287  1  0.61365722  0.36166001  0.38396702  1
  O  O288  1  0.61869463  0.36105928  0.88311759  1
  O  O289  1  0.62144316  0.85688669  0.37767731  1
  O  O290  1  0.63681546  0.86278715  0.86403918  1
  O  O291  1  0.38741742  0.13083464  0.12929013  1
  O  O292  1  0.37742728  0.12838127  0.63072765  1
  O  O293  1  0.37536584  0.63388162  0.13165723  1
  O  O294  1  0.37486927  0.61308621  0.62342494  1
  O  O295  1  0.87193749  0.14058844  0.11907524  1
  O  O296  1  0.87388164  0.13282883  0.63051140  1
  O  O297  1  0.88236076  0.63468452  0.12870905  1
  O  O298  1  0.88421243  0.62454762  0.63886261  1
  O  O299  1  0.25763596  0.25577477  0.12114964  1
  O  O300  1  0.24877694  0.25484799  0.61745039  1
  O  O301  1  0.25578109  0.75065184  0.11161172  1
  O  O302  1  0.25310737  0.76673163  0.60857794  1
  O  O303  1  0.75838120  0.25643832  0.12579193  1
  O  O304  1  0.76168436  0.26256806  0.63682108  1
  O  O305  1  0.75725263  0.76053951  0.12327718  1
  O  O306  1  0.74710972  0.75508968  0.61409934  1
  O  O307  1  0.24784046  0.24592591  0.37882202  1
  O  O308  1  0.24963228  0.24322203  0.88669923  1
  O  O309  1  0.24872159  0.75170350  0.38771831  1
  O  O310  1  0.24526136  0.74440594  0.88597896  1
  O  O311  1  0.74471589  0.25982483  0.37826901  1
  O  O312  1  0.74218053  0.24532261  0.88123177  1
  O  O313  1  0.74292199  0.75267042  0.38923164  1
  O  O314  1  0.74382433  0.73597907  0.87545632  1
  O  O315  1  -0.00304116  0.11489301  -0.00819820  1
  O  O316  1  0.00169492  0.11384318  0.49577501  1
  O  O317  1  0.00332504  0.61949963  0.00291034  1
  O  O318  1  -0.00558681  0.61460124  0.51305584  1
  O  O319  1  0.50271958  0.11611194  0.00895751  1
  O  O320  1  0.50661202  0.11272713  0.50054142  1
  O  O321  1  0.50313894  0.61450860  0.00662054  1
  O  O322  1  0.50676560  0.61500751  0.50479047  1
  O  O323  1  0.49393412  0.37762380  0.49320270  1
  O  O324  1  0.50208840  0.37857800  0.99242846  1
  O  O325  1  0.49366669  0.88466304  0.49916923  1
  O  O326  1  0.49158469  0.88624355  1.00645274  1
  O  O327  1  0.98720209  0.38169666  0.50522586  1
  O  O328  1  0.99185129  0.38343659  1.00045836  1
  O  O329  1  0.98952042  0.87921982  0.49228573  1
  O  O330  1  0.98747520  0.88142832  0.99534252  1
  O  O331  1  0.50322158  0.48319307  0.37039824  1
  O  O332  1  0.49505107  0.49126481  0.88584015  1
  O  O333  1  0.49589302  0.99711609  0.38108155  1
  O  O334  1  0.49756558  1.00479134  0.88615977  1
  O  O335  1  0.99679579  0.49495330  0.38611463  1
  O  O336  1  1.00412340  0.50011885  0.88796358  1
  O  O337  1  1.00040038  0.99018565  0.38013956  1
  O  O338  1  0.99363733  0.99444834  0.88052881  1
  O  O339  1  0.00720270  0.00089615  0.11398147  1
  O  O340  1  0.00004582  0.00081336  0.61400010  1
  O  O341  1  0.00400127  0.50670226  0.11543771  1
  O  O342  1  0.00504988  0.50457011  0.62080079  1
  O  O343  1  0.50754233  0.00446046  0.12515038  1
  O  O344  1  0.51061734  -0.00268218  0.61782345  1
  O  O345  1  0.50668198  0.49629491  0.12152601  1
  O  O346  1  0.51321645  0.48126621  0.64340776  1
  O  O347  1  0.25484035  0.38545622  0.23521030  1
  O  O348  1  0.23639307  0.36430441  0.74568366  1
  O  O349  1  0.23995293  0.88265085  0.24887314  1
  O  O350  1  0.24008203  0.87946336  0.74180790  1
  O  O351  1  0.75634247  0.38610337  0.23703007  1
  O  O352  1  0.75674781  0.38634374  0.74801981  1
  O  O353  1  0.75399182  0.88486178  0.23999052  1
  O  O354  1  0.74542573  0.87410307  0.73489461  1
  O  O355  1  0.25568585  0.12319771  0.25692096  1
  O  O356  1  0.25018963  0.11454351  0.75557831  1
  O  O357  1  0.25953288  0.61748963  0.25159028  1
  O  O358  1  0.23821041  0.62942947  0.76989071  1
  O  O359  1  0.75251461  0.11117272  0.24590878  1
  O  O360  1  0.75511333  0.12295263  0.75574712  1
  O  O361  1  0.75780169  0.61034740  0.24486204  1
  O  O362  1  0.75621674  0.61286786  0.75360019  1
  O  O363  1  0.36519172  0.12086989  0.36973163  1
  O  O364  1  0.36192096  0.11980504  0.87021412  1
  O  O365  1  0.37572900  0.63931295  0.35942731  1
  O  O366  1  0.36397009  0.61570925  0.88258900  1
  O  O367  1  0.85445078  0.14358840  0.38983551  1
  O  O368  1  0.86653368  0.12100137  0.86973450  1
  O  O369  1  0.88101584  0.61213095  0.37578555  1
  O  O370  1  0.86790657  0.63039316  0.86302090  1
  O  O371  1  0.13400551  0.38347719  0.11712958  1
  O  O372  1  0.13139383  0.38134312  0.63339083  1
  O  O373  1  0.12355217  0.88320701  0.13629418  1
  O  O374  1  0.12992451  0.87725780  0.63394616  1
  O  O375  1  0.63610567  0.38529033  0.12174756  1
  O  O376  1  0.63327446  0.36982340  0.62782827  1
  O  O377  1  0.63234975  0.87685486  0.12460973  1
  O  O378  1  0.62993967  0.87910590  0.62882558  1
  O  O379  1  0.11662435  0.25196337  0.25608165  1
  O  O380  1  0.11399186  0.25563337  0.74970620  1
  O  O381  1  0.12380347  0.75613102  0.24525872  1
  O  O382  1  0.11528206  0.76554930  0.75952659  1
  O  O383  1  0.61566985  0.24503090  0.26188632  1
  O  O384  1  0.61444171  0.24528282  0.76138229  1
  O  O385  1  0.63488302  0.74099277  0.26643889  1
  O  O386  1  0.62841368  0.75668033  0.75784795  1
  O  O387  1  0.38227806  0.24470989  0.23888519  1
  O  O388  1  0.39196023  0.25221603  0.75347161  1
  O  O389  1  0.36609386  0.73929957  0.23783233  1
  O  O390  1  0.37657203  0.76689667  0.73728088  1
  O  O391  1  0.88202534  0.25298707  0.23727226  1
  O  O392  1  0.88129989  0.24549545  0.74448592  1
  O  O393  1  0.86909894  0.75084320  0.23951019  1
  O  O394  1  0.87968953  0.74303557  0.74679802  1
  O  O395  1  0.30411019  0.51163183  0.44964961  1
  O  O396  1  0.38740918  0.50130762  0.99555633  1
  O  O397  1  0.38203108  0.99402699  0.49224484  1
  O  O398  1  0.38436441  0.99175816  1.00306454  1
  O  O399  1  0.88265648  0.49448275  0.49621271  1
  O  O400  1  0.88337650  0.49185253  1.00680652  1
  O  O401  1  0.88458599  0.98977511  0.50258443  1
  O  O402  1  0.88149119  0.99445704  0.99580646  1
  O  O403  1  0.11374566  -0.00525597  0.00969503  1
  O  O404  1  0.11041317  -0.00301260  0.49919099  1
  O  O405  1  0.11729110  0.50636534  0.00491917  1
  O  O406  1  0.11337072  0.49290734  0.51330337  1
  O  O407  1  0.61709687  0.00664761  -0.00269195  1
  O  O408  1  0.61870208  0.00356627  0.50333472  1
  O  O409  1  0.61258999  0.49943021  0.00894377  1
  O  O410  1  0.63423078  0.51455917  0.49343590  1
  O  O411  1  0.36865755  0.36592915  0.12717970  1
  O  O412  1  0.35775132  0.36912985  0.63069862  1
  O  O413  1  0.36592886  0.86483348  0.11375528  1
  O  O414  1  0.36414032  0.88274534  0.60872573  1
  O  O415  1  0.86813719  0.36750491  0.11573073  1
  O  O416  1  0.87007440  0.36818441  0.62062284  1
  O  O417  1  0.87093072  0.87077515  0.12001879  1
  O  O418  1  0.86453107  0.87158073  0.61410143  1
  O  O419  1  0.13747098  0.13272096  0.37344063  1
  O  O420  1  0.13897856  0.12826533  0.87013421  1
  O  O421  1  0.10992890  0.64318212  0.36522401  1
  O  O422  1  0.12874567  0.63245770  0.88283744  1
  O  O423  1  0.62487191  0.13656805  0.38861723  1
  O  O424  1  0.62893689  0.13438465  0.88213340  1
  O  O425  1  0.61883242  0.63658322  0.38951343  1
  O  O426  1  0.63485226  0.63193938  0.87961543  1
