# generated using pymatgen
data_V85Zn86O256
_symmetry_space_group_name_H-M   'P 1'
_cell_length_a   16.91601216
_cell_length_b   16.91645566
_cell_length_c   16.91789579
_cell_angle_alpha   90.01378123
_cell_angle_beta   89.95770784
_cell_angle_gamma   89.99239469
_symmetry_Int_Tables_number   1
_chemical_formula_structural   V85Zn86O256
_chemical_formula_sum   'V85 Zn86 O256'
_cell_volume   4841.20612606
_cell_formula_units_Z   1
loop_
 _symmetry_equiv_pos_site_id
 _symmetry_equiv_pos_as_xyz
  1  'x, y, z'
loop_
 _atom_site_type_symbol
 _atom_site_label
 _atom_site_symmetry_multiplicity
 _atom_site_fract_x
 _atom_site_fract_y
 _atom_site_fract_z
 _atom_site_occupancy
  V  V0  1  0.87610710  0.25283976  0.13589846  1
  V  V1  1  0.36848086  0.87596290  0.50143782  1
  V  V2  1  0.87411721  0.74977405  0.12449288  1
  V  V3  1  -0.00242726  0.25334062  0.74747722  1
  V  V4  1  0.12193695  0.74489171  0.88026499  1
  V  V5  1  0.37527903  -0.00072808  0.87544701  1
  V  V6  1  0.49768113  0.49420017  -0.00621109  1
  V  V7  1  -0.00064957  0.13055692  0.13041719  1
  V  V8  1  0.75663531  0.37326340  0.62831434  1
  V  V9  1  0.86516851  0.50242881  0.87940063  1
  V  V10  1  0.51830711  0.37223680  0.37782398  1
  V  V11  1  0.74987822  0.25198104  0.50214458  1
  V  V12  1  0.87288718  0.87550959  0.49914800  1
  V  V13  1  -0.00171657  0.75502734  0.75501232  1
  V  V14  1  0.87290198  0.74886034  0.62646971  1
  V  V15  1  -0.00547983  0.13015138  0.62517929  1
  V  V16  1  0.86897225  0.36471929  -0.00007124  1
  V  V17  1  0.75017898  0.00184136  0.75367195  1
  V  V18  1  0.87523364  0.50618301  0.37755652  1
  V  V19  1  0.12113513  0.62692905  0.50159933  1
  V  V20  1  0.38513239  0.11965277  0.73783717  1
  V  V21  1  0.36483393  0.25876450  0.61423021  1
  V  V22  1  0.00366113  0.50379882  -0.00123262  1
  V  V23  1  0.26079195  0.62422154  0.86366674  1
  V  V24  1  0.12407068  0.87552064  0.25139401  1
  V  V25  1  0.62141865  0.87191464  0.25348467  1
  V  V26  1  0.00122451  -0.00421925  -0.00520168  1
  V  V27  1  0.74793056  0.87494970  0.62265122  1
  V  V28  1  0.87308239  0.00444966  0.37455704  1
  V  V29  1  0.37971826  0.75020351  0.13032281  1
  V  V30  1  0.25245902  0.62994640  0.37818761  1
  V  V31  1  0.74227224  0.50672253  0.75365846  1
  V  V32  1  0.25057038  0.13260108  0.37934612  1
  V  V33  1  -0.00199840  0.74971339  0.25188093  1
  V  V34  1  0.51530643  0.25734545  0.25112630  1
  V  V35  1  0.00498512  0.62490679  0.12314737  1
  V  V36  1  0.24936113  0.49595299  0.24978758  1
  V  V37  1  0.87010857  0.13018735  0.75137187  1
  V  V38  1  0.37734790  0.12743514  0.24884540  1
  V  V39  1  0.63090060  0.62035012  0.00246933  1
  V  V40  1  0.64052882  0.12515968  -0.00915058  1
  V  V41  1  0.62507968  0.50388269  0.61778987  1
  V  V42  1  0.13834179  0.38179057  0.74574693  1
  V  V43  1  0.37967112  0.62345922  0.25621718  1
  V  V44  1  0.12828553  -0.00358378  0.62278110  1
  V  V45  1  0.37683995  0.00066533  0.37470361  1
  V  V46  1  -0.00444432  0.37214155  0.36154849  1
  V  V47  1  0.74470796  0.50177843  0.25500446  1
  V  V48  1  0.25110738  0.00180888  0.24929532  1
  V  V49  1  0.62692458  0.73701433  0.87331383  1
  V  V50  1  0.62668154  0.87293459  0.75028944  1
  V  V51  1  0.12401289  0.12605847  -0.00339810  1
  V  V52  1  0.12425591  -0.00028137  0.12329115  1
  V  V53  1  0.87476601  0.00292727  0.87488027  1
  V  V54  1  0.24730898  0.73960584  0.00357569  1
  V  V55  1  0.24455725  0.37358154  0.12680957  1
  V  V56  1  0.74956905  0.74739270  -0.00245875  1
  V  V57  1  0.37673741  0.25276983  0.12369629  1
  V  V58  1  0.49987419  0.00508012  0.50242707  1
  V  V59  1  0.12514979  0.13987959  0.50265949  1
  V  V60  1  0.63163681  0.25373929  0.87362677  1
  V  V61  1  0.74690021  0.73626002  0.49300986  1
  V  V62  1  0.74294465  0.37118066  0.12853188  1
  V  V63  1  0.87273780  0.62589309  0.75673473  1
  V  V64  1  0.62103917  0.73679807  0.37375789  1
  V  V65  1  0.62085028  0.00839591  0.62486840  1
  V  V66  1  0.50260591  0.63137009  0.62113845  1
  V  V67  1  0.11991827  0.25350656  0.35685703  1
  V  V68  1  -0.00023177  0.00113157  0.50105303  1
  V  V69  1  0.73928097  0.13066896  0.37458092  1
  V  V70  1  0.50228847  0.62457223  0.12928975  1
  V  V71  1  0.50272647  0.87247417  0.87729092  1
  V  V72  1  0.36779803  0.75170592  0.62980278  1
  V  V73  1  0.62774523  -0.00056730  0.12533675  1
  V  V74  1  0.50488712  0.50462406  0.49218474  1
  V  V75  1  0.12437986  0.49951277  0.12608085  1
  V  V76  1  0.24982366  -0.00407648  0.74643926  1
  V  V77  1  -0.00004216  0.37487601  0.87449878  1
  V  V78  1  0.32862760  0.44341790  0.43140011  1
  V  V79  1  0.25208938  0.87393650  0.12415309  1
  V  V80  1  0.87737571  0.87409831  -0.00426391  1
  V  V81  1  0.12456411  0.87307066  0.75185142  1
  V  V82  1  0.25183589  0.25116088  -0.00391121  1
  V  V83  1  0.50293185  0.12860345  0.12010260  1
  V  V84  1  0.49853193  0.26028196  0.74606609  1
  Zn  Zn85  1  0.35566817  0.48025228  0.84359582  1
  Zn  Zn86  1  0.49538995  0.74838494  0.75115082  1
  Zn  Zn87  1  0.61713483  0.13616310  0.50157733  1
  Zn  Zn88  1  0.37515789  0.87433618  0.00064688  1
  Zn  Zn89  1  0.13605336  0.49758632  0.62688770  1
  Zn  Zn90  1  0.12532155  0.25014196  0.87318383  1
  Zn  Zn91  1  0.12390778  0.75243131  0.37695480  1
  Zn  Zn92  1  0.75031997  0.00156465  0.25162444  1
  Zn  Zn93  1  0.88176705  0.37006941  0.50599050  1
  Zn  Zn94  1  0.62136572  0.49215847  0.13095612  1
  Zn  Zn95  1  0.50068533  0.00087780  -0.00113037  1
  Zn  Zn96  1  -0.00172289  0.87682933  0.37544692  1
  Zn  Zn97  1  -0.00099005  0.49605962  0.50669136  1
  Zn  Zn98  1  0.00193900  0.62209467  0.62744000  1
  Zn  Zn99  1  0.24522147  0.75841675  0.50181540  1
  Zn  Zn100  1  0.87153063  0.62664456  0.25379710  1
  Zn  Zn101  1  0.62071759  0.37970543  0.75319023  1
  Zn  Zn102  1  0.37986691  0.37524997  -0.00684862  1
  Zn  Zn103  1  0.49906263  0.87069846  0.37209293  1
  Zn  Zn104  1  0.74946053  0.87495573  0.12653197  1
  Zn  Zn105  1  0.87754731  0.13001801  0.25546529  1
  Zn  Zn106  1  0.25084337  0.12205785  0.87283291  1
  Zn  Zn107  1  0.18843614  0.18601873  0.18457850  1
  Zn  Zn108  1  0.18771590  0.18773544  0.68988271  1
  Zn  Zn109  1  0.18686481  0.68544340  0.19023583  1
  Zn  Zn110  1  0.18955514  0.68427961  0.68719546  1
  Zn  Zn111  1  0.69316464  0.18642643  0.18485474  1
  Zn  Zn112  1  0.68767989  0.19126308  0.68677578  1
  Zn  Zn113  1  0.68821414  0.68577901  0.19013166  1
  Zn  Zn114  1  0.68504129  0.68385304  0.68451927  1
  Zn  Zn115  1  0.31251948  0.30840445  0.30909717  1
  Zn  Zn116  1  0.31667434  0.30374071  0.81365798  1
  Zn  Zn117  1  0.31409190  0.81154853  0.31285377  1
  Zn  Zn118  1  0.30975442  0.81284335  0.81243350  1
  Zn  Zn119  1  0.80829576  0.31480560  0.31480585  1
  Zn  Zn120  1  0.80990210  0.31478926  0.81100654  1
  Zn  Zn121  1  0.80785136  0.81589487  0.31276250  1
  Zn  Zn122  1  0.81056895  0.81454878  0.81697261  1
  Zn  Zn123  1  0.16671534  0.43546794  0.43810370  1
  Zn  Zn124  1  0.18698562  0.43839522  0.93472033  1
  Zn  Zn125  1  0.18745690  0.94273569  0.43597485  1
  Zn  Zn126  1  0.18905326  0.93074150  0.93493469  1
  Zn  Zn127  1  0.69043232  0.43621532  0.43858579  1
  Zn  Zn128  1  0.68413020  0.43488455  0.94110597  1
  Zn  Zn129  1  0.68656833  0.93757569  0.43681802  1
  Zn  Zn130  1  0.68895924  0.93601684  0.93767764  1
  Zn  Zn131  1  0.31400325  0.06347593  0.06035149  1
  Zn  Zn132  1  0.31024315  0.06533683  0.56076564  1
  Zn  Zn133  1  0.31602093  0.56200782  0.06204023  1
  Zn  Zn134  1  0.30908048  0.56798152  0.57303243  1
  Zn  Zn135  1  0.81414828  0.06476208  0.06440968  1
  Zn  Zn136  1  0.80962291  0.06631657  0.56288830  1
  Zn  Zn137  1  0.81382825  0.55961526  0.06827824  1
  Zn  Zn138  1  0.81610589  0.55945336  0.56609048  1
  Zn  Zn139  1  0.43541153  0.43721125  0.18883836  1
  Zn  Zn140  1  0.41936353  0.44302628  0.67626326  1
  Zn  Zn141  1  0.44236011  0.93849621  0.18803502  1
  Zn  Zn142  1  0.43991255  0.93184356  0.68610247  1
  Zn  Zn143  1  0.93218482  0.43905733  0.18882002  1
  Zn  Zn144  1  0.94020286  0.44375935  0.68852715  1
  Zn  Zn145  1  0.93647365  0.93885852  0.18522998  1
  Zn  Zn146  1  0.93929313  0.93668180  0.68697168  1
  Zn  Zn147  1  0.06200700  0.06379641  0.31421427  1
  Zn  Zn148  1  0.05980460  0.06147938  0.81238891  1
  Zn  Zn149  1  0.06352126  0.56123905  0.31390235  1
  Zn  Zn150  1  0.06353442  0.56522521  0.81447453  1
  Zn  Zn151  1  0.56147039  0.06245523  0.31067372  1
  Zn  Zn152  1  0.56191666  0.06273286  0.81316981  1
  Zn  Zn153  1  0.56243693  0.55876757  0.31301391  1
  Zn  Zn154  1  0.52460252  0.54171884  0.78959363  1
  Zn  Zn155  1  0.44117699  0.19190878  0.43682091  1
  Zn  Zn156  1  0.44042513  0.18802251  0.93161023  1
  Zn  Zn157  1  0.43828456  0.68785692  0.44159822  1
  Zn  Zn158  1  0.43954428  0.68621048  0.94368827  1
  Zn  Zn159  1  0.93376386  0.19288408  0.43955719  1
  Zn  Zn160  1  0.93647913  0.18667532  0.93712321  1
  Zn  Zn161  1  0.93748311  0.68829719  0.43773797  1
  Zn  Zn162  1  0.93906348  0.68587783  0.93658554  1
  Zn  Zn163  1  0.06208317  0.31386013  0.06257795  1
  Zn  Zn164  1  0.06071388  0.31617078  0.56375898  1
  Zn  Zn165  1  0.06256151  0.81238334  0.06256836  1
  Zn  Zn166  1  0.06048762  0.81116279  0.56591805  1
  Zn  Zn167  1  0.56617947  0.30894682  0.05725991  1
  Zn  Zn168  1  0.56170070  0.31541258  0.56642508  1
  Zn  Zn169  1  0.56213408  0.81115665  0.06332323  1
  Zn  Zn170  1  0.56151377  0.81759636  0.55564244  1
  O  O171  1  0.11965729  0.12000143  0.11428838  1
  O  O172  1  0.11670882  0.12040767  0.61944045  1
  O  O173  1  0.11253465  0.61954338  0.12832009  1
  O  O174  1  0.12430812  0.63144965  0.61144048  1
  O  O175  1  0.62164180  0.12130367  0.11375571  1
  O  O176  1  0.63023238  0.11117410  0.62437596  1
  O  O177  1  0.61737838  0.62502864  0.12016204  1
  O  O178  1  0.62196510  0.61293419  0.61930112  1
  O  O179  1  0.38133882  0.37848591  0.37300270  1
  O  O180  1  0.36776160  0.37566214  0.88081628  1
  O  O181  1  0.37698620  0.88219202  0.37927709  1
  O  O182  1  0.38254743  0.88315675  0.87366553  1
  O  O183  1  0.88582647  0.37914039  0.37638443  1
  O  O184  1  0.87869451  0.38159125  0.88152468  1
  O  O185  1  0.87421694  0.88466967  0.38231987  1
  O  O186  1  0.87176944  0.88626816  0.88708204  1
  O  O187  1  0.25533226  0.01078532  0.36721568  1
  O  O188  1  0.25826470  -0.00103298  0.86754479  1
  O  O189  1  0.25651180  0.50177519  0.37098078  1
  O  O190  1  0.25041653  0.51851285  0.88202893  1
  O  O191  1  0.75783426  0.01020743  0.37772792  1
  O  O192  1  0.75641106  -0.00391797  0.86170413  1
  O  O193  1  0.75926589  0.49116341  0.36336554  1
  O  O194  1  0.75797321  0.49535373  0.87078769  1
  O  O195  1  0.24546979  0.49385843  0.12854261  1
  O  O196  1  0.24748185  0.50794988  0.63762559  1
  O  O197  1  0.24454423  0.99601037  0.12926353  1
  O  O198  1  0.23588137  1.00483594  0.62995368  1
  O  O199  1  0.75111398  0.48996798  0.13677865  1
  O  O200  1  0.74281994  0.49767414  0.63353988  1
  O  O201  1  0.73857115  1.00109672  0.12555204  1
  O  O202  1  0.74602876  0.99417389  0.63444086  1
  O  O203  1  -0.00166171  0.37667155  0.26187766  1
  O  O204  1  -0.00273006  0.36877114  0.76078338  1
  O  O205  1  0.00720666  0.86874269  0.24803800  1
  O  O206  1  0.00484794  0.86335273  0.74971744  1
  O  O207  1  0.49685863  0.36870742  0.26012027  1
  O  O208  1  0.49963298  0.36145945  0.74727343  1
  O  O209  1  0.51521039  0.87625589  0.25102511  1
  O  O210  1  0.50817250  0.87163190  0.76135622  1
  O  O211  1  0.49751951  0.13190947  0.23864760  1
  O  O212  1  0.48752208  0.12185336  0.74730206  1
  O  O213  1  0.49068086  0.61902149  0.24400847  1
  O  O214  1  0.51358234  0.63662872  0.72631712  1
  O  O215  1  0.99931732  0.11824231  0.23416849  1
  O  O216  1  0.99304134  0.13176745  0.74485553  1
  O  O217  1  0.99900922  0.63401941  0.24401659  1
  O  O218  1  0.99209104  0.63655393  0.75220424  1
  O  O219  1  0.36776584  0.24624007  0.00502540  1
  O  O220  1  0.37663065  0.23892105  0.51601080  1
  O  O221  1  0.36777270  0.75128649  0.01380999  1
  O  O222  1  0.37241353  0.76132166  0.50519814  1
  O  O223  1  0.87783497  0.26092103  0.00427634  1
  O  O224  1  0.85882149  0.25155806  0.50359761  1
  O  O225  1  0.86977168  0.75633233  0.00088085  1
  O  O226  1  0.86498135  0.75524968  0.50282081  1
  O  O227  1  0.12266582  0.24157236  0.49391323  1
  O  O228  1  0.13121415  0.24113062  0.99907713  1
  O  O229  1  0.12627926  0.74675812  0.49659443  1
  O  O230  1  0.13292374  0.75692878  0.99141261  1
  O  O231  1  0.64015243  0.25025380  0.50853359  1
  O  O232  1  0.62091412  0.23725805  0.98434532  1
  O  O233  1  0.63873529  0.75601838  0.48844999  1
  O  O234  1  0.63273563  0.74348203  0.99644761  1
  O  O235  1  0.49702044  0.24589830  0.12893427  1
  O  O236  1  0.49502676  0.24778171  0.63912655  1
  O  O237  1  0.49210972  0.73724829  0.12025724  1
  O  O238  1  0.49554044  0.74658112  0.61924106  1
  O  O239  1  0.99185300  0.24139535  0.11794027  1
  O  O240  1  1.00150287  0.24144689  0.63415650  1
  O  O241  1  0.99655914  0.74434001  0.13272741  1
  O  O242  1  0.98894329  0.74811846  0.63543256  1
  O  O243  1  0.00850331  0.25769484  0.37469262  1
  O  O244  1  0.00055005  0.25859607  0.86961002  1
  O  O245  1  -0.00041002  0.75423971  0.36223117  1
  O  O246  1  0.00879504  0.74788137  0.86917488  1
  O  O247  1  0.49841728  0.26296670  0.36645265  1
  O  O248  1  0.51060461  0.23855871  0.85592282  1
  O  O249  1  0.51708304  0.75162965  0.38293047  1
  O  O250  1  0.50746863  0.75482270  0.87483297  1
  O  O251  1  0.23932271  0.11978106  0.48658731  1
  O  O252  1  0.24153258  0.13360949  1.00115527  1
  O  O253  1  0.24589679  0.62715632  0.48748104  1
  O  O254  1  0.24980693  0.63686386  1.00151140  1
  O  O255  1  0.74704239  0.13560819  0.49565105  1
  O  O256  1  0.73884426  0.12479644  0.99949865  1
  O  O257  1  0.75480694  0.63846065  0.50394721  1
  O  O258  1  0.73954136  0.62930194  1.00677785  1
  O  O259  1  0.24658089  0.36229521  0.00509118  1
  O  O260  1  0.26360613  0.38849950  0.48220432  1
  O  O261  1  0.25275476  0.86535846  0.00817728  1
  O  O262  1  0.26289296  0.87972102  0.49517899  1
  O  O263  1  0.76071188  0.38281919  0.01166594  1
  O  O264  1  0.75298621  0.36662190  0.50803320  1
  O  O265  1  0.75739049  0.86677665  0.00324997  1
  O  O266  1  0.75684191  0.87131937  0.50605649  1
  O  O267  1  0.14023983  0.50605683  0.24401127  1
  O  O268  1  0.12049293  0.48422950  0.75515238  1
  O  O269  1  0.12931085  0.99509287  0.24436097  1
  O  O270  1  0.12939581  0.99462451  0.74534937  1
  O  O271  1  0.63970081  0.49990387  0.24945643  1
  O  O272  1  0.62801450  0.50036919  0.74427994  1
  O  O273  1  0.62639717  0.99439820  0.24103347  1
  O  O274  1  0.63260166  0.99542321  0.74567484  1
  O  O275  1  0.37179983  0.00746885  0.25374416  1
  O  O276  1  0.36955416  0.00326791  0.75111364  1
  O  O277  1  0.36140101  0.51250894  0.24267619  1
  O  O278  1  0.41627146  0.51455873  0.75813535  1
  O  O279  1  0.87509842  0.00010108  0.26341685  1
  O  O280  1  0.87116384  0.00394044  0.75723797  1
  O  O281  1  0.86694877  0.50221933  0.25883269  1
  O  O282  1  0.86750519  0.50803358  0.76016312  1
  O  O283  1  0.11392388  0.36146648  0.37104543  1
  O  O284  1  0.11445382  0.37313586  0.86827437  1
  O  O285  1  0.12249297  0.87836406  0.36232433  1
  O  O286  1  0.12965598  0.86321345  0.86093085  1
  O  O287  1  0.61682529  0.37296662  0.37251526  1
  O  O288  1  0.62556191  0.35873312  0.87514361  1
  O  O289  1  0.62467625  0.86851294  0.36746655  1
  O  O290  1  0.61926699  0.86709001  0.87212431  1
  O  O291  1  0.38451614  0.12969303  0.12809904  1
  O  O292  1  0.37327139  0.12515300  0.63603116  1
  O  O293  1  0.38141207  0.63148031  0.13295121  1
  O  O294  1  0.38673423  0.64479687  0.61425284  1
  O  O295  1  0.88239565  0.13422042  0.12548848  1
  O  O296  1  0.88758086  0.11648916  0.63487371  1
  O  O297  1  0.88712141  0.63206121  0.12674978  1
  O  O298  1  0.87469400  0.63055508  0.64032387  1
  O  O299  1  0.25395744  0.25561953  0.11894050  1
  O  O300  1  0.26545457  0.24434765  0.63029648  1
  O  O301  1  0.25451437  0.75363687  0.12132458  1
  O  O302  1  0.26404337  0.74789342  0.62176767  1
  O  O303  1  0.76173712  0.25855239  0.12661913  1
  O  O304  1  0.74925416  0.26096748  0.61972265  1
  O  O305  1  0.75589953  0.74964576  0.11472774  1
  O  O306  1  0.75238930  0.75503260  0.61509119  1
  O  O307  1  0.23466763  0.24376526  0.36818913  1
  O  O308  1  0.24613022  0.24094097  0.88359788  1
  O  O309  1  0.24585174  0.74232491  0.37592526  1
  O  O310  1  0.24524381  0.74420247  0.88420165  1
  O  O311  1  0.75210146  0.24369740  0.38696299  1
  O  O312  1  0.73104766  0.24546721  0.86138653  1
  O  O313  1  0.74473479  0.75101526  0.38700115  1
  O  O314  1  0.74315848  0.75251649  0.88894800  1
  O  O315  1  0.00610940  0.11780075  0.00668936  1
  O  O316  1  0.00521634  0.12320304  0.50811903  1
  O  O317  1  -0.00429090  0.61552463  0.00868494  1
  O  O318  1  0.00846975  0.62549812  0.50177230  1
  O  O319  1  0.50540279  0.12529035  0.01055963  1
  O  O320  1  0.50200495  0.11094158  0.49334095  1
  O  O321  1  0.51080517  0.61779833  0.00871862  1
  O  O322  1  0.50121587  0.61354222  0.50337929  1
  O  O323  1  0.50412416  0.38113905  0.48552964  1
  O  O324  1  0.50045748  0.38997907  1.01036530  1
  O  O325  1  0.48905061  0.88761899  0.49469991  1
  O  O326  1  0.49907591  0.87613469  0.98880559  1
  O  O327  1  0.99966307  0.37579868  0.48853618  1
  O  O328  1  0.99273752  0.38024474  0.98983312  1
  O  O329  1  0.99091279  0.88146764  0.50026555  1
  O  O330  1  0.99143441  0.88390555  1.00483576  1
  O  O331  1  0.50298370  0.48696079  0.38014499  1
  O  O332  1  0.51491820  0.50056306  0.89598341  1
  O  O333  1  0.49137666  0.99904629  0.37942316  1
  O  O334  1  0.49384964  0.99082457  0.87573414  1
  O  O335  1  0.99465707  0.48746422  0.37434893  1
  O  O336  1  0.99021655  0.49557490  0.88113410  1
  O  O337  1  0.99250110  1.00116703  0.38330422  1
  O  O338  1  0.99283517  1.00174316  0.88671325  1
  O  O339  1  0.00429694  0.00641431  0.11372553  1
  O  O340  1  0.00957808  0.00775744  0.62241152  1
  O  O341  1  0.00184314  0.50575066  0.11961537  1
  O  O342  1  0.01011636  0.50483106  0.62539952  1
  O  O343  1  0.51147962  0.00922677  0.12257417  1
  O  O344  1  0.50946511  -0.00568846  0.61717188  1
  O  O345  1  0.50122869  0.51031647  0.12076426  1
  O  O346  1  0.50640219  0.50642632  0.61118295  1
  O  O347  1  0.25554983  0.38339503  0.24017872  1
  O  O348  1  0.23557763  0.36822032  0.75856059  1
  O  O349  1  0.24308037  0.88059649  0.24453151  1
  O  O350  1  0.24257378  0.88736287  0.75052751  1
  O  O351  1  0.75717085  0.38600861  0.23989641  1
  O  O352  1  0.74702299  0.38829225  0.74576104  1
  O  O353  1  0.73852621  0.88027698  0.24607465  1
  O  O354  1  0.74701025  0.88193721  0.74378231  1
  O  O355  1  0.25497408  0.12127564  0.25681827  1
  O  O356  1  0.25727023  0.11166064  0.75193142  1
  O  O357  1  0.25432356  0.61962963  0.26195194  1
  O  O358  1  0.25471094  0.63272097  0.76490296  1
  O  O359  1  0.75473870  0.12355593  0.25977878  1
  O  O360  1  0.76331971  0.11794083  0.74213992  1
  O  O361  1  0.75436050  0.60723011  0.24380517  1
  O  O362  1  0.75539052  0.61421210  0.74945363  1
  O  O363  1  0.36649475  0.12415197  0.37009934  1
  O  O364  1  0.37593809  0.11168953  0.86453784  1
  O  O365  1  0.36890285  0.63209855  0.36541055  1
  O  O366  1  0.36133968  0.63183836  0.88031891  1
  O  O367  1  0.86874947  0.11945761  0.37556493  1
  O  O368  1  0.87863934  0.11268241  0.86717050  1
  O  O369  1  0.88121009  0.61063567  0.37338080  1
  O  O370  1  0.87555703  0.61732236  0.86636444  1
  O  O371  1  0.13637747  0.38015550  0.12253956  1
  O  O372  1  0.12260659  0.37340324  0.64211991  1
  O  O373  1  0.12919603  0.88044848  0.13461026  1
  O  O374  1  0.11918905  0.88405711  0.63754643  1
  O  O375  1  0.63916131  0.37136851  0.12084297  1
  O  O376  1  0.63454011  0.38784388  0.62877744  1
  O  O377  1  0.62483521  0.88328340  0.12933185  1
  O  O378  1  0.63081612  0.88210417  0.63007881  1
  O  O379  1  0.12054564  0.24322362  0.25864061  1
  O  O380  1  0.11259372  0.25579075  0.75303259  1
  O  O381  1  0.11689297  0.75916046  0.25039110  1
  O  O382  1  0.11793517  0.75587451  0.75293922  1
  O  O383  1  0.61377748  0.24561131  0.24420149  1
  O  O384  1  0.61427176  0.24952306  0.75504715  1
  O  O385  1  0.63430402  0.75626230  0.26496181  1
  O  O386  1  0.63055835  0.75580875  0.75916438  1
  O  O387  1  0.38245365  0.24336708  0.24140102  1
  O  O388  1  0.38436333  0.23685336  0.74485984  1
  O  O389  1  0.36945161  0.74075769  0.23810141  1
  O  O390  1  0.37700721  0.75872272  0.73413399  1
  O  O391  1  0.87614153  0.25115250  0.23965679  1
  O  O392  1  0.88473728  0.24131806  0.75748092  1
  O  O393  1  0.88068382  0.75111751  0.24462549  1
  O  O394  1  0.87823889  0.74525597  0.75146029  1
  O  O395  1  0.38296622  0.50358989  0.49644996  1
  O  O396  1  0.39169216  0.50242487  1.00003435  1
  O  O397  1  0.37969623  0.99669158  0.49581979  1
  O  O398  1  0.37711669  0.99742541  0.98955649  1
  O  O399  1  0.87603861  0.49548376  0.49180083  1
  O  O400  1  0.88245769  0.49363240  0.99459992  1
  O  O401  1  0.87865950  0.99723664  0.49300654  1
  O  O402  1  0.88002917  0.99569105  0.99467642  1
  O  O403  1  0.11940527  0.00272047  0.00199598  1
  O  O404  1  0.11909107  0.00781262  0.50657246  1
  O  O405  1  0.10980616  0.49343972  0.00581804  1
  O  O406  1  0.11981677  0.51240190  0.50247782  1
  O  O407  1  0.62477591  0.01053179  0.00368930  1
  O  O408  1  0.61728039  -0.00144027  0.50900722  1
  O  O409  1  0.62119771  0.50648889  0.00906849  1
  O  O410  1  0.61808619  0.49657698  0.50492356  1
  O  O411  1  0.36319161  0.36993102  0.11863011  1
  O  O412  1  0.37630255  0.35926612  0.62038055  1
  O  O413  1  0.37222752  0.86781508  0.12687539  1
  O  O414  1  0.37987556  0.86314993  0.61524098  1
  O  O415  1  0.87233152  0.36838756  0.11740156  1
  O  O416  1  0.86081220  0.38478851  0.62742073  1
  O  O417  1  0.87324948  0.86974603  0.11391606  1
  O  O418  1  0.86848279  0.86931743  0.62019903  1
  O  O419  1  0.12760464  0.13538482  0.38070323  1
  O  O420  1  0.12446355  0.12333204  0.88694275  1
  O  O421  1  0.13260352  0.62661793  0.38378552  1
  O  O422  1  0.13521719  0.63889956  0.87118947  1
  O  O423  1  0.63626448  0.11999195  0.37822256  1
  O  O424  1  0.62409230  0.12687505  0.88601232  1
  O  O425  1  0.62550713  0.63787934  0.37057410  1
  O  O426  1  0.62118765  0.63588709  0.88581591  1
