# generated using pymatgen
data_V85Zn86O256
_symmetry_space_group_name_H-M   'P 1'
_cell_length_a   16.92824254
_cell_length_b   16.93641171
_cell_length_c   16.92944158
_cell_angle_alpha   89.99598688
_cell_angle_beta   90.04001811
_cell_angle_gamma   90.07471656
_symmetry_Int_Tables_number   1
_chemical_formula_structural   V85Zn86O256
_chemical_formula_sum   'V85 Zn86 O256'
_cell_volume   4853.72796914
_cell_formula_units_Z   1
loop_
 _symmetry_equiv_pos_site_id
 _symmetry_equiv_pos_as_xyz
  1  'x, y, z'
loop_
 _atom_site_type_symbol
 _atom_site_label
 _atom_site_symmetry_multiplicity
 _atom_site_fract_x
 _atom_site_fract_y
 _atom_site_fract_z
 _atom_site_occupancy
  V  V0  1  0.00296178  0.25820553  0.74474258  1
  V  V1  1  0.86450163  0.12278783  0.24928422  1
  V  V2  1  0.24967385  0.62516458  0.37551565  1
  V  V3  1  0.24085821  0.37694130  0.12341441  1
  V  V4  1  -0.00175381  0.87356522  0.37013954  1
  V  V5  1  -0.00018967  0.75052716  0.75261978  1
  V  V6  1  0.24088560  -0.00091676  0.24776460  1
  V  V7  1  0.31089419  0.80836933  -0.05158913  1
  V  V8  1  0.12558406  0.88133347  0.73226104  1
  V  V9  1  0.00052370  0.11535602  0.12160910  1
  V  V10  1  0.74105795  0.36500301  0.62642780  1
  V  V11  1  0.62324664  0.49920179  0.12546565  1
  V  V12  1  0.87680970  0.00187532  0.37548471  1
  V  V13  1  0.12069361  0.11775103  -0.00550549  1
  V  V14  1  -0.00301358  0.62216993  0.62679604  1
  V  V15  1  0.37858453  0.12404471  0.75822936  1
  V  V16  1  0.62343047  0.00855772  0.12890691  1
  V  V17  1  0.62614742  0.62547475  0.00152704  1
  V  V18  1  0.11813707  0.74797341  0.36895185  1
  V  V19  1  0.75036040  0.62509722  0.87594245  1
  V  V20  1  0.86794516  0.00766096  0.87981204  1
  V  V21  1  0.24859356  0.49712722  0.74955693  1
  V  V22  1  0.00638397  0.50163213  0.00786707  1
  V  V23  1  0.75046067  0.49806426  0.25279190  1
  V  V24  1  0.37303954  0.49863329  0.37245203  1
  V  V25  1  0.87484263  0.62997848  0.25372148  1
  V  V26  1  0.00566973  0.62514593  0.13490778  1
  V  V27  1  0.74310586  0.74862669  0.50062820  1
  V  V28  1  0.50243959  0.37220044  0.37283990  1
  V  V29  1  0.26192126  0.86291761  0.13022950  1
  V  V30  1  0.62371156  0.87793745  0.75186664  1
  V  V31  1  0.75190838  0.37405127  0.12482090  1
  V  V32  1  0.74799114  0.88086765  0.13539343  1
  V  V33  1  0.87703762  0.24879810  0.12469859  1
  V  V34  1  0.12335365  0.62424453  0.50216468  1
  V  V35  1  0.37810015  0.37091931  0.00131740  1
  V  V36  1  0.88009386  0.75156267  0.12849653  1
  V  V37  1  0.75079942  0.75197029  0.00210970  1
  V  V38  1  0.62213263  0.12365983  -0.00657574  1
  V  V39  1  0.37505473  0.62456914  0.74061542  1
  V  V40  1  0.61535430  0.75746368  0.36801995  1
  V  V41  1  0.49790825  0.75169690  0.74338375  1
  V  V42  1  0.87239156  0.62515078  0.75250317  1
  V  V43  1  0.37729502  0.49622766  0.87266472  1
  V  V44  1  0.62896767  0.24541779  0.38720562  1
  V  V45  1  0.24708342  0.37173543  0.62970185  1
  V  V46  1  0.25616721  0.00010820  0.73917158  1
  V  V47  1  0.63222697  0.25025535  0.86418505  1
  V  V48  1  0.01010500  0.37904711  0.87322181  1
  V  V49  1  0.90058250  0.10692798  0.73346461  1
  V  V50  1  0.87595216  0.24892667  0.61811253  1
  V  V51  1  0.87175786  0.74920127  0.62538725  1
  V  V52  1  0.23894748  0.12561994  0.37397236  1
  V  V53  1  0.50362588  0.00870524  0.49031257  1
  V  V54  1  0.00415476  0.37189922  0.37914555  1
  V  V55  1  0.37620628  0.24466718  0.62216068  1
  V  V56  1  0.12891644  0.24777024  0.86937837  1
  V  V57  1  0.38661170  0.87265374  0.50647596  1
  V  V58  1  0.12416972  0.75457463  0.88036545  1
  V  V59  1  0.87680105  0.50055386  0.87582784  1
  V  V60  1  0.37311222  0.37233270  0.49761170  1
  V  V61  1  0.62382325  0.00677601  0.62117466  1
  V  V62  1  0.00870857  0.24788482  0.25152691  1
  V  V63  1  0.74608965  0.00896236  0.75560219  1
  V  V64  1  0.50203280  0.62574776  0.61633070  1
  V  V65  1  0.49516318  0.63380012  0.12971336  1
  V  V66  1  0.25042058  0.75955070  0.51469203  1
  V  V67  1  0.23812795  0.24789982  0.49455010  1
  V  V68  1  0.48839204  -0.00101762  -0.00647324  1
  V  V69  1  0.50223253  0.24417170  0.24237041  1
  V  V70  1  0.87866042  0.88112041  0.00231471  1
  V  V71  1  0.74640929  0.12388181  0.39245215  1
  V  V72  1  0.12232231  0.49440649  0.63079569  1
  V  V73  1  0.74141445  0.62414400  0.38069573  1
  V  V74  1  0.62624643  0.50241649  0.62610467  1
  V  V75  1  0.11331762  0.10894080  0.51240632  1
  V  V76  1  0.00234274  0.88642952  0.87956318  1
  V  V77  1  0.75235855  0.24290542  -0.00593549  1
  V  V78  1  0.50724727  0.37402155  0.86644775  1
  V  V79  1  0.25271397  0.62534564  0.87749940  1
  V  V80  1  0.13258911  0.62617233  0.00643963  1
  V  V81  1  0.37328491  0.12532939  0.24686036  1
  V  V82  1  0.87738725  0.37443670  -0.00128798  1
  V  V83  1  0.87733397  0.87957815  0.50096526  1
  V  V84  1  0.62411819  0.75178374  0.87429610  1
  Zn  Zn85  1  0.86780520  0.37392906  0.49782676  1
  Zn  Zn86  1  0.12447702  0.37844018  0.25091792  1
  Zn  Zn87  1  0.44549167  0.79358528  0.21016662  1
  Zn  Zn88  1  0.74274113  0.49177709  0.75478957  1
  Zn  Zn89  1  0.25105687  0.24535739  -0.00122161  1
  Zn  Zn90  1  0.37425653  -0.00634649  0.37205783  1
  Zn  Zn91  1  0.61148359  0.88044197  0.25211036  1
  Zn  Zn92  1  -0.00532895  0.49783677  0.50109217  1
  Zn  Zn93  1  0.37524774  0.62842092  0.24981895  1
  Zn  Zn94  1  0.12263169  -0.00834209  0.11541408  1
  Zn  Zn95  1  0.48603969  0.87847228  0.87493531  1
  Zn  Zn96  1  0.25244209  0.11393580  0.87655617  1
  Zn  Zn97  1  0.50277720  0.49802888  -0.00101485  1
  Zn  Zn98  1  0.50642154  0.25080901  0.74406041  1
  Zn  Zn99  1  0.50403600  0.50426952  0.49523019  1
  Zn  Zn100  1  0.37712436  0.24755301  0.12329717  1
  Zn  Zn101  1  0.50510826  0.12907898  0.62037318  1
  Zn  Zn102  1  0.11800897  0.87015861  0.24319033  1
  Zn  Zn103  1  0.62818991  0.36926297  0.25142471  1
  Zn  Zn104  1  0.24234354  0.50154859  0.24349812  1
  Zn  Zn105  1  0.74984251  0.87642139  0.62674500  1
  Zn  Zn106  1  0.87347489  0.49749808  0.37968877  1
  Zn  Zn107  1  0.18823367  0.18899338  0.18044660  1
  Zn  Zn108  1  0.18714572  0.18437749  0.68686434  1
  Zn  Zn109  1  0.19237443  0.68879602  0.19086944  1
  Zn  Zn110  1  0.18380696  0.68566716  0.69113477  1
  Zn  Zn111  1  0.68588250  0.18829124  0.18709203  1
  Zn  Zn112  1  0.69639846  0.18189449  0.68776386  1
  Zn  Zn113  1  0.68751311  0.68911137  0.18995875  1
  Zn  Zn114  1  0.68559037  0.68545937  0.68715167  1
  Zn  Zn115  1  0.31064800  0.31005629  0.30978626  1
  Zn  Zn116  1  0.31492698  0.30919037  0.81061810  1
  Zn  Zn117  1  0.30693357  0.81359558  0.32306957  1
  Zn  Zn118  1  0.31212403  0.81458979  0.77894958  1
  Zn  Zn119  1  0.81615130  0.30788406  0.31512515  1
  Zn  Zn120  1  0.81782174  0.30953772  0.80640433  1
  Zn  Zn121  1  0.80867606  0.81183059  0.31454194  1
  Zn  Zn122  1  0.81056037  0.81717420  0.81410396  1
  Zn  Zn123  1  0.18397445  0.43730585  0.43852392  1
  Zn  Zn124  1  0.18945119  0.43803595  0.94135939  1
  Zn  Zn125  1  0.18502944  0.93789150  0.43738583  1
  Zn  Zn126  1  0.19004751  0.94491557  0.93171171  1
  Zn  Zn127  1  0.68537327  0.43515641  0.44397898  1
  Zn  Zn128  1  0.68892556  0.43459727  0.93841268  1
  Zn  Zn129  1  0.69029164  0.93759199  0.43610380  1
  Zn  Zn130  1  0.68659153  0.93716149  0.94036753  1
  Zn  Zn131  1  0.30605027  0.06253770  0.06573777  1
  Zn  Zn132  1  0.31202943  0.06073118  0.55993852  1
  Zn  Zn133  1  0.31585392  0.55745299  0.06033365  1
  Zn  Zn134  1  0.31217282  0.56005182  0.55823446  1
  Zn  Zn135  1  0.80948188  0.06291269  0.06372044  1
  Zn  Zn136  1  0.81359012  0.05866444  0.56492045  1
  Zn  Zn137  1  0.81499489  0.56265555  0.06434694  1
  Zn  Zn138  1  0.80874663  0.55871942  0.56188075  1
  Zn  Zn139  1  0.43566684  0.43714536  0.18932913  1
  Zn  Zn140  1  0.43808498  0.43619967  0.68478973  1
  Zn  Zn141  1  0.43668071  0.95831287  0.18075058  1
  Zn  Zn142  1  0.43680445  0.93944641  0.67941861  1
  Zn  Zn143  1  0.93944590  0.43831908  0.19157524  1
  Zn  Zn144  1  0.93074199  0.43518359  0.68721720  1
  Zn  Zn145  1  0.93561551  0.93976004  0.19322479  1
  Zn  Zn146  1  0.93714010  0.93476434  0.68989339  1
  Zn  Zn147  1  0.05969253  0.06229689  0.31559224  1
  Zn  Zn148  1  0.06034017  0.06043489  0.79580959  1
  Zn  Zn149  1  0.06457118  0.55406580  0.31261989  1
  Zn  Zn150  1  0.06442925  0.56390158  0.81428783  1
  Zn  Zn151  1  0.56293391  0.06432161  0.31200921  1
  Zn  Zn152  1  0.55924606  0.06634932  0.81496684  1
  Zn  Zn153  1  0.56370756  0.56354829  0.31146638  1
  Zn  Zn154  1  0.56301919  0.56175508  0.80827405  1
  Zn  Zn155  1  0.43178031  0.18578633  0.43015277  1
  Zn  Zn156  1  0.44414356  0.18881389  0.93663321  1
  Zn  Zn157  1  0.43153685  0.69271388  0.43626012  1
  Zn  Zn158  1  0.44565866  0.68062344  0.93251479  1
  Zn  Zn159  1  0.94055847  0.18709114  0.43651470  1
  Zn  Zn160  1  0.94159164  0.18662015  0.93228706  1
  Zn  Zn161  1  0.93374817  0.68687357  0.43912659  1
  Zn  Zn162  1  0.94083709  0.68946086  0.94208043  1
  Zn  Zn163  1  0.06276857  0.30393683  0.05803226  1
  Zn  Zn164  1  0.06260723  0.30974455  0.56091374  1
  Zn  Zn165  1  0.06399538  0.81143247  0.06377526  1
  Zn  Zn166  1  0.05560580  0.80818005  0.55546142  1
  Zn  Zn167  1  0.56473645  0.31222947  0.05848892  1
  Zn  Zn168  1  0.56280968  0.31605449  0.56063678  1
  Zn  Zn169  1  0.56119630  0.82014945  0.05995051  1
  Zn  Zn170  1  0.56507445  0.81518483  0.56322815  1
  O  O171  1  0.11643818  0.12371572  0.11391888  1
  O  O172  1  0.12528212  0.12691461  0.61141538  1
  O  O173  1  0.11741974  0.63477241  0.11809012  1
  O  O174  1  0.11821643  0.61802720  0.62093228  1
  O  O175  1  0.63321423  0.11477105  0.11340408  1
  O  O176  1  0.62626030  0.11107830  0.62897316  1
  O  O177  1  0.61971694  0.61888387  0.12178186  1
  O  O178  1  0.61647750  0.61389481  0.62717896  1
  O  O179  1  0.38020170  0.37993127  0.37688048  1
  O  O180  1  0.38164393  0.37770384  0.88030608  1
  O  O181  1  0.35958793  0.88066347  0.40018113  1
  O  O182  1  0.36531138  0.85954436  0.87738799  1
  O  O183  1  0.88438835  0.37528600  0.37759034  1
  O  O184  1  0.88631824  0.38032403  0.88085336  1
  O  O185  1  0.87603406  0.88183470  0.38007512  1
  O  O186  1  0.88129524  0.88132314  0.88441121  1
  O  O187  1  0.24836991  0.00670390  0.36618203  1
  O  O188  1  0.24704846  -0.00037710  0.85171531  1
  O  O189  1  0.25670157  0.50680997  0.37907642  1
  O  O190  1  0.25537193  0.50357999  0.86822663  1
  O  O191  1  0.75867465  0.01391285  0.37853040  1
  O  O192  1  0.75642014  -0.00370585  0.87004020  1
  O  O193  1  0.74696580  0.50578140  0.36904209  1
  O  O194  1  0.75709552  0.50521372  0.87543472  1
  O  O195  1  0.25704184  0.48184334  0.12395712  1
  O  O196  1  0.24349349  0.49220715  0.62830889  1
  O  O197  1  0.24431529  0.98977771  0.13189514  1
  O  O198  1  0.24867122  1.00545460  0.63792120  1
  O  O199  1  0.74251158  0.49726469  0.13169111  1
  O  O200  1  0.73862552  0.49429610  0.62938983  1
  O  O201  1  0.73677374  0.99243023  0.11791246  1
  O  O202  1  0.74207181  0.99605447  0.63376479  1
  O  O203  1  -0.00109064  0.36625094  0.25839337  1
  O  O204  1  -0.00501172  0.36980823  0.76143063  1
  O  O205  1  -0.00189844  0.87359551  0.26423087  1
  O  O206  1  0.00997364  0.86916493  0.75896729  1
  O  O207  1  0.50105172  0.36818452  0.26068617  1
  O  O208  1  0.49395425  0.37126044  0.76251912  1
  O  O209  1  0.49856196  0.88476615  0.23971753  1
  O  O210  1  0.50232985  0.86875610  0.75181822  1
  O  O211  1  0.48847377  0.13263761  0.25589013  1
  O  O212  1  0.49184727  0.12755179  0.74357353  1
  O  O213  1  0.50069098  0.62224054  0.23370287  1
  O  O214  1  0.49303247  0.63148692  0.74183821  1
  O  O215  1  0.99293390  0.13180069  0.24491070  1
  O  O216  1  0.99594887  0.15339589  0.77236727  1
  O  O217  1  0.99119289  0.61926046  0.24143288  1
  O  O218  1  0.99401633  0.63168179  0.74780995  1
  O  O219  1  0.37624592  0.25945976  -0.00104497  1
  O  O220  1  0.36687446  0.25330767  0.50498726  1
  O  O221  1  0.37198717  0.74618064  -0.00445637  1
  O  O222  1  0.36137542  0.76067272  0.49937551  1
  O  O223  1  0.87019116  0.25306836  0.00188402  1
  O  O224  1  0.88116150  0.24875147  0.51460367  1
  O  O225  1  0.87042555  0.75693313  0.00884067  1
  O  O226  1  0.86424818  0.75527397  0.50629835  1
  O  O227  1  0.13610626  0.24381275  0.50184164  1
  O  O228  1  0.12529302  0.23800829  0.98703840  1
  O  O229  1  0.13066082  0.73832980  0.49859805  1
  O  O230  1  0.11985946  0.74072015  0.98799307  1
  O  O231  1  0.61968949  0.24924661  0.48648498  1
  O  O232  1  0.63341820  0.24261618  0.99327190  1
  O  O233  1  0.63772989  0.75778043  0.49225546  1
  O  O234  1  0.63017964  0.74659188  0.99509948  1
  O  O235  1  0.50192537  0.25575470  0.13857734  1
  O  O236  1  0.49182207  0.25011829  0.62414203  1
  O  O237  1  0.50402988  0.73785777  0.12162394  1
  O  O238  1  0.50974381  0.74169575  0.63554530  1
  O  O239  1  0.99353093  0.24175430  0.13062694  1
  O  O240  1  0.99265713  0.25945427  0.63596193  1
  O  O241  1  0.98756429  0.74134127  0.12196186  1
  O  O242  1  0.99193285  0.74186190  0.63178435  1
  O  O243  1  -0.00545783  0.26085967  0.36482640  1
  O  O244  1  0.00927825  0.26399734  0.87340969  1
  O  O245  1  0.00751790  0.75618497  0.38299933  1
  O  O246  1  0.00707865  0.75742751  0.87075842  1
  O  O247  1  0.50621873  0.25463546  0.36728027  1
  O  O248  1  0.51360303  0.25721527  0.87144967  1
  O  O249  1  0.51718396  0.74462869  0.38124552  1
  O  O250  1  0.50741708  0.75088273  0.86214253  1
  O  O251  1  0.24497918  0.13054171  0.49210327  1
  O  O252  1  0.24013588  0.12600523  0.99476501  1
  O  O253  1  0.24304677  0.63023447  0.49394643  1
  O  O254  1  0.24000962  0.61802097  0.99580041  1
  O  O255  1  0.75193415  0.12537418  0.49080785  1
  O  O256  1  0.74565932  0.13804682  1.00081767  1
  O  O257  1  0.75321399  0.63370486  0.49092125  1
  O  O258  1  0.74576877  0.63104588  0.99679960  1
  O  O259  1  0.25903061  0.37226773  0.00664181  1
  O  O260  1  0.25286581  0.36727420  0.50684154  1
  O  O261  1  0.25411737  0.87451281  0.00575910  1
  O  O262  1  0.24165130  0.86056372  0.50511290  1
  O  O263  1  0.75830825  0.36689939  0.00608315  1
  O  O264  1  0.75051737  0.37712007  0.51948264  1
  O  O265  1  0.76054470  0.86916669  0.00728767  1
  O  O266  1  0.76069537  0.86779087  0.50228805  1
  O  O267  1  0.12883111  0.49286380  0.24739335  1
  O  O268  1  0.13173475  0.50636816  0.73865136  1
  O  O269  1  0.13260658  0.99764423  0.24931282  1
  O  O270  1  0.13179056  0.98557606  0.74651052  1
  O  O271  1  0.63638723  0.49779956  0.24351531  1
  O  O272  1  0.62490418  0.50025669  0.73482367  1
  O  O273  1  0.62218927  1.00450448  0.23234703  1
  O  O274  1  0.62784179  0.99575974  0.74687565  1
  O  O275  1  0.35997627  0.00850009  0.25161692  1
  O  O276  1  0.36713366  0.00806069  0.74287910  1
  O  O277  1  0.36975059  0.50292292  0.26219620  1
  O  O278  1  0.36936551  0.50464369  0.75383700  1
  O  O279  1  0.87565982  0.01091381  0.26059330  1
  O  O280  1  0.85921710  -0.00824622  0.76343023  1
  O  O281  1  0.86340544  0.51006411  0.24968298  1
  O  O282  1  0.87477249  0.51027113  0.75849639  1
  O  O283  1  0.10986088  0.37465516  0.37521710  1
  O  O284  1  0.11562289  0.37072899  0.88050513  1
  O  O285  1  0.11401643  0.86560396  0.37678879  1
  O  O286  1  0.11767180  0.86962474  0.87407590  1
  O  O287  1  0.61882674  0.36708844  0.37368637  1
  O  O288  1  0.61818956  0.36567659  0.87971819  1
  O  O289  1  0.63208862  0.86231898  0.37015877  1
  O  O290  1  0.62353358  0.87031422  0.86434982  1
  O  O291  1  0.36586894  0.12870719  0.14090238  1
  O  O292  1  0.37474348  0.13637869  0.62752344  1
  O  O293  1  0.39255655  0.61630569  0.12385787  1
  O  O294  1  0.38154461  0.61475249  0.63530733  1
  O  O295  1  0.88082591  0.12776742  0.13084676  1
  O  O296  1  0.87050842  0.13318689  0.63096951  1
  O  O297  1  0.88103962  0.63291354  0.13211443  1
  O  O298  1  0.87700801  0.62873348  0.63314279  1
  O  O299  1  0.25519109  0.26149375  0.11912311  1
  O  O300  1  0.25543971  0.25637258  0.61841927  1
  O  O301  1  0.24964180  0.76352723  0.12554558  1
  O  O302  1  0.24626032  0.74164599  0.61277157  1
  O  O303  1  0.75658505  0.25497494  0.11710723  1
  O  O304  1  0.75616835  0.25864809  0.62776591  1
  O  O305  1  0.75950945  0.75594507  0.12108820  1
  O  O306  1  0.75313569  0.75182032  0.61869932  1
  O  O307  1  0.25329056  0.24121344  0.38355342  1
  O  O308  1  0.23728520  0.25091349  0.87369711  1
  O  O309  1  0.23692603  0.74088431  0.38920316  1
  O  O310  1  0.24743017  0.75165142  0.87975434  1
  O  O311  1  0.74353886  0.23539120  0.37121042  1
  O  O312  1  0.74598944  0.25947109  0.88318761  1
  O  O313  1  0.74406118  0.74219215  0.38247605  1
  O  O314  1  0.74475499  0.74596759  0.88169748  1
  O  O315  1  0.00517370  0.13009413  0.01042910  1
  O  O316  1  0.01499181  0.12533079  0.49479509  1
  O  O317  1  0.00851722  0.61944361  0.00982492  1
  O  O318  1  0.00689640  0.62378242  0.50816691  1
  O  O319  1  0.51311193  0.11730660  -0.00443677  1
  O  O320  1  0.49580329  0.11187490  0.49858657  1
  O  O321  1  0.50927730  0.62017274  0.00990194  1
  O  O322  1  0.49019208  0.62651480  0.51386090  1
  O  O323  1  0.49233262  0.37440404  0.48608994  1
  O  O324  1  0.49471774  0.37601607  0.98950861  1
  O  O325  1  0.49095924  0.87980670  0.50160942  1
  O  O326  1  0.50037931  0.89158360  0.99401362  1
  O  O327  1  0.99849282  0.37359769  0.48839123  1
  O  O328  1  0.99761399  0.38378313  0.99635439  1
  O  O329  1  0.98479276  0.86931482  0.48935822  1
  O  O330  1  0.98804799  0.86961030  0.99340597  1
  O  O331  1  0.49444528  0.49282206  0.37398702  1
  O  O332  1  0.49613744  0.49294764  0.87492929  1
  O  O333  1  0.49932519  1.00152243  0.38690523  1
  O  O334  1  0.50057927  0.99813549  0.88719432  1
  O  O335  1  0.99523425  0.48566066  0.37670393  1
  O  O336  1  0.99786943  0.49631944  0.88295987  1
  O  O337  1  0.98568044  0.99206871  0.37355392  1
  O  O338  1  0.99278641  0.98865337  0.86978403  1
  O  O339  1  0.00148264  0.01161511  0.13024268  1
  O  O340  1  -0.02243111  0.03902848  0.69501524  1
  O  O341  1  -0.00629769  0.51092369  0.11685061  1
  O  O342  1  0.00683031  0.50311904  0.62667315  1
  O  O343  1  0.51639254  0.00299988  0.10809479  1
  O  O344  1  0.50769797  0.00369987  0.61313694  1
  O  O345  1  0.51323409  0.50298376  0.12570574  1
  O  O346  1  0.50764782  0.50643962  0.62402322  1
  O  O347  1  0.24848100  0.37182805  0.23488063  1
  O  O348  1  0.25555598  0.37887254  0.73610873  1
  O  O349  1  0.24560764  0.88080995  0.24253375  1
  O  O350  1  0.23506550  0.88280958  0.74049410  1
  O  O351  1  0.75210377  0.38208596  0.24456683  1
  O  O352  1  0.75818695  0.37737898  0.73327241  1
  O  O353  1  0.74920733  0.87398426  0.23722206  1
  O  O354  1  0.73905260  0.88275966  0.74942419  1
  O  O355  1  0.24893125  0.12021166  0.25517416  1
  O  O356  1  0.25815918  0.11643836  0.74999819  1
  O  O357  1  0.24900328  0.62161746  0.26528561  1
  O  O358  1  0.25789794  0.62118539  0.75612112  1
  O  O359  1  0.76275726  0.12939348  0.25119908  1
  O  O360  1  0.76707629  0.11046863  0.74781978  1
  O  O361  1  0.75594331  0.61760049  0.25582671  1
  O  O362  1  0.75592216  0.62498074  0.75950934  1
  O  O363  1  0.36090142  0.12027214  0.36469168  1
  O  O364  1  0.37363817  0.13470228  0.86119026  1
  O  O365  1  0.36561404  0.61580147  0.37969787  1
  O  O366  1  0.37171575  0.61663445  0.86548434  1
  O  O367  1  0.86668263  0.12098235  0.37055362  1
  O  O368  1  0.88299788  0.10939144  0.86640710  1
  O  O369  1  0.86492534  0.62393112  0.36736195  1
  O  O370  1  0.87160075  0.62197250  0.87328881  1
  O  O371  1  0.13870787  0.37021211  0.11696224  1
  O  O372  1  0.13335793  0.38456590  0.61897848  1
  O  O373  1  0.13343442  0.87454645  0.12564188  1
  O  O374  1  0.11079128  0.87007803  0.63551066  1
  O  O375  1  0.63273667  0.38304849  0.12563857  1
  O  O376  1  0.63365967  0.38012818  0.62728304  1
  O  O377  1  0.63352037  0.88673096  0.12363723  1
  O  O378  1  0.62392760  0.88516370  0.63795553  1
  O  O379  1  0.11150585  0.25288396  0.24303451  1
  O  O380  1  0.11779035  0.25032583  0.75644172  1
  O  O381  1  0.12627708  0.74886464  0.26575861  1
  O  O382  1  0.12358248  0.75995585  0.76072895  1
  O  O383  1  0.61776909  0.24881709  0.25783451  1
  O  O384  1  0.62957768  0.24299835  0.76074590  1
  O  O385  1  0.62780823  0.75381368  0.26331789  1
  O  O386  1  0.61986642  0.75845569  0.75352897  1
  O  O387  1  0.38483037  0.24303759  0.25062843  1
  O  O388  1  0.37592662  0.24173544  0.73851552  1
  O  O389  1  0.36495500  0.74086610  0.26101000  1
  O  O390  1  0.38526637  0.73793756  0.74725500  1
  O  O391  1  0.88340737  0.24189173  0.24232929  1
  O  O392  1  0.88402414  0.24021738  0.73951090  1
  O  O393  1  0.86856298  0.73838532  0.24371396  1
  O  O394  1  0.87818737  0.74572931  0.74696084  1
  O  O395  1  0.37762219  0.49073511  0.48951066  1
  O  O396  1  0.37910644  0.48766813  0.99033308  1
  O  O397  1  0.38872846  0.99275178  0.50014481  1
  O  O398  1  0.39035002  1.01081799  1.00519550  1
  O  O399  1  0.87736960  0.49607526  0.49831391  1
  O  O400  1  0.88565684  0.49734568  0.99509073  1
  O  O401  1  0.87145765  0.98995335  0.49344720  1
  O  O402  1  0.86988790  0.99125575  0.99464620  1
  O  O403  1  0.12293303  0.01241317  -0.00384904  1
  O  O404  1  0.12520794  0.00913900  0.50261859  1
  O  O405  1  0.11434731  0.51096993  -0.00451419  1
  O  O406  1  0.12371816  0.51073707  0.51083778  1
  O  O407  1  0.62265065  0.00938187  0.00354219  1
  O  O408  1  0.61185756  -0.00974597  0.50639767  1
  O  O409  1  0.62785016  0.50648167  0.00964615  1
  O  O410  1  0.61961903  0.49585378  0.51756093  1
  O  O411  1  0.37209186  0.37247242  0.11533119  1
  O  O412  1  0.36828543  0.36613491  0.61809873  1
  O  O413  1  0.36260154  0.87672046  0.12962349  1
  O  O414  1  0.37022219  0.87741992  0.60714951  1
  O  O415  1  0.87235055  0.37020841  0.11848985  1
  O  O416  1  0.86538259  0.36583570  0.62246547  1
  O  O417  1  0.87196820  0.87067024  0.12119052  1
  O  O418  1  0.87630219  0.86922108  0.61904428  1
  O  O419  1  0.13466810  0.12159348  0.38242484  1
  O  O420  1  0.12267143  0.13177822  0.87662735  1
  O  O421  1  0.12682279  0.62815140  0.38508591  1
  O  O422  1  0.13354747  0.63470902  0.87977892  1
  O  O423  1  0.64021920  0.12811145  0.37216086  1
  O  O424  1  0.62720260  0.13487184  0.88287372  1
  O  O425  1  0.63581150  0.63422514  0.37003593  1
  O  O426  1  0.62957184  0.63009888  0.88063824  1
