# generated using pymatgen
data_V85Zn86O256
_symmetry_space_group_name_H-M   'P 1'
_cell_length_a   16.95016773
_cell_length_b   16.95371186
_cell_length_c   16.94729075
_cell_angle_alpha   90.04328152
_cell_angle_beta   90.00020936
_cell_angle_gamma   89.97989711
_symmetry_Int_Tables_number   1
_chemical_formula_structural   V85Zn86O256
_chemical_formula_sum   'V85 Zn86 O256'
_cell_volume   4870.11175963
_cell_formula_units_Z   1
loop_
 _symmetry_equiv_pos_site_id
 _symmetry_equiv_pos_as_xyz
  1  'x, y, z'
loop_
 _atom_site_type_symbol
 _atom_site_label
 _atom_site_symmetry_multiplicity
 _atom_site_fract_x
 _atom_site_fract_y
 _atom_site_fract_z
 _atom_site_occupancy
  V  V0  1  0.49912767  0.00188754  0.49925829  1
  V  V1  1  0.75105112  0.36415178  0.62542159  1
  V  V2  1  0.49668944  0.37693914  0.87637393  1
  V  V3  1  0.87656838  0.26368051  0.12739502  1
  V  V4  1  0.37477813  0.87657838  0.50111193  1
  V  V5  1  0.62770151  0.24827910  0.37384871  1
  V  V6  1  0.24368433  0.37704171  0.12598785  1
  V  V7  1  0.00050693  -0.00250431  0.50217430  1
  V  V8  1  0.00202295  0.63027334  0.63131693  1
  V  V9  1  0.39147048  -0.00321385  0.87981930  1
  V  V10  1  0.87053613  0.87011928  0.49732971  1
  V  V11  1  0.74935254  -0.00064559  0.75211480  1
  V  V12  1  0.11664899  0.37117836  0.26691184  1
  V  V13  1  0.63339168  0.49800135  0.12267207  1
  V  V14  1  0.74888889  0.11991961  0.36507285  1
  V  V15  1  0.63401556  0.74614649  0.87600145  1
  V  V16  1  -0.00203341  0.13601300  0.62868966  1
  V  V17  1  -0.00381667  -0.00483689  0.00430509  1
  V  V18  1  0.36918284  0.12033552  0.74991625  1
  V  V19  1  0.50109844  0.75495930  0.75100064  1
  V  V20  1  0.49811710  0.11129928  0.12208065  1
  V  V21  1  0.37552899  0.24980381  0.12376363  1
  V  V22  1  0.80696783  0.56774752  0.80486705  1
  V  V23  1  0.63271069  0.37397374  0.24297716  1
  V  V24  1  -0.00843070  0.62429218  0.12091557  1
  V  V25  1  -0.01239038  0.48830641  -0.01385010  1
  V  V26  1  0.75346762  0.26455066  0.00406411  1
  V  V27  1  0.63773207  -0.00561007  0.12745731  1
  V  V28  1  0.87059264  0.63245970  0.25794565  1
  V  V29  1  0.37567631  0.62874681  0.76227531  1
  V  V30  1  0.37524807  0.62561871  0.25259640  1
  V  V31  1  0.87469624  0.74988572  0.62868046  1
  V  V32  1  0.50123646  0.25040849  0.24648626  1
  V  V33  1  0.63745328  0.74053851  0.38775640  1
  V  V34  1  0.67308288  0.55480655  0.56298643  1
  V  V35  1  0.50060908  0.50843499  0.00040832  1
  V  V36  1  0.37617702  0.75109313  0.12450098  1
  V  V37  1  0.12677428  0.12844777  0.49051601  1
  V  V38  1  0.13013743  0.74567707  0.87360162  1
  V  V39  1  -0.00510645  0.49474072  0.49923423  1
  V  V40  1  0.49786568  0.12619124  0.62511706  1
  V  V41  1  0.62155010  0.87849148  0.76173964  1
  V  V42  1  0.36980465  0.12701210  0.25432376  1
  V  V43  1  0.24937574  0.75346506  0.49639250  1
  V  V44  1  -0.00100976  0.87121782  0.87760089  1
  V  V45  1  0.12222547  0.12322435  0.00307751  1
  V  V46  1  0.50358223  0.50139506  0.50125823  1
  V  V47  1  0.62239162  0.25019186  0.87505559  1
  V  V48  1  0.00944581  0.74594673  0.25023515  1
  V  V49  1  0.24689092  0.00291865  0.25387681  1
  V  V50  1  0.62829745  0.12771221  0.50018772  1
  V  V51  1  0.24747579  0.11096418  0.87357917  1
  V  V52  1  0.87291638  -0.00488775  0.88183020  1
  V  V53  1  0.00880138  0.86734018  0.37698814  1
  V  V54  1  0.74837892  0.87234741  0.62120740  1
  V  V55  1  0.12642336  0.50346853  0.62530835  1
  V  V56  1  0.24750296  0.74658452  -0.00206626  1
  V  V57  1  0.25169315  0.37580052  0.62542537  1
  V  V58  1  0.12418889  0.63113550  0.49728861  1
  V  V59  1  0.24619905  0.24899552  0.48829596  1
  V  V60  1  0.76804716  0.86357308  0.12363056  1
  V  V61  1  0.50509858  0.74865678  0.25262025  1
  V  V62  1  0.62325823  0.12013689  0.00036481  1
  V  V63  1  0.12616242  0.00249876  0.63495406  1
  V  V64  1  0.24857568  0.24932599  -0.00196136  1
  V  V65  1  0.37411764  0.00301122  0.37364456  1
  V  V66  1  0.50306874  0.37604087  0.37320359  1
  V  V67  1  0.25179760  0.50558727  0.75847703  1
  V  V68  1  0.12533120  0.25214572  0.86871051  1
  V  V69  1  0.62072104  0.39090832  0.74469038  1
  V  V70  1  0.12644353  0.62091632  0.00055155  1
  V  V71  1  0.24240355  0.87350271  0.12669403  1
  V  V72  1  0.49893830  0.62397094  0.62026837  1
  V  V73  1  0.24473889  0.62866306  0.37390781  1
  V  V74  1  0.87092399  -0.00469383  0.36612051  1
  V  V75  1  0.75316433  0.50260501  0.25518420  1
  V  V76  1  0.63896491  0.62666531  -0.00057655  1
  V  V77  1  -0.03459043  0.28657378  0.77986735  1
  V  V78  1  0.37447530  0.37741391  0.00071076  1
  V  V79  1  0.37463627  0.50061491  0.37512309  1
  V  V80  1  0.50338229  0.87449529  0.37456989  1
  V  V81  1  0.87685082  0.12106490  0.74577704  1
  V  V82  1  0.24983723  0.87959018  0.63155964  1
  V  V83  1  0.37154054  0.24907754  0.62547580  1
  V  V84  1  0.62480709  -0.00048616  0.62526991  1
  Zn  Zn85  1  0.00338469  0.24752981  0.26881171  1
  Zn  Zn86  1  0.76789298  0.75090223  -0.00409688  1
  Zn  Zn87  1  0.92635697  0.33188671  0.44513839  1
  Zn  Zn88  1  0.63313642  0.87695874  0.25102181  1
  Zn  Zn89  1  0.12914729  0.87102625  0.25763548  1
  Zn  Zn90  1  0.87536563  0.12503312  0.24563642  1
  Zn  Zn91  1  0.50268732  0.62462818  0.12711723  1
  Zn  Zn92  1  0.11971373  0.49724509  0.12518885  1
  Zn  Zn93  1  0.37543295  0.37279094  0.49833967  1
  Zn  Zn94  1  0.87186355  0.50027316  0.37980249  1
  Zn  Zn95  1  0.00091068  0.75093078  0.75198477  1
  Zn  Zn96  1  0.12219214  0.00141786  0.12954637  1
  Zn  Zn97  1  0.38159688  0.88547778  0.00122201  1
  Zn  Zn98  1  0.49766037  0.25152624  0.75004397  1
  Zn  Zn99  1  0.12904382  0.87774056  0.75500391  1
  Zn  Zn100  1  0.12612362  0.37777734  0.75511925  1
  Zn  Zn101  1  0.24489952  0.50048302  0.24972027  1
  Zn  Zn102  1  -0.00614709  0.12699033  0.12773358  1
  Zn  Zn103  1  0.37449748  0.75080172  0.62622998  1
  Zn  Zn104  1  0.77138724  0.24804019  0.50390248  1
  Zn  Zn105  1  0.37053159  0.50825498  0.88108113  1
  Zn  Zn106  1  0.75110213  0.12470847  0.87766029  1
  Zn  Zn107  1  0.18515408  0.19122036  0.18914101  1
  Zn  Zn108  1  0.18788143  0.18559914  0.68656610  1
  Zn  Zn109  1  0.18328768  0.68541623  0.18437614  1
  Zn  Zn110  1  0.19097314  0.69059556  0.68792621  1
  Zn  Zn111  1  0.69069237  0.18783496  0.18184642  1
  Zn  Zn112  1  0.68697711  0.18719134  0.69174592  1
  Zn  Zn113  1  0.68758965  0.68866798  0.18761588  1
  Zn  Zn114  1  0.68805142  0.69368090  0.68433927  1
  Zn  Zn115  1  0.31056211  0.31614865  0.30957256  1
  Zn  Zn116  1  0.30985205  0.31165761  0.81327228  1
  Zn  Zn117  1  0.31433373  0.81353904  0.31332227  1
  Zn  Zn118  1  0.31376721  0.81451649  0.81417099  1
  Zn  Zn119  1  0.81261934  0.31311111  0.31220302  1
  Zn  Zn120  1  0.79697992  0.31348195  0.81219567  1
  Zn  Zn121  1  0.81224049  0.81333129  0.30658031  1
  Zn  Zn122  1  0.81453399  0.81298058  0.81153409  1
  Zn  Zn123  1  0.18884649  0.44052651  0.44081210  1
  Zn  Zn124  1  0.18265586  0.43773145  0.93838028  1
  Zn  Zn125  1  0.18780341  0.94388124  0.44015748  1
  Zn  Zn126  1  0.18586507  0.93199330  0.94433707  1
  Zn  Zn127  1  0.70718639  0.42505436  0.42930219  1
  Zn  Zn128  1  0.68946858  0.44316341  0.92897506  1
  Zn  Zn129  1  0.68679962  0.93618092  0.43660953  1
  Zn  Zn130  1  0.68815613  0.93674978  0.94445907  1
  Zn  Zn131  1  0.31070828  0.06105895  0.06298194  1
  Zn  Zn132  1  0.30780520  0.06305309  0.56112139  1
  Zn  Zn133  1  0.31168707  0.56471204  0.06541057  1
  Zn  Zn134  1  0.31596690  0.56484703  0.56404702  1
  Zn  Zn135  1  0.81108811  0.06815141  0.06311187  1
  Zn  Zn136  1  0.81323869  0.06020990  0.55916089  1
  Zn  Zn137  1  0.81647863  0.55909372  0.06510746  1
  Zn  Zn138  1  0.83436024  0.53995829  0.60789493  1
  Zn  Zn139  1  0.43965808  0.43858332  0.18605000  1
  Zn  Zn140  1  0.43690619  0.44054923  0.68785657  1
  Zn  Zn141  1  0.43583215  0.93464154  0.18879833  1
  Zn  Zn142  1  0.43549627  0.94014669  0.69036714  1
  Zn  Zn143  1  0.93886674  0.44027008  0.18517927  1
  Zn  Zn144  1  0.92032962  0.43171848  0.72650734  1
  Zn  Zn145  1  0.94327773  0.93739667  0.19212461  1
  Zn  Zn146  1  0.93960720  0.93729030  0.68991413  1
  Zn  Zn147  1  0.05667575  0.06195519  0.31171592  1
  Zn  Zn148  1  0.06000343  0.06215447  0.81544055  1
  Zn  Zn149  1  0.06090683  0.55667582  0.31231035  1
  Zn  Zn150  1  0.06331362  0.56352361  0.81430366  1
  Zn  Zn151  1  0.56215404  0.06194643  0.30804130  1
  Zn  Zn152  1  0.56084123  0.06702960  0.81101970  1
  Zn  Zn153  1  0.56810682  0.56351839  0.31533474  1
  Zn  Zn154  1  0.56083444  0.56984939  0.81642234  1
  Zn  Zn155  1  0.43675878  0.19030382  0.43693476  1
  Zn  Zn156  1  0.43729857  0.18561586  0.93850377  1
  Zn  Zn157  1  0.43866810  0.68915779  0.43856762  1
  Zn  Zn158  1  0.45297497  0.71509335  0.94919513  1
  Zn  Zn159  1  0.93803258  0.17534434  0.43795707  1
  Zn  Zn160  1  0.93324950  0.18313340  0.94089923  1
  Zn  Zn161  1  0.93509140  0.68714103  0.43939002  1
  Zn  Zn162  1  0.93835039  0.67702427  0.92995218  1
  Zn  Zn163  1  0.05908316  0.31256957  0.05886766  1
  Zn  Zn164  1  0.06350800  0.31148232  0.57181068  1
  Zn  Zn165  1  -0.05519198  0.80615457  0.06135318  1
  Zn  Zn166  1  0.06464570  0.81375229  0.56207284  1
  Zn  Zn167  1  0.56215280  0.31237488  0.06077933  1
  Zn  Zn168  1  0.56146229  0.31253136  0.56144864  1
  Zn  Zn169  1  0.56228611  0.81432940  0.05877988  1
  Zn  Zn170  1  0.56344805  0.81169992  0.56402198  1
  O  O171  1  0.12489184  0.12598238  0.11193897  1
  O  O172  1  0.11797081  0.11787637  0.62214866  1
  O  O173  1  0.11355230  0.62175921  0.11812665  1
  O  O174  1  0.12540353  0.62182579  0.61639831  1
  O  O175  1  0.61976556  0.11435684  0.12084262  1
  O  O176  1  0.62027491  0.12034659  0.61846325  1
  O  O177  1  0.62268408  0.61713630  0.11907837  1
  O  O178  1  0.61594185  0.62257469  0.62377445  1
  O  O179  1  0.38280997  0.38482462  0.37353374  1
  O  O180  1  0.38002632  0.37768087  0.88242858  1
  O  O181  1  0.38648496  0.88024627  0.38052138  1
  O  O182  1  0.37092558  0.89581535  0.87168926  1
  O  O183  1  0.84461977  0.38916241  0.38923051  1
  O  O184  1  0.89794173  0.36144445  0.82168232  1
  O  O185  1  0.87908644  0.87792472  0.38092719  1
  O  O186  1  0.88303314  0.88672104  0.87046541  1
  O  O187  1  0.25812549  -0.00455453  0.36263155  1
  O  O188  1  0.25009764  0.00944245  0.88059607  1
  O  O189  1  0.25983326  0.50892498  0.37509111  1
  O  O190  1  0.25039371  0.49807857  0.86209241  1
  O  O191  1  0.75795303  0.00611140  0.37969425  1
  O  O192  1  0.75658787  -0.00119094  0.87197224  1
  O  O193  1  0.74077642  0.50787583  0.35754711  1
  O  O194  1  0.76150745  0.49695009  0.86310641  1
  O  O195  1  0.24858772  0.49011806  0.12841216  1
  O  O196  1  0.24478819  0.49597361  0.62890344  1
  O  O197  1  0.25276387  0.99161449  0.13645192  1
  O  O198  1  0.24004007  0.99099178  0.61914607  1
  O  O199  1  0.73870425  0.50240732  0.13360285  1
  O  O200  1  0.72706937  0.48701487  0.61972254  1
  O  O201  1  0.74054988  0.99197468  0.12215284  1
  O  O202  1  0.74375766  0.99227235  0.63073922  1
  O  O203  1  0.01410057  0.37432341  0.24692814  1
  O  O204  1  0.01326037  0.36517953  0.72482420  1
  O  O205  1  0.00295298  0.86428512  0.25931746  1
  O  O206  1  0.00568991  0.87668942  0.76518364  1
  O  O207  1  0.50825880  0.37035347  0.25409089  1
  O  O208  1  0.50452031  0.37298066  0.75663936  1
  O  O209  1  0.49982677  0.86668346  0.25927637  1
  O  O210  1  0.51037994  0.86782007  0.74092962  1
  O  O211  1  0.49317278  0.13098553  0.24044863  1
  O  O212  1  0.49082486  0.12906583  0.74210199  1
  O  O213  1  0.49375571  0.63318000  0.25303242  1
  O  O214  1  0.49468605  0.63079333  0.74015209  1
  O  O215  1  0.99656662  0.13112130  0.24632513  1
  O  O216  1  0.98963293  0.11598652  0.74225063  1
  O  O217  1  0.99323279  0.62771616  0.24593554  1
  O  O218  1  1.01082118  0.62905094  0.73449923  1
  O  O219  1  0.36905655  0.25488859  0.00497683  1
  O  O220  1  0.36579660  0.24839571  0.50855259  1
  O  O221  1  0.35637910  0.72649941  0.01627863  1
  O  O222  1  0.36862914  0.75877389  0.50249381  1
  O  O223  1  0.85992010  0.24801996  0.00423517  1
  O  O224  1  0.88332473  0.24535895  0.50915165  1
  O  O225  1  0.87998269  0.74635255  -0.00556449  1
  O  O226  1  0.87913321  0.76442874  0.50779204  1
  O  O227  1  0.13099981  0.23669513  0.50851189  1
  O  O228  1  0.12754737  0.24144112  0.99087608  1
  O  O229  1  0.13314308  0.73911999  0.50178594  1
  O  O230  1  0.13859600  0.74119865  0.99402439  1
  O  O231  1  0.61751078  0.23527829  0.49346542  1
  O  O232  1  0.63133283  0.24619598  0.99272986  1
  O  O233  1  0.62383147  0.75513302  0.48702571  1
  O  O234  1  0.62879899  0.74156621  0.99172061  1
  O  O235  1  0.49431492  0.24271920  0.12954280  1
  O  O236  1  0.48883144  0.24323171  0.62420031  1
  O  O237  1  0.49244874  0.74687363  0.13743415  1
  O  O238  1  0.50069024  0.74215847  0.63325806  1
  O  O239  1  0.98298078  0.24893850  0.11794697  1
  O  O240  1  1.00534932  0.23596052  0.63753363  1
  O  O241  1  0.99986017  0.73822523  0.13699984  1
  O  O242  1  0.99577901  0.74698579  0.62614374  1
  O  O243  1  -0.01412258  0.25826751  0.37921754  1
  O  O244  1  0.00700843  0.24062028  0.86752807  1
  O  O245  1  -0.00491829  0.75824932  0.36851497  1
  O  O246  1  0.00962968  0.75730132  0.87372429  1
  O  O247  1  0.50669103  0.25441099  0.36652964  1
  O  O248  1  0.50547897  0.25876054  0.87759839  1
  O  O249  1  0.50452062  0.75805085  0.37007490  1
  O  O250  1  0.51608365  0.74403498  0.85539560  1
  O  O251  1  0.23590444  0.13319758  0.50411306  1
  O  O252  1  0.24269135  0.12906960  0.99401318  1
  O  O253  1  0.24661829  0.63338106  0.49458118  1
  O  O254  1  0.23432868  0.62762021  1.00732783  1
  O  O255  1  0.74091404  0.12585248  0.49457997  1
  O  O256  1  0.73515119  0.13340235  0.99910433  1
  O  O257  1  0.74582414  0.60603080  0.52391838  1
  O  O258  1  0.74143859  0.62677558  1.00729032  1
  O  O259  1  0.25582804  0.37085558  0.00601602  1
  O  O260  1  0.25258912  0.36842160  0.50750429  1
  O  O261  1  0.25768288  0.86507281  0.00978111  1
  O  O262  1  0.25369398  0.86967659  0.50433340  1
  O  O263  1  0.74172155  0.36238296  -0.00442185  1
  O  O264  1  0.73250222  0.36283219  0.52024534  1
  O  O265  1  0.74673572  0.87258387  0.01933279  1
  O  O266  1  0.75784738  0.88251261  0.51001480  1
  O  O267  1  0.12572488  0.48700811  0.24660507  1
  O  O268  1  0.13456485  0.50249788  0.74189435  1
  O  O269  1  0.13383040  0.99845070  0.24966773  1
  O  O270  1  0.12389311  1.00023164  0.73913447  1
  O  O271  1  0.62756730  0.49445002  0.24103255  1
  O  O272  1  0.61359370  0.48892065  0.75248705  1
  O  O273  1  0.62046799  0.99831305  0.23185776  1
  O  O274  1  0.62825540  0.99578263  0.74645270  1
  O  O275  1  0.37004424  0.00826923  0.25394645  1
  O  O276  1  0.37862324  0.01276343  0.76145300  1
  O  O277  1  0.37681105  0.50615331  0.26138734  1
  O  O278  1  0.36956669  0.51033776  0.75341143  1
  O  O279  1  0.87792708  -0.00037514  0.26326687  1
  O  O280  1  0.86795940  0.00371330  0.75711768  1
  O  O281  1  0.86812778  0.50777572  0.25188277  1
  O  O282  1  0.86260010  0.52519899  0.72350693  1
  O  O283  1  0.12883584  0.37900889  0.36514583  1
  O  O284  1  0.13070472  0.36004429  0.87273255  1
  O  O285  1  0.11225752  0.87980707  0.37877493  1
  O  O286  1  0.11914169  0.86498868  0.87745146  1
  O  O287  1  0.62185337  0.36717833  0.36514595  1
  O  O288  1  0.61744129  0.36986825  0.86562213  1
  O  O289  1  0.61385642  0.87279962  0.37218827  1
  O  O290  1  0.62627336  0.87329198  0.86553957  1
  O  O291  1  0.38196205  0.12817528  0.13130585  1
  O  O292  1  0.37530903  0.12701450  0.63308396  1
  O  O293  1  0.37623225  0.63202760  0.13793400  1
  O  O294  1  0.38601901  0.62850308  0.63232348  1
  O  O295  1  0.87259235  0.13726784  0.12724118  1
  O  O296  1  0.88607509  0.11105756  0.63375801  1
  O  O297  1  0.88659833  0.61992914  0.13788228  1
  O  O298  1  0.89005711  0.64186895  0.61378706  1
  O  O299  1  0.25659359  0.25621440  0.11786985  1
  O  O300  1  0.25409387  0.25864225  0.62051043  1
  O  O301  1  0.25589080  0.75590444  0.12391692  1
  O  O302  1  0.25198628  0.75885843  0.61231207  1
  O  O303  1  0.75670664  0.25117727  0.11161853  1
  O  O304  1  0.74513170  0.25916699  0.62637931  1
  O  O305  1  0.75000509  0.76161639  0.12197909  1
  O  O306  1  0.75756008  0.76448779  0.62655006  1
  O  O307  1  0.25675593  0.25425655  0.38937177  1
  O  O308  1  0.24423046  0.23964106  0.88160373  1
  O  O309  1  0.25528807  0.74410942  0.38700183  1
  O  O310  1  0.24495438  0.75570597  0.88558626  1
  O  O311  1  0.74218606  0.23886130  0.37987299  1
  O  O312  1  0.74090666  0.24680526  0.88602501  1
  O  O313  1  0.73541024  0.75848880  0.37091795  1
  O  O314  1  0.73800002  0.75919541  0.87607001  1
  O  O315  1  0.00731839  0.11396010  -0.00024178  1
  O  O316  1  0.01093181  0.11639238  0.51061011  1
  O  O317  1  0.00882500  0.62002258  0.00665158  1
  O  O318  1  0.01034072  0.62225739  0.50686913  1
  O  O319  1  0.51238451  0.13349016  0.01080037  1
  O  O320  1  0.50445759  0.11926565  0.50453070  1
  O  O321  1  0.50791800  0.61877887  0.00216801  1
  O  O322  1  0.49605805  0.61815721  0.50941713  1
  O  O323  1  0.49824146  0.38266681  0.49217598  1
  O  O324  1  0.49418009  0.38446800  0.99602522  1
  O  O325  1  0.49585339  0.88223363  0.49466873  1
  O  O326  1  0.47431583  0.82372265  0.99258476  1
  O  O327  1  1.00633838  0.39150020  0.51123593  1
  O  O328  1  1.00254866  0.38966121  0.99830453  1
  O  O329  1  0.99377922  0.87840587  0.49423651  1
  O  O330  1  0.99969026  0.88632204  0.99084417  1
  O  O331  1  0.49537926  0.49843874  0.38305497  1
  O  O332  1  0.49877734  0.49546304  0.88682500  1
  O  O333  1  0.49557114  0.99343085  0.37788175  1
  O  O334  1  0.49028789  1.00371058  0.87655635  1
  O  O335  1  0.99876823  0.50387314  0.39542869  1
  O  O336  1  1.00126454  0.50305466  0.88563138  1
  O  O337  1  0.99087476  0.99082517  0.38237564  1
  O  O338  1  0.99380140  0.99300216  0.88356400  1
  O  O339  1  0.00221316  0.00174499  0.11756579  1
  O  O340  1  0.00937894  0.00068814  0.61905997  1
  O  O341  1  0.00129039  0.50832893  0.11512946  1
  O  O342  1  0.01715248  0.51149023  0.61719425  1
  O  O343  1  0.50149883  0.00868281  0.12600727  1
  O  O344  1  0.50531843  0.00653843  0.61977209  1
  O  O345  1  0.50884084  0.50175856  0.11498224  1
  O  O346  1  0.49612247  0.50529612  0.60976460  1
  O  O347  1  0.24052722  0.37681273  0.24179205  1
  O  O348  1  0.25122865  0.38528378  0.74180569  1
  O  O349  1  0.25081665  0.88224164  0.24582383  1
  O  O350  1  0.25013815  0.87108174  0.73490712  1
  O  O351  1  0.73726219  0.38298078  0.24926024  1
  O  O352  1  0.72733377  0.37127161  0.74139135  1
  O  O353  1  0.74893469  0.87374764  0.23026219  1
  O  O354  1  0.74112618  0.88193771  0.74279149  1
  O  O355  1  0.25941250  0.11773636  0.24304328  1
  O  O356  1  0.25805295  0.12699191  0.76006967  1
  O  O357  1  0.25473300  0.62518124  0.25875718  1
  O  O358  1  0.26317939  0.61775326  0.74221669  1
  O  O359  1  0.74808096  0.12665972  0.26215392  1
  O  O360  1  0.75501199  0.11500719  0.75281582  1
  O  O361  1  0.76534793  0.62131895  0.24205720  1
  O  O362  1  0.73887216  0.62464733  0.75621011  1
  O  O363  1  0.38192003  0.12139515  0.36068709  1
  O  O364  1  0.36841882  0.11731576  0.87012782  1
  O  O365  1  0.36651978  0.62101863  0.37175360  1
  O  O366  1  0.38531025  0.62973501  0.86363884  1
  O  O367  1  0.86428318  0.11112841  0.37401203  1
  O  O368  1  0.87370392  0.11115389  0.86760113  1
  O  O369  1  0.87848770  0.61963043  0.36212921  1
  O  O370  1  0.87234350  0.62496727  0.85545448  1
  O  O371  1  0.13693615  0.37289681  0.12237117  1
  O  O372  1  0.13985541  0.38528942  0.62453659  1
  O  O373  1  0.14061942  0.87718657  0.13019583  1
  O  O374  1  0.13267787  0.88431799  0.62476187  1
  O  O375  1  0.61785136  0.38431307  0.13244601  1
  O  O376  1  0.61982779  0.36857007  0.64214990  1
  O  O377  1  0.62164645  0.88726825  0.12470106  1
  O  O378  1  0.63199954  0.88096181  0.63093803  1
  O  O379  1  0.12369516  0.26594198  0.24848586  1
  O  O380  1  0.12989379  0.24824744  0.76341036  1
  O  O381  1  0.11376911  0.74865989  0.25278505  1
  O  O382  1  0.12687646  0.75352937  0.75985663  1
  O  O383  1  0.62232699  0.25657193  0.25027813  1
  O  O384  1  0.62020933  0.24849873  0.76621821  1
  O  O385  1  0.61463040  0.75295322  0.25523092  1
  O  O386  1  0.62110605  0.76094675  0.75326632  1
  O  O387  1  0.37818696  0.24376546  0.24413715  1
  O  O388  1  0.37423189  0.23967075  0.74433634  1
  O  O389  1  0.38285096  0.74569690  0.24514988  1
  O  O390  1  0.38373322  0.74748571  0.74829598  1
  O  O391  1  0.87129278  0.25049527  0.23586984  1
  O  O392  1  0.87300068  0.22967991  0.75268845  1
  O  O393  1  0.88393663  0.73602329  0.25458665  1
  O  O394  1  0.88058843  0.76069301  0.73367224  1
  O  O395  1  0.38245474  0.50000598  0.48870757  1
  O  O396  1  0.38325222  0.49866867  1.00065941  1
  O  O397  1  0.37866759  0.99787489  0.49292045  1
  O  O398  1  0.37526077  1.00292071  0.98611223  1
  O  O399  1  0.89397704  0.50605987  0.51018563  1
  O  O400  1  0.88793396  0.50256544  0.99900748  1
  O  O401  1  0.88121787  0.98890016  0.49308832  1
  O  O402  1  0.88206022  1.00637860  0.99236705  1
  O  O403  1  0.11713331  0.00674661  0.00297899  1
  O  O404  1  0.12217691  0.01120502  0.50951336  1
  O  O405  1  0.11846215  0.50850347  0.00079860  1
  O  O406  1  0.12375197  0.51253005  0.50682928  1
  O  O407  1  0.62448455  0.00807016  0.01291940  1
  O  O408  1  0.61898964  0.01003051  0.50381475  1
  O  O409  1  0.62168341  0.50598924  0.00403101  1
  O  O410  1  0.61952860  0.49926685  0.49061114  1
  O  O411  1  0.36648982  0.37075120  0.12136279  1
  O  O412  1  0.36604815  0.37077394  0.62376365  1
  O  O413  1  0.36745514  0.86344505  0.12601584  1
  O  O414  1  0.36758096  0.87788021  0.61832138  1
  O  O415  1  0.87391380  0.36301454  0.12599332  1
  O  O416  1  0.84790754  0.38509044  0.63668531  1
  O  O417  1  0.87155881  0.87417271  0.12608387  1
  O  O418  1  0.86813309  0.87391486  0.61761044  1
  O  O419  1  0.12061629  0.11922180  0.39236384  1
  O  O420  1  0.13102100  0.12768715  0.88371120  1
  O  O421  1  0.13796738  0.61876768  0.38122752  1
  O  O422  1  0.12124288  0.63802951  0.88370601  1
  O  O423  1  0.62950764  0.12566372  0.38075630  1
  O  O424  1  0.62325033  0.13244824  0.88357743  1
  O  O425  1  0.62407776  0.64146668  0.37482799  1
  O  O426  1  0.62464680  0.63388966  0.88597113  1
