# generated using pymatgen
data_V85Zn86O256
_symmetry_space_group_name_H-M   'P 1'
_cell_length_a   16.92535594
_cell_length_b   16.91761513
_cell_length_c   16.91586101
_cell_angle_alpha   90.00410168
_cell_angle_beta   89.97884363
_cell_angle_gamma   89.95459283
_symmetry_Int_Tables_number   1
_chemical_formula_structural   V85Zn86O256
_chemical_formula_sum   'V85 Zn86 O256'
_cell_volume   4843.62923926
_cell_formula_units_Z   1
loop_
 _symmetry_equiv_pos_site_id
 _symmetry_equiv_pos_as_xyz
  1  'x, y, z'
loop_
 _atom_site_type_symbol
 _atom_site_label
 _atom_site_symmetry_multiplicity
 _atom_site_fract_x
 _atom_site_fract_y
 _atom_site_fract_z
 _atom_site_occupancy
  V  V0  1  0.64110260  0.24719005  0.87415398  1
  V  V1  1  0.49831190  0.12768318  0.62416768  1
  V  V2  1  -0.00433922  0.13465044  0.62540904  1
  V  V3  1  0.49151642  0.74786945  0.75486667  1
  V  V4  1  0.75220094  0.00729186  0.26139593  1
  V  V5  1  0.88150359  0.74526941  0.62596111  1
  V  V6  1  0.24321238  0.49158487  0.25574950  1
  V  V7  1  0.25289705  0.62600350  0.87713563  1
  V  V8  1  0.37707416  0.87936454  0.50423561  1
  V  V9  1  0.25282045  0.87559820  0.62441197  1
  V  V10  1  0.62231484  -0.00124684  0.11839444  1
  V  V11  1  0.74740694  0.61808231  0.37894755  1
  V  V12  1  0.12444462  0.12799857  0.49913268  1
  V  V13  1  0.62715989  0.75000953  0.37701401  1
  V  V14  1  0.00277701  0.37177499  0.36443272  1
  V  V15  1  0.86643667  0.50249720  0.87694562  1
  V  V16  1  0.49991434  0.75061724  0.24585410  1
  V  V17  1  0.63156913  0.25035414  0.37533316  1
  V  V18  1  0.63135117  0.38888429  0.25009047  1
  V  V19  1  0.49573965  0.00425539  0.49541111  1
  V  V20  1  0.37137158  0.61727205  0.24659536  1
  V  V21  1  0.62564265  0.87649624  0.25036829  1
  V  V22  1  0.49841842  0.36706197  0.87873427  1
  V  V23  1  0.37677492  0.38741022  0.49413015  1
  V  V24  1  0.87647761  0.86993772  0.00371305  1
  V  V25  1  0.50456841  0.25101046  0.24997356  1
  V  V26  1  -0.00528184  0.88089743  0.37393381  1
  V  V27  1  -0.00629884  0.75310290  0.24642716  1
  V  V28  1  0.75385519  0.24683164  0.50748080  1
  V  V29  1  0.62788736  0.73943740  0.87552160  1
  V  V30  1  0.74796967  0.00318264  0.75571076  1
  V  V31  1  0.87147068  0.24424557  0.12980997  1
  V  V32  1  0.50916753  0.61903403  0.12379230  1
  V  V33  1  0.25570935  0.87804088  0.12292923  1
  V  V34  1  0.12033978  0.37463662  0.75537904  1
  V  V35  1  0.37334063  0.49029887  0.88453880  1
  V  V36  1  0.87632565  0.37136848  0.50980001  1
  V  V37  1  -0.00532120  0.62946526  0.12468596  1
  V  V38  1  0.87201128  0.00520433  0.87638847  1
  V  V39  1  0.43294044  0.69291348  0.58189209  1
  V  V40  1  0.87106423  0.36477831  -0.00379069  1
  V  V41  1  0.74526996  0.50451266  0.74830816  1
  V  V42  1  0.26472197  -0.00355871  0.25142443  1
  V  V43  1  0.50400932  0.12614207  0.11492802  1
  V  V44  1  0.75337467  0.74354090  -0.00079672  1
  V  V45  1  0.25069627  0.50045655  0.74935150  1
  V  V46  1  0.25097875  0.25145138  0.49400042  1
  V  V47  1  0.87940711  0.62254796  0.74937962  1
  V  V48  1  -0.00263786  0.25311636  0.75900198  1
  V  V49  1  -0.00385231  0.49503283  -0.00508371  1
  V  V50  1  0.00264820  0.00115515  0.00497993  1
  V  V51  1  0.64474698  0.12507445  -0.00542586  1
  V  V52  1  0.86970975  0.62491301  0.25105489  1
  V  V53  1  0.12339059  0.62372360  0.00182877  1
  V  V54  1  0.00056316  0.87311488  0.87378711  1
  V  V55  1  0.11431809  0.62599833  0.50546347  1
  V  V56  1  0.37636980  0.74658992  0.11873508  1
  V  V57  1  0.24996592  0.13266045  0.87471702  1
  V  V58  1  -0.00423040  0.00240640  0.49872279  1
  V  V59  1  0.75483693  0.87137775  0.12730466  1
  V  V60  1  0.25000288  0.74965500  0.50368557  1
  V  V61  1  0.37857620  -0.00450376  0.88611040  1
  V  V62  1  0.25122690  0.75323897  0.00077964  1
  V  V63  1  0.86939414  0.13225269  0.74855794  1
  V  V64  1  0.12586037  0.87728771  0.24975069  1
  V  V65  1  0.12042850  0.49072920  0.13473390  1
  V  V66  1  0.49344849  0.88011505  0.36895963  1
  V  V67  1  0.62978756  0.12354845  0.49458150  1
  V  V68  1  0.87180352  0.87940869  0.49771542  1
  V  V69  1  0.38456834  0.11935478  0.25302007  1
  V  V70  1  0.12323370  0.13569448  0.00068752  1
  V  V71  1  0.51045302  0.49409031  0.00210034  1
  V  V72  1  0.49537546  0.38684887  0.37854524  1
  V  V73  1  0.12401170  0.00175764  0.62486025  1
  V  V74  1  0.24873449  0.62453397  0.37414360  1
  V  V75  1  0.74855693  0.38503016  0.12765729  1
  V  V76  1  0.12294597  0.25091659  0.35948214  1
  V  V77  1  0.12514797  0.87564250  0.75001222  1
  V  V78  1  0.75077202  0.87307245  0.62918424  1
  V  V79  1  0.60938264  0.50353046  0.62006189  1
  V  V80  1  0.24735186  0.37299657  0.62414981  1
  V  V81  1  0.87101118  0.49477879  0.37368242  1
  V  V82  1  0.25606826  0.12157015  0.37379422  1
  V  V83  1  0.88030017  0.12433839  0.26553962  1
  V  V84  1  0.62087504  0.87342580  0.75514614  1
  Zn  Zn85  1  0.11614755  0.50769272  0.63028313  1
  Zn  Zn86  1  0.62346373  0.00022849  0.62645826  1
  Zn  Zn87  1  0.38955845  0.28010667  0.09047312  1
  Zn  Zn88  1  0.74732394  0.74768630  0.50410233  1
  Zn  Zn89  1  0.25321928  0.00002539  0.75196242  1
  Zn  Zn90  1  0.62443074  0.37434597  0.74870962  1
  Zn  Zn91  1  0.00217704  0.13284576  0.13308390  1
  Zn  Zn92  1  0.63460667  0.61771171  0.00151263  1
  Zn  Zn93  1  0.74787691  0.37547206  0.62669552  1
  Zn  Zn94  1  0.12427103  0.25716431  0.88193008  1
  Zn  Zn95  1  0.24217933  0.35603130  0.09289633  1
  Zn  Zn96  1  0.12538054  0.74980122  0.87448870  1
  Zn  Zn97  1  0.49927729  0.24807313  0.75027259  1
  Zn  Zn98  1  -0.00400380  0.50005769  0.50489064  1
  Zn  Zn99  1  0.60954881  0.62446438  0.50456714  1
  Zn  Zn100  1  0.37533331  0.12311296  0.74923814  1
  Zn  Zn101  1  0.37808586  0.62337543  0.74829132  1
  Zn  Zn102  1  0.12284324  0.75200057  0.37475739  1
  Zn  Zn103  1  0.00334872  0.74406993  0.74702182  1
  Zn  Zn104  1  0.13073023  0.00354912  0.12488628  1
  Zn  Zn105  1  0.49910370  0.87729181  0.89393303  1
  Zn  Zn106  1  0.37603052  0.25110700  0.62549721  1
  Zn  Zn107  1  0.19083501  0.18313372  0.18371508  1
  Zn  Zn108  1  0.18654572  0.18956528  0.68903203  1
  Zn  Zn109  1  0.18247267  0.68598274  0.18682956  1
  Zn  Zn110  1  0.19091959  0.69047232  0.68718668  1
  Zn  Zn111  1  0.69259206  0.19041442  0.18553533  1
  Zn  Zn112  1  0.68349473  0.18622557  0.68560208  1
  Zn  Zn113  1  0.69113089  0.68830999  0.18839708  1
  Zn  Zn114  1  0.68767512  0.68313187  0.68873228  1
  Zn  Zn115  1  0.31291941  0.31058391  0.23897145  1
  Zn  Zn116  1  0.31544356  0.30911519  0.81068956  1
  Zn  Zn117  1  0.31448212  0.80881182  0.31176004  1
  Zn  Zn118  1  0.31327027  0.81758330  0.81577128  1
  Zn  Zn119  1  0.81200218  0.30939934  0.31388935  1
  Zn  Zn120  1  0.81394314  0.31931372  0.80998930  1
  Zn  Zn121  1  0.81222132  0.81223751  0.31349292  1
  Zn  Zn122  1  0.81254862  0.81046115  0.81446070  1
  Zn  Zn123  1  0.18482617  0.43852263  0.43387880  1
  Zn  Zn124  1  0.18261335  0.43970501  0.93751227  1
  Zn  Zn125  1  0.18543111  0.93892722  0.43569609  1
  Zn  Zn126  1  0.19023292  0.94230414  0.93815680  1
  Zn  Zn127  1  0.68584290  0.43743764  0.44224977  1
  Zn  Zn128  1  0.69103340  0.43199250  0.93668858  1
  Zn  Zn129  1  0.68488107  0.93662483  0.43964107  1
  Zn  Zn130  1  0.68600389  0.93358733  0.93821906  1
  Zn  Zn131  1  0.32921215  0.10829154  0.04579662  1
  Zn  Zn132  1  0.31374595  0.06086014  0.56065955  1
  Zn  Zn133  1  0.30111066  0.52868544  0.05291365  1
  Zn  Zn134  1  0.30225829  0.55792775  0.55961431  1
  Zn  Zn135  1  0.81424757  0.05814375  0.06930529  1
  Zn  Zn136  1  0.81082058  0.06195822  0.56619407  1
  Zn  Zn137  1  0.81449273  0.55960024  0.06665499  1
  Zn  Zn138  1  0.80975007  0.56055970  0.56323533  1
  Zn  Zn139  1  0.44211387  0.44076439  0.19053266  1
  Zn  Zn140  1  0.43486374  0.43255620  0.69222738  1
  Zn  Zn141  1  0.43457516  0.94256659  0.06596662  1
  Zn  Zn142  1  0.43782272  0.94188504  0.69011522  1
  Zn  Zn143  1  0.93205706  0.43920456  0.18662713  1
  Zn  Zn144  1  0.93951747  0.44054655  0.68618378  1
  Zn  Zn145  1  0.93445535  0.94277628  0.18801853  1
  Zn  Zn146  1  0.93706945  0.94044352  0.68716582  1
  Zn  Zn147  1  0.06637821  0.06012551  0.31279290  1
  Zn  Zn148  1  0.06162519  0.06310129  0.81435128  1
  Zn  Zn149  1  0.05867688  0.56348857  0.31881027  1
  Zn  Zn150  1  0.06164225  0.56155252  0.81504004  1
  Zn  Zn151  1  0.56732622  0.06197160  0.31257752  1
  Zn  Zn152  1  0.56064753  0.06281818  0.81585609  1
  Zn  Zn153  1  0.56245372  0.56381356  0.31180556  1
  Zn  Zn154  1  0.55936713  0.56131504  0.81063114  1
  Zn  Zn155  1  0.43725953  0.19444978  0.43358456  1
  Zn  Zn156  1  0.44339447  0.18340563  0.93302767  1
  Zn  Zn157  1  0.43450278  0.68959309  0.41925497  1
  Zn  Zn158  1  0.44029068  0.68289520  0.93822536  1
  Zn  Zn159  1  0.93785507  0.19234908  0.43599261  1
  Zn  Zn160  1  0.93444104  0.18618830  0.93852230  1
  Zn  Zn161  1  0.93323438  0.69394351  0.43474061  1
  Zn  Zn162  1  0.93522288  0.68571896  0.93388087  1
  Zn  Zn163  1  0.05230511  0.31331198  0.06879185  1
  Zn  Zn164  1  0.06248050  0.31507710  0.56197042  1
  Zn  Zn165  1  0.06578938  0.81202182  0.06443072  1
  Zn  Zn166  1  0.06184891  0.81257767  0.56186117  1
  Zn  Zn167  1  0.57363549  0.31007926  0.05957787  1
  Zn  Zn168  1  0.56423946  0.31529780  0.56182446  1
  Zn  Zn169  1  0.56815633  0.80792904  0.06236829  1
  Zn  Zn170  1  0.56766459  0.81859532  0.56111642  1
  O  O171  1  0.12088544  0.12274173  0.11652788  1
  O  O172  1  0.11815908  0.12071334  0.61966093  1
  O  O173  1  0.11067288  0.61879939  0.12163711  1
  O  O174  1  0.13031269  0.62881060  0.60954345  1
  O  O175  1  0.62625155  0.12014400  0.11524960  1
  O  O176  1  0.61426337  0.12260619  0.61305019  1
  O  O177  1  0.61290224  0.62923575  0.12818117  1
  O  O178  1  0.62659031  0.61111754  0.62284746  1
  O  O179  1  0.39246814  0.37092532  0.37904100  1
  O  O180  1  0.38266784  0.38040374  0.87434104  1
  O  O181  1  0.38827605  0.86396012  0.38556785  1
  O  O182  1  0.37466863  0.89092293  0.87935854  1
  O  O183  1  0.88198711  0.37901233  0.37954822  1
  O  O184  1  0.87024718  0.38581647  0.88649395  1
  O  O185  1  0.88065342  0.87244720  0.38549848  1
  O  O186  1  0.88233263  0.88432025  0.87973740  1
  O  O187  1  0.24309375  0.01382217  0.36903817  1
  O  O188  1  0.25953385  0.00753535  0.87375148  1
  O  O189  1  0.24155509  0.51744461  0.37095958  1
  O  O190  1  0.25646195  0.50740382  0.86815670  1
  O  O191  1  0.74412379  -0.00562489  0.35963518  1
  O  O192  1  0.75813944  -0.00782604  0.86437826  1
  O  O193  1  0.75574034  0.50689396  0.37711512  1
  O  O194  1  0.75608693  0.49776588  0.86653564  1
  O  O195  1  0.23282184  0.51135290  0.14339743  1
  O  O196  1  0.24274024  0.49252932  0.63419875  1
  O  O197  1  0.25238040  0.98925548  0.13520784  1
  O  O198  1  0.24159668  0.99437455  0.62492928  1
  O  O199  1  0.75480617  0.48497682  0.12998484  1
  O  O200  1  0.74239349  0.49772061  0.63346627  1
  O  O201  1  0.74202128  0.98949411  0.13239169  1
  O  O202  1  0.74946389  0.98861361  0.63796119  1
  O  O203  1  -0.00553620  0.37959932  0.26553415  1
  O  O204  1  0.00772321  0.36549260  0.74492100  1
  O  O205  1  0.00135666  0.87264237  0.25429158  1
  O  O206  1  0.00571356  0.87578289  0.75831036  1
  O  O207  1  0.50909179  0.36861284  0.25928764  1
  O  O208  1  0.50342799  0.37186148  0.76504899  1
  O  O209  1  0.50826493  0.86886654  0.25846357  1
  O  O210  1  0.51164382  0.87029507  0.74998503  1
  O  O211  1  0.50207916  0.12977047  0.24438456  1
  O  O212  1  0.50224153  0.12306997  0.73632582  1
  O  O213  1  0.49134519  0.62928195  0.24543748  1
  O  O214  1  0.49552010  0.63840320  0.75356920  1
  O  O215  1  0.98400340  0.11204678  0.25011576  1
  O  O216  1  0.99223760  0.13014939  0.74426714  1
  O  O217  1  0.99158402  0.63408594  0.24777752  1
  O  O218  1  0.98630783  0.62577703  0.75541106  1
  O  O219  1  0.36808596  0.21232531  0.00906012  1
  O  O220  1  0.36160708  0.25816929  0.49788091  1
  O  O221  1  0.36705798  0.74135454  0.01095310  1
  O  O222  1  0.37317263  0.75285399  0.50710321  1
  O  O223  1  0.87699232  0.25963993  0.00566397  1
  O  O224  1  0.86473744  0.25724581  0.49539317  1
  O  O225  1  0.87020789  0.76265999  -0.00693862  1
  O  O226  1  0.87099200  0.76118135  0.50805396  1
  O  O227  1  0.13474368  0.24568320  0.49522267  1
  O  O228  1  0.11592556  0.24133646  1.00074566  1
  O  O229  1  0.13245870  0.74412968  0.49848803  1
  O  O230  1  0.13407722  0.74196454  0.99928873  1
  O  O231  1  0.63084940  0.24345801  0.49348024  1
  O  O232  1  0.62861498  0.23546303  0.98877249  1
  O  O233  1  0.62582081  0.74673461  0.49176188  1
  O  O234  1  0.63661519  0.74561145  0.99290224  1
  O  O235  1  0.50368934  0.24453840  0.13192592  1
  O  O236  1  0.49919119  0.24155857  0.62332225  1
  O  O237  1  0.49347763  0.74254324  0.12884681  1
  O  O238  1  0.49953913  0.75512322  0.63364803  1
  O  O239  1  0.97998279  0.25006706  0.12869782  1
  O  O240  1  1.00485946  0.23865190  0.63356022  1
  O  O241  1  1.00145881  0.74245216  0.13294401  1
  O  O242  1  0.98564044  0.75722725  0.62805054  1
  O  O243  1  0.00758881  0.26202094  0.37578658  1
  O  O244  1  0.00149391  0.24478264  0.86237414  1
  O  O245  1  -0.00027568  0.76367522  0.36732630  1
  O  O246  1  0.00144951  0.76281194  0.87408561  1
  O  O247  1  0.51370541  0.25748892  0.36948382  1
  O  O248  1  0.50975219  0.25374139  0.87452019  1
  O  O249  1  0.51089400  0.75653581  0.36661094  1
  O  O250  1  0.50682883  0.75430818  0.87075980  1
  O  O251  1  0.24726661  0.13072624  0.49277834  1
  O  O252  1  0.23265724  0.11694556  0.98519321  1
  O  O253  1  0.24365887  0.63374833  0.49314009  1
  O  O254  1  0.24543419  0.62804026  0.99410256  1
  O  O255  1  0.74123494  0.13003543  0.50516536  1
  O  O256  1  0.74350992  0.12205391  1.00156351  1
  O  O257  1  0.75057382  0.62868518  0.48722986  1
  O  O258  1  0.75352633  0.63902292  1.01108824  1
  O  O259  1  0.26606608  0.42224487  0.00792066  1
  O  O260  1  0.25187542  0.36918958  0.50300730  1
  O  O261  1  0.24310884  0.86188383  0.00764030  1
  O  O262  1  0.25859998  0.86943732  0.49977877  1
  O  O263  1  0.75799167  0.37768856  0.01464363  1
  O  O264  1  0.75866469  0.36624135  0.50006432  1
  O  O265  1  0.75806116  0.86854756  0.00738426  1
  O  O266  1  0.75491946  0.87493530  0.51000824  1
  O  O267  1  0.12741063  0.50704955  0.24498794  1
  O  O268  1  0.13430599  0.49465648  0.75173952  1
  O  O269  1  0.13530089  0.99207514  0.24729550  1
  O  O270  1  0.12365783  0.98974140  0.74458210  1
  O  O271  1  0.62392845  0.48821178  0.25114637  1
  O  O272  1  0.63101961  0.50055334  0.74327648  1
  O  O273  1  0.63570489  0.99656988  0.24244798  1
  O  O274  1  0.63154250  0.99270155  0.75236973  1
  O  O275  1  0.36580537  0.00252720  0.25889847  1
  O  O276  1  0.37224792  0.00344396  0.76124938  1
  O  O277  1  0.36358996  0.51299254  0.24654519  1
  O  O278  1  0.36388214  0.49919877  0.75979685  1
  O  O279  1  0.86082212  0.00946236  0.24740056  1
  O  O280  1  0.86849444  0.00684754  0.75753093  1
  O  O281  1  0.87994521  0.51057764  0.26468648  1
  O  O282  1  0.86943558  0.50369551  0.75753932  1
  O  O283  1  0.11059272  0.36725377  0.38052350  1
  O  O284  1  0.12897219  0.37471987  0.86166943  1
  O  O285  1  0.11650069  0.87329222  0.36748493  1
  O  O286  1  0.11818134  0.87617250  0.86797477  1
  O  O287  1  0.61934044  0.36987725  0.36990844  1
  O  O288  1  0.62076441  0.35921724  0.87645706  1
  O  O289  1  0.61661944  0.86755245  0.37271971  1
  O  O290  1  0.62160675  0.86626947  0.86888735  1
  O  O291  1  0.39162069  0.11265059  0.14366248  1
  O  O292  1  0.38711729  0.12520722  0.62114916  1
  O  O293  1  0.38437438  0.63082293  0.13106446  1
  O  O294  1  0.36747713  0.62666575  0.62796669  1
  O  O295  1  0.87571364  0.12964403  0.13410813  1
  O  O296  1  0.88398636  0.11944514  0.63662827  1
  O  O297  1  0.88562308  0.61943801  0.13657228  1
  O  O298  1  0.86902052  0.63472316  0.63260832  1
  O  O299  1  0.26248518  0.25820370  0.14448202  1
  O  O300  1  0.24963471  0.25662366  0.61506267  1
  O  O301  1  0.25608142  0.75226314  0.11904555  1
  O  O302  1  0.24879036  0.75896271  0.61208802  1
  O  O303  1  0.76359475  0.25935223  0.12744870  1
  O  O304  1  0.74198494  0.25406195  0.61200098  1
  O  O305  1  0.74628937  0.76418792  0.11902158  1
  O  O306  1  0.75664603  0.76025626  0.62759713  1
  O  O307  1  0.24090450  0.23697727  0.38032712  1
  O  O308  1  0.24697865  0.23654753  0.87320960  1
  O  O309  1  0.24930015  0.74488739  0.38644483  1
  O  O310  1  0.25109504  0.74422298  0.88407934  1
  O  O311  1  0.73759934  0.25424537  0.38524931  1
  O  O312  1  0.73980771  0.25188988  0.87176798  1
  O  O313  1  0.73837769  0.74537157  0.37583299  1
  O  O314  1  0.74177365  0.75569360  0.88666671  1
  O  O315  1  0.00593768  0.11626961  0.00008919  1
  O  O316  1  0.00173166  0.12342551  0.50713475  1
  O  O317  1  0.00004108  0.62121584  0.00874925  1
  O  O318  1  0.01250663  0.63086873  0.49310726  1
  O  O319  1  0.51496293  0.12497474  0.01262729  1
  O  O320  1  0.50433227  0.11966410  0.50085537  1
  O  O321  1  0.50773112  0.61782166  0.00867745  1
  O  O322  1  0.48823345  0.64066300  0.50959857  1
  O  O323  1  0.49218753  0.37031138  0.48771433  1
  O  O324  1  0.50471993  0.37849032  0.99162914  1
  O  O325  1  0.49477051  0.88266512  0.49430685  1
  O  O326  1  0.50319923  0.87748011  1.00685178  1
  O  O327  1  0.98968495  0.37208732  0.49188499  1
  O  O328  1  0.98543956  0.38554392  1.00687967  1
  O  O329  1  0.99226127  0.87915794  0.49276356  1
  O  O330  1  0.99518961  0.87908508  0.99508053  1
  O  O331  1  0.50272495  0.48648086  0.37333504  1
  O  O332  1  0.49424020  0.48998684  0.87989566  1
  O  O333  1  0.50728868  0.99099250  0.38371839  1
  O  O334  1  0.48356386  1.00080312  0.87525175  1
  O  O335  1  0.99272071  0.48925971  0.38285296  1
  O  O336  1  0.99231389  0.50433754  0.88976476  1
  O  O337  1  1.00333345  0.98836057  0.38165761  1
  O  O338  1  0.99384028  0.99113097  0.88417392  1
  O  O339  1  0.00159955  -0.00070053  0.11260350  1
  O  O340  1  0.00563823  0.00913891  0.61966245  1
  O  O341  1  0.00268992  0.50693204  0.11975448  1
  O  O342  1  0.00460817  0.49901154  0.61777121  1
  O  O343  1  0.51641920  0.00810529  0.12772972  1
  O  O344  1  0.50185540  0.00558510  0.61169506  1
  O  O345  1  0.49834388  0.50666334  0.11551430  1
  O  O346  1  0.51042719  0.49852089  0.63321290  1
  O  O347  1  0.24406209  0.39320073  0.27405497  1
  O  O348  1  0.24500202  0.38018104  0.74264432  1
  O  O349  1  0.24755372  0.87847068  0.24638158  1
  O  O350  1  0.24174701  0.87603167  0.74401427  1
  O  O351  1  0.74367788  0.37052945  0.24116207  1
  O  O352  1  0.74737320  0.38798313  0.74694455  1
  O  O353  1  0.74787010  0.88197982  0.24433998  1
  O  O354  1  0.74150989  0.87908057  0.74673690  1
  O  O355  1  0.26226252  0.11694779  0.25527603  1
  O  O356  1  0.24588569  0.12144391  0.76249633  1
  O  O357  1  0.25318457  0.62559919  0.25741335  1
  O  O358  1  0.25079057  0.61848207  0.75780854  1
  O  O359  1  0.75573130  0.11241623  0.24870907  1
  O  O360  1  0.75698189  0.11515438  0.74269429  1
  O  O361  1  0.76216976  0.63234367  0.26059004  1
  O  O362  1  0.76129520  0.61310794  0.74848151  1
  O  O363  1  0.36904755  0.12599938  0.36625272  1
  O  O364  1  0.36282739  0.11658932  0.87353622  1
  O  O365  1  0.36221180  0.63048507  0.36018893  1
  O  O366  1  0.36434988  0.61806480  0.87359965  1
  O  O367  1  0.87648117  0.12396579  0.36481710  1
  O  O368  1  0.87870852  0.11166095  0.86765779  1
  O  O369  1  0.86804668  0.61830976  0.37170623  1
  O  O370  1  0.87473872  0.61196199  0.86884337  1
  O  O371  1  0.12573072  0.38692836  0.12083509  1
  O  O372  1  0.13567216  0.37457919  0.63332020  1
  O  O373  1  0.13755473  0.87464620  0.13258872  1
  O  O374  1  0.12899038  0.88087522  0.63054788  1
  O  O375  1  0.64013901  0.36836225  0.13367308  1
  O  O376  1  0.62525010  0.38786220  0.62721314  1
  O  O377  1  0.63315009  0.88198297  0.13106063  1
  O  O378  1  0.63436699  0.87731392  0.63439015  1
  O  O379  1  0.12450891  0.24114563  0.26077469  1
  O  O380  1  0.11605662  0.25828414  0.75251359  1
  O  O381  1  0.11231783  0.75788647  0.25060635  1
  O  O382  1  0.12310856  0.76182247  0.75121880  1
  O  O383  1  0.61998770  0.25273891  0.25694658  1
  O  O384  1  0.62332832  0.24763693  0.76336298  1
  O  O385  1  0.62166263  0.75614009  0.25675676  1
  O  O386  1  0.62051220  0.75554130  0.75699112  1
  O  O387  1  0.39710471  0.23624542  0.25947455  1
  O  O388  1  0.37932553  0.24224931  0.74423204  1
  O  O389  1  0.37851410  0.74276342  0.23766079  1
  O  O390  1  0.38724930  0.75328375  0.75424702  1
  O  O391  1  0.86772409  0.23113946  0.24801642  1
  O  O392  1  0.87932148  0.23993957  0.75463035  1
  O  O393  1  0.88576900  0.74292157  0.25519765  1
  O  O394  1  0.87474174  0.74116519  0.74469092  1
  O  O395  1  0.36584385  0.48675256  0.49716213  1
  O  O396  1  0.39428485  0.51125907  0.98647522  1
  O  O397  1  0.38368162  0.99212053  0.49579605  1
  O  O398  1  0.37192263  1.00908744  0.99206201  1
  O  O399  1  0.87265244  0.49122906  0.48953362  1
  O  O400  1  0.87755178  0.49437726  0.99414378  1
  O  O401  1  0.87917555  0.98728446  0.50758888  1
  O  O402  1  0.87960007  0.99147994  0.99383851  1
  O  O403  1  0.11556860  0.00615457  0.00157452  1
  O  O404  1  0.11746128  0.00715749  0.50497318  1
  O  O405  1  0.11179763  0.50678882  0.00762867  1
  O  O406  1  0.12587940  0.51794725  0.49953311  1
  O  O407  1  0.63296006  0.01162443  0.00571771  1
  O  O408  1  0.61813432  0.00736964  0.50176175  1
  O  O409  1  0.61553877  0.50097546  -0.00721957  1
  O  O410  1  0.62251070  0.50395711  0.51385370  1
  O  O411  1  0.36507686  0.37190348  0.14834610  1
  O  O412  1  0.36308226  0.37481380  0.61714109  1
  O  O413  1  0.36295591  0.86488496  0.12370407  1
  O  O414  1  0.37101230  0.88082554  0.61248707  1
  O  O415  1  0.86524497  0.36929469  0.12270994  1
  O  O416  1  0.87251460  0.37690152  0.61266212  1
  O  O417  1  0.86805276  0.88019860  0.11531337  1
  O  O418  1  0.86767151  0.86991410  0.62212740  1
  O  O419  1  0.12896487  0.13170889  0.38133559  1
  O  O420  1  0.13221256  0.12703666  0.88056415  1
  O  O421  1  0.13011884  0.63241130  0.38473095  1
  O  O422  1  0.13609351  0.62606882  0.88111440  1
  O  O423  1  0.62154998  0.13323301  0.38659786  1
  O  O424  1  0.62526496  0.13117699  0.88627167  1
  O  O425  1  0.62944572  0.63114269  0.37830194  1
  O  O426  1  0.62311060  0.63655316  0.87614281  1
