# generated using pymatgen
data_V85Zn86O256
_symmetry_space_group_name_H-M   'P 1'
_cell_length_a   16.94487301
_cell_length_b   16.96536870
_cell_length_c   16.95821933
_cell_angle_alpha   90.01512041
_cell_angle_beta   90.02381759
_cell_angle_gamma   90.05943347
_symmetry_Int_Tables_number   1
_chemical_formula_structural   V85Zn86O256
_chemical_formula_sum   'V85 Zn86 O256'
_cell_volume   4875.07815481
_cell_formula_units_Z   1
loop_
 _symmetry_equiv_pos_site_id
 _symmetry_equiv_pos_as_xyz
  1  'x, y, z'
loop_
 _atom_site_type_symbol
 _atom_site_label
 _atom_site_symmetry_multiplicity
 _atom_site_fract_x
 _atom_site_fract_y
 _atom_site_fract_z
 _atom_site_occupancy
  V  V0  1  0.87846846  0.25216041  0.12502204  1
  V  V1  1  0.87596044  0.87453754  0.00036237  1
  V  V2  1  -0.00124157  0.62329255  0.62075997  1
  V  V3  1  0.87152178  0.62728585  0.74925227  1
  V  V4  1  0.38263851  0.12493507  0.24949313  1
  V  V5  1  0.62081847  0.74310817  0.36674375  1
  V  V6  1  0.49313285  0.87103843  0.37057739  1
  V  V7  1  0.49876033  0.36119133  0.37895859  1
  V  V8  1  0.00710821  0.24906166  0.25560914  1
  V  V9  1  0.24916734  -0.00471007  0.74758933  1
  V  V10  1  0.36893719  0.36505959  -0.00350229  1
  V  V11  1  0.62012741  0.36135528  0.25384054  1
  V  V12  1  0.36733858  -0.00493086  0.36934762  1
  V  V13  1  0.00235497  0.75403748  0.26038679  1
  V  V14  1  0.62337038  0.37644167  0.74761798  1
  V  V15  1  -0.00489424  -0.00080684  0.49647464  1
  V  V16  1  0.37543019  0.75155831  0.13329766  1
  V  V17  1  0.74769822  0.88833342  0.12946720  1
  V  V18  1  0.88027790  0.37868777  0.00099004  1
  V  V19  1  0.36607467  0.61617960  0.24650830  1
  V  V20  1  0.62219269  0.13073251  0.49303275  1
  V  V21  1  0.62197904  0.50423314  0.61620498  1
  V  V22  1  0.75332055  0.12734431  0.86738441  1
  V  V23  1  0.13211364  0.24808408  0.88088174  1
  V  V24  1  0.13148538  0.37234121  0.74661104  1
  V  V25  1  0.62623377  0.49782151  0.12757053  1
  V  V26  1  0.01034532  0.87485142  0.87337736  1
  V  V27  1  0.87273056  0.75316496  0.62594184  1
  V  V28  1  0.37254602  0.49628758  0.37108196  1
  V  V29  1  0.49250738  -0.00563801  0.49737205  1
  V  V30  1  0.75011454  0.25179386  0.49046446  1
  V  V31  1  0.37800230  0.86807033  -0.00536173  1
  V  V32  1  0.24315417  0.12224648  0.36372048  1
  V  V33  1  0.25175471  0.37728184  0.12443953  1
  V  V34  1  0.87471230  0.74628949  0.12970241  1
  V  V35  1  0.13617426  0.00123429  0.12621825  1
  V  V36  1  0.13291370  0.49894506  0.62333168  1
  V  V37  1  0.37425634  0.12731589  0.74820063  1
  V  V38  1  0.74049597  0.74217739  0.49950418  1
  V  V39  1  0.37323049  0.63168682  0.75595974  1
  V  V40  1  0.18332612  0.29959654  0.43178311  1
  V  V41  1  0.35775581  0.25844278  0.61405781  1
  V  V42  1  0.75122891  0.25147413  -0.00035270  1
  V  V43  1  0.13026801  0.38028288  0.24972977  1
  V  V44  1  0.74635101  0.11644490  0.37041428  1
  V  V45  1  0.25165208  0.50251765  0.75638090  1
  V  V46  1  0.75176427  0.74728289  0.00559841  1
  V  V47  1  0.00310925  0.12520868  0.12461992  1
  V  V48  1  -0.00433242  0.24311885  0.75034572  1
  V  V49  1  0.49198976  0.50006219  0.49962698  1
  V  V50  1  0.87585980  0.49755923  0.87455617  1
  V  V51  1  0.12997966  0.12418855  0.49778508  1
  V  V52  1  0.62286981  0.00200868  0.62362791  1
  V  V53  1  0.00470894  0.00018494  -0.00045242  1
  V  V54  1  0.49969022  0.37567518  0.87377532  1
  V  V55  1  0.50027694  0.62715261  0.13117281  1
  V  V56  1  0.38852864  -0.00631605  0.87160278  1
  V  V57  1  0.87225700  0.11945289  0.24951969  1
  V  V58  1  0.75542389  0.00549395  0.74356818  1
  V  V59  1  0.13000927  0.87942552  0.25407607  1
  V  V60  1  0.62574919  0.25035956  0.87324445  1
  V  V61  1  0.87677013  0.00387611  0.87109558  1
  V  V62  1  0.12887969  0.63568988  0.49487034  1
  V  V63  1  0.37729705  0.24705672  0.12599089  1
  V  V64  1  0.01230784  0.62174853  0.13414886  1
  V  V65  1  0.24192512  0.73494057  -0.01210702  1
  V  V66  1  0.62522703  0.88936216  0.24784482  1
  V  V67  1  0.62480290  0.62380079  0.00000461  1
  V  V68  1  0.87125847  0.49681331  0.38491459  1
  V  V69  1  0.87432565  0.25154212  0.62143314  1
  V  V70  1  0.00093009  0.36892934  0.87673051  1
  V  V71  1  0.75065683  0.62414117  0.87792357  1
  V  V72  1  0.74894494  0.49989438  0.25217465  1
  V  V73  1  0.00520693  0.75291968  0.75013444  1
  V  V74  1  0.74745549  0.50001014  0.74841580  1
  V  V75  1  0.49702525  0.12889320  0.62242996  1
  V  V76  1  0.50452484  -0.00264477  0.01192372  1
  V  V77  1  0.49853784  0.63281799  0.62380007  1
  V  V78  1  -0.00400101  0.12244733  0.62571442  1
  V  V79  1  0.75284687  0.37549005  0.61864621  1
  V  V80  1  0.25496656  0.12566577  0.88265992  1
  V  V81  1  0.74667215  0.87611826  0.62024063  1
  V  V82  1  0.02153787  0.53990412  -0.02993773  1
  V  V83  1  -0.00882072  0.36995660  0.38169964  1
  V  V84  1  0.49731111  0.49687662  0.00044291  1
  Zn  Zn85  1  0.24967376  0.87469118  0.12219222  1
  Zn  Zn86  1  -0.00334889  0.87362481  0.37581020  1
  Zn  Zn87  1  0.62934939  0.11557095  0.00234536  1
  Zn  Zn88  1  0.36907162  0.75918208  0.60456890  1
  Zn  Zn89  1  -0.00565702  0.49338780  0.50472489  1
  Zn  Zn90  1  0.87248001  0.62514166  0.25650054  1
  Zn  Zn91  1  0.12417519  -0.00357644  0.62598219  1
  Zn  Zn92  1  0.25060300  0.86649006  0.60108858  1
  Zn  Zn93  1  0.36840617  0.50086293  0.87750529  1
  Zn  Zn94  1  0.87439169  0.87389196  0.49496903  1
  Zn  Zn95  1  0.13318794  0.86469364  0.74701413  1
  Zn  Zn96  1  0.51224915  0.12972742  0.13116005  1
  Zn  Zn97  1  0.13231409  0.12807789  0.00377307  1
  Zn  Zn98  1  0.61863882  0.75761681  0.87690551  1
  Zn  Zn99  1  0.75108701  0.37525934  0.12677410  1
  Zn  Zn100  1  0.25183601  0.62647710  0.37865930  1
  Zn  Zn101  1  0.87126789  -0.00542550  0.36767799  1
  Zn  Zn102  1  0.49791958  0.25240303  0.74668879  1
  Zn  Zn103  1  0.74371707  0.62037330  0.38043855  1
  Zn  Zn104  1  0.61850418  0.87720179  0.75630589  1
  Zn  Zn105  1  0.13184467  0.50412540  0.12633131  1
  Zn  Zn106  1  0.49549604  0.76870489  0.76711509  1
  Zn  Zn107  1  0.19244864  0.19416572  0.18491006  1
  Zn  Zn108  1  0.18504236  0.18287022  0.68998463  1
  Zn  Zn109  1  0.22681353  0.73593632  0.24222884  1
  Zn  Zn110  1  0.18975601  0.68656617  0.68357720  1
  Zn  Zn111  1  0.68957612  0.18377783  0.18331816  1
  Zn  Zn112  1  0.68584197  0.18914249  0.68531456  1
  Zn  Zn113  1  0.68703469  0.68789213  0.19038845  1
  Zn  Zn114  1  0.67969353  0.69037250  0.69084949  1
  Zn  Zn115  1  0.32055170  0.31308226  0.30495654  1
  Zn  Zn116  1  0.31279912  0.31163147  0.80789990  1
  Zn  Zn117  1  0.29911211  0.79853346  0.43132959  1
  Zn  Zn118  1  0.31257442  0.80898541  0.81354841  1
  Zn  Zn119  1  0.81299548  0.31130168  0.30930917  1
  Zn  Zn120  1  0.81399283  0.31250522  0.80709753  1
  Zn  Zn121  1  0.80861264  0.81405972  0.31291181  1
  Zn  Zn122  1  0.78756232  0.82625269  0.82314064  1
  Zn  Zn123  1  0.18268554  0.46201449  0.43426348  1
  Zn  Zn124  1  0.18718491  0.43675304  0.93880616  1
  Zn  Zn125  1  0.18002725  0.94452104  0.43220665  1
  Zn  Zn126  1  0.19437145  0.93664300  0.93855199  1
  Zn  Zn127  1  0.68187644  0.43393773  0.43643901  1
  Zn  Zn128  1  0.68711715  0.43668610  0.93905306  1
  Zn  Zn129  1  0.68200602  0.93628746  0.43716829  1
  Zn  Zn130  1  0.68917318  0.93645222  0.93946835  1
  Zn  Zn131  1  0.31984917  0.05997863  0.06107864  1
  Zn  Zn132  1  0.31189494  0.06034937  0.55967764  1
  Zn  Zn133  1  0.31114996  0.56079592  0.06176680  1
  Zn  Zn134  1  0.31462591  0.56702157  0.56338796  1
  Zn  Zn135  1  0.81561387  0.06596840  0.05815121  1
  Zn  Zn136  1  0.81414336  0.06775185  0.55956308  1
  Zn  Zn137  1  0.82110712  0.55993575  0.06449845  1
  Zn  Zn138  1  0.81023559  0.56362307  0.56147213  1
  Zn  Zn139  1  0.44017601  0.43291143  0.18787627  1
  Zn  Zn140  1  0.43413320  0.43746503  0.68578585  1
  Zn  Zn141  1  0.43681760  0.93406698  0.19228981  1
  Zn  Zn142  1  0.43399778  0.93059350  0.68324836  1
  Zn  Zn143  1  0.93813678  0.43810449  0.19514453  1
  Zn  Zn144  1  0.93820504  0.43492601  0.68917856  1
  Zn  Zn145  1  0.93993049  0.93704009  0.18443690  1
  Zn  Zn146  1  0.93570795  0.93679818  0.68628461  1
  Zn  Zn147  1  0.06174871  0.06087018  0.31241165  1
  Zn  Zn148  1  0.06619696  0.06380876  0.81318367  1
  Zn  Zn149  1  0.05796890  0.55993634  0.31445943  1
  Zn  Zn150  1  0.06116414  0.56390470  0.80215363  1
  Zn  Zn151  1  0.56060483  0.06311703  0.31446301  1
  Zn  Zn152  1  0.56523727  0.06246341  0.81041772  1
  Zn  Zn153  1  0.55906688  0.55770331  0.31256272  1
  Zn  Zn154  1  0.55979056  0.56739759  0.81163116  1
  Zn  Zn155  1  0.42816466  0.18420559  0.43922891  1
  Zn  Zn156  1  0.44183742  0.18487043  0.93850908  1
  Zn  Zn157  1  0.44524888  0.67936120  0.43381863  1
  Zn  Zn158  1  0.43421721  0.68644838  0.94023959  1
  Zn  Zn159  1  0.93488571  0.18469773  0.43791661  1
  Zn  Zn160  1  0.93817629  0.18503381  0.93883011  1
  Zn  Zn161  1  0.93182858  0.68534617  0.43956527  1
  Zn  Zn162  1  0.94563498  0.68963220  0.93549800  1
  Zn  Zn163  1  0.06630439  0.31293512  0.06340899  1
  Zn  Zn164  1  0.06008039  0.31410303  0.56718492  1
  Zn  Zn165  1  0.06411932  0.80927965  0.06802780  1
  Zn  Zn166  1  0.06612751  0.81732635  0.56414819  1
  Zn  Zn167  1  0.56381822  0.30991401  0.06437197  1
  Zn  Zn168  1  0.56072557  0.31209661  0.56009741  1
  Zn  Zn169  1  0.56249876  0.81244192  0.06279542  1
  Zn  Zn170  1  0.56143178  0.81336751  0.55955133  1
  O  O171  1  0.12248293  0.12031613  0.12484125  1
  O  O172  1  0.11344368  0.12557122  0.61647565  1
  O  O173  1  0.11062936  0.62284037  0.12973292  1
  O  O174  1  0.11592985  0.61765593  0.62024852  1
  O  O175  1  0.62427771  0.13020341  0.11422819  1
  O  O176  1  0.61642729  0.12119335  0.61842227  1
  O  O177  1  0.61943362  0.61956918  0.11959349  1
  O  O178  1  0.61362012  0.61325203  0.63276614  1
  O  O179  1  0.39089043  0.38093920  0.36632046  1
  O  O180  1  0.38090196  0.37568843  0.87984944  1
  O  O181  1  0.38825400  0.88181444  0.36911135  1
  O  O182  1  0.37317286  0.88320751  0.88245182  1
  O  O183  1  0.88173850  0.38084406  0.37134475  1
  O  O184  1  0.88218454  0.37797291  0.87757458  1
  O  O185  1  0.87595904  0.87848266  0.37744674  1
  O  O186  1  0.87557554  0.88939705  0.87921917  1
  O  O187  1  0.25667473  0.01105248  0.37252418  1
  O  O188  1  0.26088976  0.00787866  0.86727729  1
  O  O189  1  0.26714603  0.50660162  0.37581569  1
  O  O190  1  0.24607303  0.49764918  0.86143115  1
  O  O191  1  0.75110565  0.01337607  0.38147153  1
  O  O192  1  0.75739684  0.01019267  0.86749617  1
  O  O193  1  0.75237763  0.49836978  0.37123209  1
  O  O194  1  0.75547426  0.50707059  0.87223125  1
  O  O195  1  0.24884719  0.48389206  0.12019988  1
  O  O196  1  0.23751175  0.50383466  0.63469396  1
  O  O197  1  0.23923792  0.99980888  0.11960453  1
  O  O198  1  0.24973548  1.00637535  0.64089838  1
  O  O199  1  0.74690555  0.49622105  0.13289991  1
  O  O200  1  0.74221201  0.49333513  0.62645564  1
  O  O201  1  0.75702121  0.98687844  0.11695671  1
  O  O202  1  0.74753094  0.99894994  0.62763861  1
  O  O203  1  0.00637522  0.36728360  0.26138182  1
  O  O204  1  0.00695777  0.36502555  0.75912827  1
  O  O205  1  0.00313713  0.86776141  0.24954697  1
  O  O206  1  0.00113056  0.86896533  0.75507189  1
  O  O207  1  0.51247486  0.37480418  0.26046325  1
  O  O208  1  0.50570509  0.37531714  0.75660827  1
  O  O209  1  0.51343764  0.87615742  0.25697688  1
  O  O210  1  0.50478351  0.88396104  0.75342218  1
  O  O211  1  0.48779280  0.12222544  0.24919390  1
  O  O212  1  0.49257619  0.12471191  0.73988512  1
  O  O213  1  0.49797708  0.61774521  0.23376763  1
  O  O214  1  0.48680895  0.61937618  0.73956376  1
  O  O215  1  0.99488485  0.13307465  0.24494798  1
  O  O216  1  1.00658007  0.13502766  0.74202362  1
  O  O217  1  0.99788694  0.63391558  0.24592261  1
  O  O218  1  0.99068424  0.63257639  0.73745254  1
  O  O219  1  0.37842288  0.26069384  0.00110141  1
  O  O220  1  0.36963090  0.24457657  0.51484795  1
  O  O221  1  0.36552271  0.75396770  0.00713412  1
  O  O222  1  0.37426939  0.73933647  0.49225139  1
  O  O223  1  0.86773991  0.25533400  0.00259399  1
  O  O224  1  0.86602519  0.24538958  0.51302031  1
  O  O225  1  0.87161468  0.75497845  0.00875783  1
  O  O226  1  0.86483184  0.74945091  0.51186818  1
  O  O227  1  0.12334215  0.24441242  0.49692972  1
  O  O228  1  0.12241047  0.24842618  0.98462842  1
  O  O229  1  0.11682920  0.73375958  0.50287561  1
  O  O230  1  0.14498567  0.75645402  1.00909005  1
  O  O231  1  0.63451364  0.23784026  0.50731138  1
  O  O232  1  0.64097065  0.25731855  0.99211341  1
  O  O233  1  0.63218378  0.75897342  0.48452417  1
  O  O234  1  0.63629060  0.74175252  1.00123250  1
  O  O235  1  0.48407278  0.24730217  0.11548424  1
  O  O236  1  0.49584962  0.23804534  0.62387598  1
  O  O237  1  0.48793725  0.73697921  0.11039851  1
  O  O238  1  0.50039525  0.73738787  0.62117600  1
  O  O239  1  0.99684546  0.24453826  0.13064462  1
  O  O240  1  0.99245719  0.24539242  0.63075940  1
  O  O241  1  0.99238207  0.74181951  0.13515435  1
  O  O242  1  0.99005791  0.74562366  0.62990687  1
  O  O243  1  -0.00780581  0.25523395  0.36573124  1
  O  O244  1  0.00500232  0.25017456  0.86629453  1
  O  O245  1  -0.00651124  0.74830521  0.36344665  1
  O  O246  1  -0.01509675  0.76642765  0.86139192  1
  O  O247  1  0.49452092  0.26262406  0.38342865  1
  O  O248  1  0.50759407  0.25788829  0.87370023  1
  O  O249  1  0.51390518  0.75811655  0.37814060  1
  O  O250  1  0.50682536  0.74246148  0.87962514  1
  O  O251  1  0.23509549  0.11944329  0.49196333  1
  O  O252  1  0.25401404  0.12091216  0.98623077  1
  O  O253  1  0.23262011  0.61960110  0.50165885  1
  O  O254  1  0.25165922  0.63488821  0.99991738  1
  O  O255  1  0.74201113  0.13244456  0.49298198  1
  O  O256  1  0.75288403  0.13452188  0.98648632  1
  O  O257  1  0.74606904  0.63806619  0.50185928  1
  O  O258  1  0.74843149  0.62461761  0.99584396  1
  O  O259  1  0.25976988  0.37656661  0.00464745  1
  O  O260  1  0.23191316  0.36536185  0.48603052  1
  O  O261  1  0.26559254  0.87240797  0.00352736  1
  O  O262  1  0.24697209  0.87886269  0.48785791  1
  O  O263  1  0.76161172  0.36975137  -0.00036430  1
  O  O264  1  0.74165592  0.36617726  0.51068488  1
  O  O265  1  0.75751671  0.86714539  0.00984055  1
  O  O266  1  0.74981037  0.87029659  0.50841602  1
  O  O267  1  0.11935596  0.48373128  0.25104057  1
  O  O268  1  0.12915813  0.49419957  0.74427387  1
  O  O269  1  0.11583006  0.99039497  0.23791179  1
  O  O270  1  0.14087471  1.00294380  0.75041565  1
  O  O271  1  0.63031714  0.49167888  0.24528872  1
  O  O272  1  0.62961948  0.49435191  0.74170122  1
  O  O273  1  0.62502146  0.98832769  0.25299309  1
  O  O274  1  0.63977644  1.00299452  0.74252290  1
  O  O275  1  0.37653843  0.00642579  0.26109104  1
  O  O276  1  0.36801181  0.01006370  0.75536696  1
  O  O277  1  0.38328673  0.50429970  0.25693469  1
  O  O278  1  0.36546275  0.50499328  0.75063351  1
  O  O279  1  0.88006145  0.01618161  0.24564266  1
  O  O280  1  0.86387610  0.00022387  0.75496434  1
  O  O281  1  0.86388619  0.49860928  0.26184083  1
  O  O282  1  0.86683829  0.50426423  0.75447503  1
  O  O283  1  0.12468295  0.36836925  0.37161743  1
  O  O284  1  0.11851244  0.36712814  0.86868292  1
  O  O285  1  0.11508395  0.88534166  0.35698465  1
  O  O286  1  0.11288439  0.88199863  0.87138035  1
  O  O287  1  0.61317113  0.37545812  0.36361147  1
  O  O288  1  0.62113849  0.37123803  0.86749374  1
  O  O289  1  0.61935783  0.87018542  0.36357403  1
  O  O290  1  0.67399641  0.86040893  0.86067100  1
  O  O291  1  0.37377632  0.13062678  0.13305230  1
  O  O292  1  0.38000526  0.12976404  0.63073803  1
  O  O293  1  0.38313910  0.62758510  0.12676783  1
  O  O294  1  0.38443371  0.62433400  0.63525243  1
  O  O295  1  0.88048879  0.13317684  0.12956324  1
  O  O296  1  0.88788913  0.13380844  0.62283359  1
  O  O297  1  0.87315104  0.63720197  0.13468953  1
  O  O298  1  0.87903829  0.63066614  0.62895217  1
  O  O299  1  0.26314737  0.26151624  0.12181358  1
  O  O300  1  0.25877998  0.24601887  0.63076115  1
  O  O301  1  0.26793924  0.75133398  0.12597466  1
  O  O302  1  0.25765618  0.75707572  0.63709799  1
  O  O303  1  0.75983742  0.25420098  0.11433919  1
  O  O304  1  0.75688839  0.25593750  0.61935284  1
  O  O305  1  0.75713778  0.75426048  0.12203075  1
  O  O306  1  0.75078390  0.75810904  0.61937898  1
  O  O307  1  0.25149313  0.24549528  0.37631200  1
  O  O308  1  0.24229247  0.23994339  0.86601387  1
  O  O309  1  0.25200316  0.73480265  0.35286390  1
  O  O310  1  0.24947830  0.74929888  0.88799326  1
  O  O311  1  0.75699412  0.24491240  0.38766579  1
  O  O312  1  0.74979720  0.24487421  0.87780413  1
  O  O313  1  0.73893905  0.74794368  0.38263809  1
  O  O314  1  0.76154482  0.73087813  0.88607718  1
  O  O315  1  0.00424151  0.11901809  0.00691128  1
  O  O316  1  0.00729859  0.12183047  0.50600893  1
  O  O317  1  -0.01674258  0.62746913  0.02758778  1
  O  O318  1  0.00205544  0.62333871  0.51167849  1
  O  O319  1  0.49974944  0.10807330  0.00092791  1
  O  O320  1  0.50566226  0.11986073  0.50268688  1
  O  O321  1  0.50259448  0.61002463  0.00727382  1
  O  O322  1  0.50214420  0.61020270  0.51084795  1
  O  O323  1  0.50715900  0.38251808  0.48598322  1
  O  O324  1  0.49587487  0.38229881  0.99484702  1
  O  O325  1  0.50839572  0.88933711  0.48907552  1
  O  O326  1  0.49045454  0.88450777  1.00394259  1
  O  O327  1  1.00458545  0.37287775  0.48581431  1
  O  O328  1  0.99575676  0.36473985  0.98529305  1
  O  O329  1  0.99835689  0.88536577  0.49844443  1
  O  O330  1  0.99500604  0.87807993  0.99224143  1
  O  O331  1  0.49447005  0.49258856  0.38358139  1
  O  O332  1  0.50156959  0.49166067  0.88397905  1
  O  O333  1  0.49264231  0.99307754  0.37990990  1
  O  O334  1  0.49052495  1.00627055  0.87980379  1
  O  O335  1  0.98802876  0.48937623  0.37651880  1
  O  O336  1  0.99551264  0.48355305  0.87024711  1
  O  O337  1  0.99296787  1.00300628  0.38432307  1
  O  O338  1  0.99406428  0.99583026  0.87697008  1
  O  O339  1  0.00664316  0.00785006  0.11709964  1
  O  O340  1  -0.00019898  0.00862393  0.62052577  1
  O  O341  1  -0.00175345  0.51654508  0.13486107  1
  O  O342  1  0.00490594  0.50826171  0.62776227  1
  O  O343  1  0.49392745  0.00116177  0.11320387  1
  O  O344  1  0.50045366  0.01221066  0.61460790  1
  O  O345  1  0.50628224  0.50210669  0.11683214  1
  O  O346  1  0.50442091  0.50239399  0.61760284  1
  O  O347  1  0.24077727  0.36740342  0.24112905  1
  O  O348  1  0.23679139  0.38116295  0.75270948  1
  O  O349  1  0.23056848  0.87090885  0.24233308  1
  O  O350  1  0.25045922  0.89115796  0.76008270  1
  O  O351  1  0.73908889  0.38308291  0.25169439  1
  O  O352  1  0.74424997  0.38031496  0.73933546  1
  O  O353  1  0.73720385  0.87427205  0.24282304  1
  O  O354  1  0.75459734  0.88753402  0.72949387  1
  O  O355  1  0.25675643  0.13225348  0.25969596  1
  O  O356  1  0.25738240  0.11674681  0.75853992  1
  O  O357  1  0.26547819  0.61883972  0.24112207  1
  O  O358  1  0.26405699  0.61713172  0.74704337  1
  O  O359  1  0.75946741  0.13455927  0.25990766  1
  O  O360  1  0.74930115  0.12264382  0.75901288  1
  O  O361  1  0.74681604  0.60986549  0.25346832  1
  O  O362  1  0.75271372  0.61956714  0.75760624  1
  O  O363  1  0.36613410  0.11928283  0.36617497  1
  O  O364  1  0.37223870  0.12030064  0.86643254  1
  O  O365  1  0.38466828  0.61221333  0.35964913  1
  O  O366  1  0.38063765  0.61742962  0.85927909  1
  O  O367  1  0.86582252  0.12388712  0.36538939  1
  O  O368  1  0.86999446  0.11275570  0.87732695  1
  O  O369  1  0.86794293  0.61354566  0.37468556  1
  O  O370  1  0.87169105  0.61675607  0.86876010  1
  O  O371  1  0.13259022  0.37617750  0.13221158  1
  O  O372  1  0.11602393  0.38535642  0.63622977  1
  O  O373  1  0.12229731  0.88755558  0.13055014  1
  O  O374  1  0.13215584  0.88012662  0.63092207  1
  O  O375  1  0.62512841  0.37930620  0.13668534  1
  O  O376  1  0.63026377  0.38039246  0.63048975  1
  O  O377  1  0.63197079  0.86935157  0.13896049  1
  O  O378  1  0.63192318  0.88529088  0.62261962  1
  O  O379  1  0.11247113  0.25874650  0.24500070  1
  O  O380  1  0.11721314  0.25623195  0.75634470  1
  O  O381  1  0.11258111  0.76934896  0.24049643  1
  O  O382  1  0.10825890  0.74450056  0.74961803  1
  O  O383  1  0.63210177  0.26401322  0.24757527  1
  O  O384  1  0.62314635  0.25854533  0.75452463  1
  O  O385  1  0.62997375  0.75781046  0.26375829  1
  O  O386  1  0.61651343  0.75505853  0.75483558  1
  O  O387  1  0.37586308  0.23909653  0.23847583  1
  O  O388  1  0.37693970  0.23732487  0.74405501  1
  O  O389  1  0.38281301  0.73641498  0.23268427  1
  O  O390  1  0.37993051  0.73751497  0.75240332  1
  O  O391  1  0.88424104  0.24373208  0.24251181  1
  O  O392  1  0.88597485  0.25328939  0.73869150  1
  O  O393  1  0.88080857  0.74962466  0.24429730  1
  O  O394  1  0.87515320  0.74655733  0.73700104  1
  O  O395  1  0.38359727  0.50179229  0.49218004  1
  O  O396  1  0.38315310  0.48909630  0.99812825  1
  O  O397  1  0.38448038  1.01146396  0.48432378  1
  O  O398  1  0.38524951  0.99106523  0.99160164  1
  O  O399  1  0.87363065  0.49952836  0.49023393  1
  O  O400  1  0.89472518  0.49921280  0.99009411  1
  O  O401  1  0.88605854  1.00190960  0.50027239  1
  O  O402  1  0.88404733  0.99508005  0.99205053  1
  O  O403  1  0.12037339  0.00182559  0.00579436  1
  O  O404  1  0.11118050  0.01005090  0.50240629  1
  O  O405  1  0.10856759  0.49411604  0.00395250  1
  O  O406  1  0.11464021  0.50768580  0.51167954  1
  O  O407  1  0.60858812  -0.00488222  -0.00721810  1
  O  O408  1  0.61732395  0.01194904  0.50452639  1
  O  O409  1  0.61910491  0.50235674  0.00812009  1
  O  O410  1  0.61806649  0.49535686  0.51200021  1
  O  O411  1  0.37110427  0.36866091  0.11784961  1
  O  O412  1  0.37711249  0.35635036  0.63032751  1
  O  O413  1  0.37820112  0.86232707  0.12083136  1
  O  O414  1  0.36637515  0.87514525  0.61829686  1
  O  O415  1  0.87871465  0.36987855  0.11948208  1
  O  O416  1  0.86429137  0.36782985  0.62810563  1
  O  O417  1  0.86919992  0.86467918  0.12246671  1
  O  O418  1  0.86753062  0.86716515  0.61979523  1
  O  O419  1  0.13221774  0.12411018  0.38029987  1
  O  O420  1  0.13618137  0.13193748  0.87617605  1
  O  O421  1  0.12248041  0.61396253  0.39232224  1
  O  O422  1  0.05418828  0.61595768  0.90205728  1
  O  O423  1  0.63112601  0.12525473  0.38217599  1
  O  O424  1  0.63518452  0.13175480  0.87837732  1
  O  O425  1  0.62209097  0.63904202  0.36928356  1
  O  O426  1  0.63668358  0.61989362  0.88318623  1
