# generated using pymatgen
data_V85Zn86O256
_symmetry_space_group_name_H-M   'P 1'
_cell_length_a   16.95799979
_cell_length_b   16.95507943
_cell_length_c   16.95032421
_cell_angle_alpha   90.04355882
_cell_angle_beta   90.06591203
_cell_angle_gamma   90.01351627
_symmetry_Int_Tables_number   1
_chemical_formula_structural   V85Zn86O256
_chemical_formula_sum   'V85 Zn86 O256'
_cell_volume   4873.62420446
_cell_formula_units_Z   1
loop_
 _symmetry_equiv_pos_site_id
 _symmetry_equiv_pos_as_xyz
  1  'x, y, z'
loop_
 _atom_site_type_symbol
 _atom_site_label
 _atom_site_symmetry_multiplicity
 _atom_site_fract_x
 _atom_site_fract_y
 _atom_site_fract_z
 _atom_site_occupancy
  V  V0  1  0.12122005  0.86946870  0.26449191  1
  V  V1  1  0.25169470  0.37151967  0.13293287  1
  V  V2  1  0.12308167  0.74947578  0.86788883  1
  V  V3  1  0.75117210  0.87423807  0.62499551  1
  V  V4  1  0.49879568  0.50199784  0.00229343  1
  V  V5  1  0.75271939  0.37262819  0.11981013  1
  V  V6  1  0.12463927  0.12156876  0.50476273  1
  V  V7  1  0.12414800  0.25171044  0.86687250  1
  V  V8  1  0.75204269  0.37122180  0.62336276  1
  V  V9  1  0.00084575  0.75117764  0.26773616  1
  V  V10  1  0.12987850  0.62224226  0.00016240  1
  V  V11  1  0.87789234  0.13127798  0.75186698  1
  V  V12  1  0.24245926  0.63122302  0.37556410  1
  V  V13  1  0.50397549  0.49794660  0.49114547  1
  V  V14  1  -0.06005264  0.69107645  0.79549339  1
  V  V15  1  0.87887207  0.74863825  0.62639286  1
  V  V16  1  0.37430652  0.12360274  0.74792266  1
  V  V17  1  0.00924620  0.37034371  0.36144869  1
  V  V18  1  0.49528669  0.25460628  0.25442172  1
  V  V19  1  0.49863986  0.00084935  0.00065275  1
  V  V20  1  0.62323840  0.37563351  0.25394909  1
  V  V21  1  0.49758266  0.86955323  0.87400974  1
  V  V22  1  0.12815246  0.49454722  0.13175117  1
  V  V23  1  0.38030023  0.37590614  0.49296814  1
  V  V24  1  0.37052975  0.25963766  0.62399712  1
  V  V25  1  0.87732400  0.87867331  0.48792863  1
  V  V26  1  0.49759536  0.75212417  0.25012452  1
  V  V27  1  0.24548750  -0.00452547  0.73636095  1
  V  V28  1  0.50129313  0.25266534  0.74829729  1
  V  V29  1  0.00354496  0.63298953  0.12611613  1
  V  V30  1  0.62354040  0.75234225  0.37310260  1
  V  V31  1  0.04309244  0.18221265  0.18810864  1
  V  V32  1  0.87906819  0.24864612  0.62107049  1
  V  V33  1  -0.00146319  -0.00461915  0.48967148  1
  V  V34  1  0.37581454  0.37235205  0.00461592  1
  V  V35  1  0.87422189  0.87725353  0.01097340  1
  V  V36  1  0.74992495  0.74758096  0.00738058  1
  V  V37  1  0.25059551  0.75236964  0.00077972  1
  V  V38  1  0.37286205  0.88666229  0.50000189  1
  V  V39  1  0.49725170  0.13029687  0.12556906  1
  V  V40  1  0.75237816  0.49987761  0.24512033  1
  V  V41  1  0.62755391  0.50211022  0.62577746  1
  V  V42  1  0.37106783  0.75402342  0.62634889  1
  V  V43  1  0.49710882  0.89099916  0.37934908  1
  V  V44  1  0.37414490  0.62283075  0.25062154  1
  V  V45  1  0.62896440  0.37649572  0.74801799  1
  V  V46  1  0.62745627  0.00144669  0.12617367  1
  V  V47  1  0.62625950  0.62557423  0.49756491  1
  V  V48  1  0.61882927  0.87182422  0.75021022  1
  V  V49  1  0.24919544  0.12120964  0.87489417  1
  V  V50  1  0.25645565  0.24829451  0.00137957  1
  V  V51  1  0.25680732  0.12314141  0.38020559  1
  V  V52  1  0.87658033  0.12935834  0.25057449  1
  V  V53  1  0.87799513  0.50040300  0.37589085  1
  V  V54  1  0.00407777  0.49771358  0.50392162  1
  V  V55  1  -0.00771017  0.37413757  0.86721198  1
  V  V56  1  0.50353613  0.63210976  0.62979392  1
  V  V57  1  0.12307819  0.12640413  0.00188857  1
  V  V58  1  0.49788013  0.37468288  0.87321445  1
  V  V59  1  0.62720709  0.74292289  0.87494799  1
  V  V60  1  0.12372425  0.87838139  0.74146246  1
  V  V61  1  0.38017840  0.11830612  0.25321919  1
  V  V62  1  0.75095596  0.00297221  0.75124220  1
  V  V63  1  0.75797724  0.12695410  0.38073246  1
  V  V64  1  0.62729087  0.25301095  0.37880241  1
  V  V65  1  0.12064152  -0.00301984  0.12876563  1
  V  V66  1  0.75215528  0.62634808  0.37265966  1
  V  V67  1  0.00257286  0.62574609  0.62618250  1
  V  V68  1  0.62091552  -0.00102802  0.62000598  1
  V  V69  1  0.00150211  0.11813213  0.62829507  1
  V  V70  1  0.13846059  0.38002880  0.74251209  1
  V  V71  1  0.75079113  0.75075379  0.49943577  1
  V  V72  1  -0.00130560  0.00582198  0.00305080  1
  V  V73  1  0.37290908  -0.00305270  0.87393668  1
  V  V74  1  0.25162170  0.61927454  0.86363512  1
  V  V75  1  0.25393610  -0.00418795  0.25600247  1
  V  V76  1  0.63095209  0.12930904  0.50216516  1
  V  V77  1  0.49895385  0.12366916  0.61822024  1
  V  V78  1  -0.00414145  0.49136652  -0.00192279  1
  V  V79  1  0.87296857  0.36980978  0.49565582  1
  V  V80  1  -0.00395031  0.87657637  0.87102431  1
  V  V81  1  0.24487754  0.25941253  0.50196928  1
  V  V82  1  0.87725315  0.24988273  0.11991040  1
  V  V83  1  0.75606328  0.00061542  0.25585462  1
  V  V84  1  0.87530744  0.62938282  0.23667635  1
  Zn  Zn85  1  0.62857606  0.12658702  -0.00279730  1
  Zn  Zn86  1  0.24603937  0.75955234  0.49665520  1
  Zn  Zn87  1  0.75347056  0.87759296  0.12912780  1
  Zn  Zn88  1  0.37710530  0.62195525  0.74437480  1
  Zn  Zn89  1  0.62520648  0.62199531  -0.00154784  1
  Zn  Zn90  1  0.80373688  0.55106063  0.82829636  1
  Zn  Zn91  1  0.37470301  0.75268770  0.12504158  1
  Zn  Zn92  1  0.62715622  0.24687211  0.87841686  1
  Zn  Zn93  1  0.62230149  0.50116338  0.12661728  1
  Zn  Zn94  1  0.50071460  0.62671930  0.12387887  1
  Zn  Zn95  1  0.12096115  0.63743561  0.49556739  1
  Zn  Zn96  1  0.75048220  0.24755641  -0.00343077  1
  Zn  Zn97  1  0.12335340  0.24943764  0.36436746  1
  Zn  Zn98  1  0.37685124  0.49768389  0.37229250  1
  Zn  Zn99  1  0.62637490  0.87796333  0.25174937  1
  Zn  Zn100  1  0.24952376  0.49493816  0.25490821  1
  Zn  Zn101  1  0.87349216  0.00354805  0.87770446  1
  Zn  Zn102  1  0.14296978  0.50519693  0.62430796  1
  Zn  Zn103  1  0.74769703  0.12914183  0.87623507  1
  Zn  Zn104  1  0.24946655  0.87438889  0.12642786  1
  Zn  Zn105  1  0.36938982  0.49630588  0.86833077  1
  Zn  Zn106  1  0.37286751  0.87532490  0.00314830  1
  Zn  Zn107  1  0.20741872  0.18451837  0.18528423  1
  Zn  Zn108  1  0.18753668  0.18630531  0.68659671  1
  Zn  Zn109  1  0.18781879  0.68774997  0.19022126  1
  Zn  Zn110  1  0.18459549  0.69390532  0.68053473  1
  Zn  Zn111  1  0.68777327  0.18779990  0.18846800  1
  Zn  Zn112  1  0.69116583  0.19072553  0.68687662  1
  Zn  Zn113  1  0.68408378  0.68669637  0.18255743  1
  Zn  Zn114  1  0.69023663  0.68873662  0.69410757  1
  Zn  Zn115  1  0.31408339  0.30702223  0.31629087  1
  Zn  Zn116  1  0.31351010  0.30795817  0.81634880  1
  Zn  Zn117  1  0.31569048  0.81386352  0.31534424  1
  Zn  Zn118  1  0.31038940  0.80979527  0.80787240  1
  Zn  Zn119  1  0.81308132  0.30973559  0.30893843  1
  Zn  Zn120  1  0.81059619  0.31237993  0.80920455  1
  Zn  Zn121  1  0.81455739  0.81073619  0.30778599  1
  Zn  Zn122  1  0.80516644  0.81937934  0.82041709  1
  Zn  Zn123  1  0.18854090  0.44257323  0.43662375  1
  Zn  Zn124  1  0.18585360  0.43572501  0.93899414  1
  Zn  Zn125  1  0.18587581  0.93983025  0.44226176  1
  Zn  Zn126  1  0.18474888  0.93675293  0.93463624  1
  Zn  Zn127  1  0.69268431  0.43794765  0.43611172  1
  Zn  Zn128  1  0.68336454  0.43091457  0.93574134  1
  Zn  Zn129  1  0.68802320  0.94016469  0.43740990  1
  Zn  Zn130  1  0.68648332  0.93922954  0.93829559  1
  Zn  Zn131  1  0.31351545  0.06049314  0.06715048  1
  Zn  Zn132  1  0.31402338  0.06453878  0.56270483  1
  Zn  Zn133  1  0.31549876  0.56136091  0.06357311  1
  Zn  Zn134  1  0.31729970  0.56698851  0.55605899  1
  Zn  Zn135  1  0.81423606  0.06810644  0.06653016  1
  Zn  Zn136  1  0.81379806  0.06044180  0.56274971  1
  Zn  Zn137  1  0.79129521  0.53740330  0.02556751  1
  Zn  Zn138  1  0.81141181  0.55961183  0.66654535  1
  Zn  Zn139  1  0.43643889  0.43625780  0.18738088  1
  Zn  Zn140  1  0.31611713  0.44598833  0.68920690  1
  Zn  Zn141  1  0.43664127  0.93597634  0.18744015  1
  Zn  Zn142  1  0.43661734  0.93663500  0.68613650  1
  Zn  Zn143  1  0.93662452  0.43972346  0.18279955  1
  Zn  Zn144  1  0.94019882  0.43714044  0.69416568  1
  Zn  Zn145  1  0.94012366  0.94053456  0.19429486  1
  Zn  Zn146  1  0.93742087  0.93902255  0.68482039  1
  Zn  Zn147  1  0.07005408  0.05564948  0.32316207  1
  Zn  Zn148  1  0.06116727  0.06124960  0.81268185  1
  Zn  Zn149  1  0.06255895  0.55971085  0.31161839  1
  Zn  Zn150  1  0.06852307  0.55239245  0.81352292  1
  Zn  Zn151  1  0.56984246  0.06569036  0.31272772  1
  Zn  Zn152  1  0.56197994  0.06119495  0.81061918  1
  Zn  Zn153  1  0.56222293  0.56442504  0.30973164  1
  Zn  Zn154  1  0.56030030  0.55855649  0.80980445  1
  Zn  Zn155  1  0.44036453  0.18808455  0.43728256  1
  Zn  Zn156  1  0.43934056  0.18624235  0.93640983  1
  Zn  Zn157  1  0.43427141  0.69116476  0.43841672  1
  Zn  Zn158  1  0.43564177  0.68893293  0.93660698  1
  Zn  Zn159  1  0.94114399  0.18980937  0.43783669  1
  Zn  Zn160  1  0.93776408  0.18994867  0.93583975  1
  Zn  Zn161  1  0.93464407  0.68407077  0.44192672  1
  Zn  Zn162  1  0.93557011  0.68866243  0.96202654  1
  Zn  Zn163  1  0.06918137  0.31535129  0.05624404  1
  Zn  Zn164  1  0.05925733  0.30931980  0.56268782  1
  Zn  Zn165  1  0.06526829  0.81533343  0.06212320  1
  Zn  Zn166  1  0.06240745  0.81101184  0.55851608  1
  Zn  Zn167  1  0.56522735  0.31101047  0.06570393  1
  Zn  Zn168  1  0.56111576  0.31267743  0.56142556  1
  Zn  Zn169  1  0.56400082  0.81595166  0.06254101  1
  Zn  Zn170  1  0.55848962  0.81376582  0.55911473  1
  O  O171  1  0.11759277  0.12246884  0.12636499  1
  O  O172  1  0.11619338  0.13098315  0.61410367  1
  O  O173  1  0.12230276  0.61773537  0.11780530  1
  O  O174  1  0.11602550  0.62274901  0.62238296  1
  O  O175  1  0.61609624  0.11548514  0.12807079  1
  O  O176  1  0.62131747  0.12108776  0.61947980  1
  O  O177  1  0.61917057  0.61952900  0.11886167  1
  O  O178  1  0.62354220  0.62192559  0.61652807  1
  O  O179  1  0.37409475  0.37386317  0.38856639  1
  O  O180  1  0.38090887  0.37349909  0.88507546  1
  O  O181  1  0.38836654  0.87543030  0.38487374  1
  O  O182  1  0.38136893  0.87853945  0.87398373  1
  O  O183  1  0.88137662  0.37926041  0.37834236  1
  O  O184  1  0.89358810  0.36909210  0.86692861  1
  O  O185  1  0.87111498  0.86996864  0.38906886  1
  O  O186  1  0.88210927  0.88017151  0.88603237  1
  O  O187  1  0.24290335  0.00963373  0.36444121  1
  O  O188  1  0.25642881  0.00524968  0.87211181  1
  O  O189  1  0.25520866  0.51023068  0.37216547  1
  O  O190  1  0.24784430  0.51643865  0.88115218  1
  O  O191  1  0.74500834  0.01272752  0.36750090  1
  O  O192  1  0.75063242  -0.00065096  0.86047132  1
  O  O193  1  0.76038081  0.50512331  0.36615788  1
  O  O194  1  0.75573027  0.51200537  0.91885968  1
  O  O195  1  0.24505048  0.49008517  0.12477391  1
  O  O196  1  0.25374818  0.49623287  0.61237314  1
  O  O197  1  0.23786282  1.00352941  0.13860600  1
  O  O198  1  0.25099945  1.00418307  0.63723381  1
  O  O199  1  0.75007347  0.49102464  0.12749392  1
  O  O200  1  0.73530292  0.48680252  0.61527091  1
  O  O201  1  0.74268036  1.00148361  0.13424744  1
  O  O202  1  0.74351181  0.99458551  0.63401957  1
  O  O203  1  -0.00201568  0.38128211  0.26386560  1
  O  O204  1  0.01402080  0.37721867  0.76328459  1
  O  O205  1  0.01142800  0.86642780  0.24783362  1
  O  O206  1  0.00357019  0.88559341  0.76527577  1
  O  O207  1  0.50797827  0.36477107  0.24593137  1
  O  O208  1  0.50485305  0.36115654  0.75647863  1
  O  O209  1  0.50034432  0.87020631  0.26307690  1
  O  O210  1  0.50959163  0.88141989  0.75872266  1
  O  O211  1  0.49537321  0.12830007  0.24777136  1
  O  O212  1  0.49666350  0.13563136  0.74075674  1
  O  O213  1  0.49220917  0.63464992  0.24970707  1
  O  O214  1  0.50419914  0.62438481  0.73267737  1
  O  O215  1  0.99396064  0.11674725  0.25594977  1
  O  O216  1  0.99183648  0.12001671  0.74149682  1
  O  O217  1  0.99743379  0.63190519  0.24414817  1
  O  O218  1  1.00632860  0.62430873  0.74535923  1
  O  O219  1  0.36400938  0.25498023  -0.00634592  1
  O  O220  1  0.37031203  0.25472548  0.50505783  1
  O  O221  1  0.36351981  0.75183612  0.00199025  1
  O  O222  1  0.37255586  0.76171248  0.50664750  1
  O  O223  1  0.87645467  0.24482884  0.01636217  1
  O  O224  1  0.87697136  0.25814508  0.50654583  1
  O  O225  1  0.85978963  0.76210561  0.00023836  1
  O  O226  1  0.87066656  0.75711048  0.50793094  1
  O  O227  1  0.13209292  0.24285598  0.49942439  1
  O  O228  1  0.13608233  0.24461349  0.99020611  1
  O  O229  1  0.13311690  0.75037691  0.50213462  1
  O  O230  1  0.12691603  0.74182576  0.98806091  1
  O  O231  1  0.62289405  0.24112274  0.49319096  1
  O  O232  1  0.62623523  0.24541551  0.99884023  1
  O  O233  1  0.62832350  0.74764657  0.48856809  1
  O  O234  1  0.63267924  0.75288186  0.99248455  1
  O  O235  1  0.50421638  0.23619668  0.13628799  1
  O  O236  1  0.49249269  0.24459261  0.63102232  1
  O  O237  1  0.50201752  0.75401624  0.13990710  1
  O  O238  1  0.49216308  0.74142323  0.61670746  1
  O  O239  1  0.99766218  0.25366857  0.12471284  1
  O  O240  1  0.98675244  0.23727404  0.61875873  1
  O  O241  1  1.00701453  0.73566486  0.12501363  1
  O  O242  1  0.99218698  0.73768432  0.62395620  1
  O  O243  1  0.00275359  0.26574043  0.37632571  1
  O  O244  1  0.01209767  0.26490692  0.88395009  1
  O  O245  1  -0.00092461  0.74336488  0.36669090  1
  O  O246  1  0.00149191  0.75186993  0.87034698  1
  O  O247  1  0.51545966  0.24357539  0.36702540  1
  O  O248  1  0.49911718  0.25857696  0.86676772  1
  O  O249  1  0.50689906  0.75554308  0.36634396  1
  O  O250  1  0.50678401  0.76388254  0.88092983  1
  O  O251  1  0.24462898  0.12850941  0.49502309  1
  O  O252  1  0.24519641  0.13036880  0.99812569  1
  O  O253  1  0.25216905  0.62812661  0.48230316  1
  O  O254  1  0.24169192  0.62962775  0.99422765  1
  O  O255  1  0.74123572  0.12145065  0.49501024  1
  O  O256  1  0.74859946  0.12605350  0.99631436  1
  O  O257  1  0.74038017  0.63594182  0.48841061  1
  O  O258  1  0.74903734  0.64565133  1.00915990  1
  O  O259  1  0.25744854  0.36707130  0.00372380  1
  O  O260  1  0.25516859  0.36268016  0.49399675  1
  O  O261  1  0.24776576  0.86527401  -0.00091751  1
  O  O262  1  0.26800425  0.87819122  0.49085353  1
  O  O263  1  0.74365894  0.36924332  0.01706460  1
  O  O264  1  0.76589001  0.37900034  0.50406876  1
  O  O265  1  0.75876899  0.87381249  0.00340445  1
  O  O266  1  0.75634278  0.87213848  0.50588363  1
  O  O267  1  0.12810482  0.50251857  0.23540687  1
  O  O268  1  0.13033659  0.48437192  0.74458856  1
  O  O269  1  0.12838314  0.98963634  0.24598406  1
  O  O270  1  0.13460807  0.99111226  0.75851865  1
  O  O271  1  0.63150881  0.49187485  0.25077894  1
  O  O272  1  0.61620681  0.48585463  0.73846648  1
  O  O273  1  0.63800680  1.00198811  0.24463711  1
  O  O274  1  0.63141373  0.99321883  0.73988586  1
  O  O275  1  0.36559534  0.00497307  0.25081532  1
  O  O276  1  0.36739136  0.00341478  0.75455289  1
  O  O277  1  0.37423518  0.50805573  0.25225275  1
  O  O278  1  0.37892552  0.50754873  0.75616843  1
  O  O279  1  0.86484098  0.01148066  0.24634267  1
  O  O280  1  0.86620490  0.00957834  0.74812017  1
  O  O281  1  0.87398410  0.50808706  0.25799143  1
  O  O282  1  0.86622845  0.49949710  0.74640261  1
  O  O283  1  0.11317099  0.37338027  0.37577256  1
  O  O284  1  0.12552459  0.36881724  0.86451152  1
  O  O285  1  0.12437398  0.87975994  0.36260557  1
  O  O286  1  0.11336264  0.86530648  0.87360899  1
  O  O287  1  0.63311062  0.36744385  0.36396583  1
  O  O288  1  0.61617344  0.37210458  0.86378606  1
  O  O289  1  0.61490528  0.86958978  0.37627312  1
  O  O290  1  0.61698056  0.87231500  0.86724626  1
  O  O291  1  0.38226955  0.12072824  0.14214841  1
  O  O292  1  0.38379536  0.13195591  0.62896572  1
  O  O293  1  0.37538010  0.62970326  0.13735253  1
  O  O294  1  0.38705279  0.63775119  0.61950509  1
  O  O295  1  0.87988160  0.13446167  0.13781560  1
  O  O296  1  0.87960022  0.13161114  0.62871765  1
  O  O297  1  0.88774646  0.61790047  0.13528891  1
  O  O298  1  0.88285080  0.64101183  0.62367945  1
  O  O299  1  0.24978354  0.25781983  0.11251414  1
  O  O300  1  0.26012944  0.23946266  0.61319495  1
  O  O301  1  0.24453158  0.74923171  0.11022184  1
  O  O302  1  0.26742876  0.74618844  0.61933385  1
  O  O303  1  0.76013515  0.25562655  0.12914576  1
  O  O304  1  0.75921161  0.26280995  0.62374377  1
  O  O305  1  0.73980568  0.76166632  0.11226033  1
  O  O306  1  0.75614781  0.75700733  0.61867882  1
  O  O307  1  0.24529414  0.23982162  0.38250343  1
  O  O308  1  0.24421513  0.24096968  0.88188110  1
  O  O309  1  0.25419888  0.73486385  0.37178817  1
  O  O310  1  0.24143660  0.74196344  0.88304898  1
  O  O311  1  0.73738853  0.24093141  0.36885234  1
  O  O312  1  0.74715446  0.24950846  0.87690613  1
  O  O313  1  0.74175203  0.74796067  0.37714696  1
  O  O314  1  0.73705722  0.75931080  0.89022302  1
  O  O315  1  0.00689768  0.11332612  -0.00550222  1
  O  O316  1  0.00623074  0.11632199  0.50341206  1
  O  O317  1  0.01263603  0.61633857  0.00630299  1
  O  O318  1  0.00061899  0.61537493  0.50738420  1
  O  O319  1  0.49638046  0.11904303  0.01098205  1
  O  O320  1  0.50934370  0.12947014  0.51228885  1
  O  O321  1  0.49670547  0.61497685  0.00041923  1
  O  O322  1  0.51017881  0.62250861  0.50129967  1
  O  O323  1  0.49256574  0.38460212  0.50479301  1
  O  O324  1  0.49237007  0.37580254  0.99408565  1
  O  O325  1  0.49288327  0.87460662  0.48564984  1
  O  O326  1  0.49776672  0.88361317  0.99177323  1
  O  O327  1  0.99062373  0.38050111  0.49589695  1
  O  O328  1  1.00794391  0.38541007  0.98887118  1
  O  O329  1  0.99288945  0.88911185  0.50702139  1
  O  O330  1  0.99485189  0.88175810  0.99300041  1
  O  O331  1  0.50162950  0.50454675  0.38672455  1
  O  O332  1  0.49945293  0.48555577  0.88005601  1
  O  O333  1  0.50677442  0.98894813  0.37227728  1
  O  O334  1  0.49183794  0.99205982  0.87842599  1
  O  O335  1  0.99657150  0.49108082  0.38017726  1
  O  O336  1  1.00874043  0.48712182  0.88725400  1
  O  O337  1  0.99576473  1.00091845  0.39063356  1
  O  O338  1  1.00032831  0.99211284  0.88668086  1
  O  O339  1  0.01238254  -0.00333257  0.11845022  1
  O  O340  1  -0.00526398  0.01424128  0.61587217  1
  O  O341  1  0.01070066  0.50375274  0.11653888  1
  O  O342  1  -0.00337344  0.51081645  0.61789785  1
  O  O343  1  0.50533380  0.00992555  0.12330425  1
  O  O344  1  0.50947578  0.01182083  0.63323844  1
  O  O345  1  0.49902148  0.50021755  0.11539877  1
  O  O346  1  0.51856802  0.51379647  0.60678914  1
  O  O347  1  0.25941913  0.37101391  0.23669142  1
  O  O348  1  0.24331681  0.37143724  0.75038732  1
  O  O349  1  0.24046271  0.88035437  0.25243633  1
  O  O350  1  0.23790330  0.88399635  0.75635221  1
  O  O351  1  0.74418747  0.38121134  0.24423899  1
  O  O352  1  0.73890048  0.37218825  0.73886064  1
  O  O353  1  0.74971615  0.88556236  0.24989793  1
  O  O354  1  0.74218956  0.88356778  0.74381794  1
  O  O355  1  0.26083750  0.11766962  0.25962433  1
  O  O356  1  0.25428101  0.11750407  0.75590351  1
  O  O357  1  0.25627572  0.62319331  0.25746303  1
  O  O358  1  0.24530270  0.63117941  0.76263436  1
  O  O359  1  0.75806917  0.12075245  0.25865718  1
  O  O360  1  0.75813175  0.11786282  0.74775375  1
  O  O361  1  0.75882484  0.62208759  0.25107009  1
  O  O362  1  0.75172832  0.61560610  0.74672217  1
  O  O363  1  0.36642474  0.12639239  0.37001413  1
  O  O364  1  0.37100957  0.11849576  0.86633725  1
  O  O365  1  0.36941215  0.62465852  0.36359493  1
  O  O366  1  0.35913742  0.62954562  0.87198576  1
  O  O367  1  0.86395073  0.13368382  0.37165901  1
  O  O368  1  0.87598756  0.12339224  0.86433534  1
  O  O369  1  0.87102380  0.61672894  0.36808684  1
  O  O370  1  0.88889541  0.63722881  0.86787369  1
  O  O371  1  0.13859691  0.38298379  0.11820498  1
  O  O372  1  0.11962282  0.36882853  0.64227357  1
  O  O373  1  0.12895779  0.88383174  0.13232815  1
  O  O374  1  0.11162210  0.87282320  0.64339705  1
  O  O375  1  0.63276598  0.37459036  0.13981036  1
  O  O376  1  0.63164857  0.37973571  0.62736825  1
  O  O377  1  0.62256928  0.89166462  0.13028691  1
  O  O378  1  0.62633933  0.88146032  0.62986189  1
  O  O379  1  0.11778498  0.23148276  0.24470507  1
  O  O380  1  0.13370001  0.25742369  0.76169957  1
  O  O381  1  0.11841702  0.76292518  0.24714729  1
  O  O382  1  0.12977183  0.75863074  0.76241679  1
  O  O383  1  0.61708071  0.25550188  0.25687218  1
  O  O384  1  0.61645269  0.25918233  0.74534845  1
  O  O385  1  0.62023118  0.75273480  0.26041748  1
  O  O386  1  0.63067104  0.76473932  0.75827908  1
  O  O387  1  0.38923570  0.23969045  0.25847500  1
  O  O388  1  0.37998618  0.24452851  0.74182878  1
  O  O389  1  0.38301244  0.74486874  0.24930824  1
  O  O390  1  0.37349670  0.74781246  0.73226515  1
  O  O391  1  0.87743435  0.23717120  0.24381281  1
  O  O392  1  0.87147249  0.23781172  0.73902331  1
  O  O393  1  0.88587028  0.74056349  0.25126516  1
  O  O394  1  0.87490630  0.75895253  0.74551248  1
  O  O395  1  0.38782634  0.49215256  0.49690044  1
  O  O396  1  0.38251359  0.49109937  0.99402936  1
  O  O397  1  0.37886161  0.98590720  0.51004195  1
  O  O398  1  0.37937003  0.99940398  0.99253723  1
  O  O399  1  0.88690630  0.49223566  0.48354691  1
  O  O400  1  0.89910723  0.50177757  1.00870384  1
  O  O401  1  0.88627260  0.99212439  0.50468716  1
  O  O402  1  0.88455388  0.99702075  1.00079154  1
  O  O403  1  0.12124680  0.00644322  0.00949521  1
  O  O404  1  0.11179614  0.00690904  0.49979814  1
  O  O405  1  0.12095625  0.50704700  0.00772397  1
  O  O406  1  0.11167423  0.49790775  0.50399815  1
  O  O407  1  0.61675546  0.00264170  0.00880904  1
  O  O408  1  0.62917435  0.00779753  0.51402057  1
  O  O409  1  0.60751183  0.49608638  0.00156847  1
  O  O410  1  0.62423055  0.50683797  0.50026172  1
  O  O411  1  0.36868257  0.37632172  0.11124438  1
  O  O412  1  0.37296796  0.36231885  0.61525122  1
  O  O413  1  0.36747539  0.87236074  0.12276815  1
  O  O414  1  0.38570928  0.86412676  0.61253668  1
  O  O415  1  0.86564631  0.36388855  0.13507730  1
  O  O416  1  0.87152333  0.36770444  0.61836625  1
  O  O417  1  0.87793409  0.88185005  0.11439164  1
  O  O418  1  0.87205858  0.86506911  0.61962620  1
  O  O419  1  0.13396120  0.12773048  0.38794702  1
  O  O420  1  0.12900287  0.13271529  0.87955726  1
  O  O421  1  0.13846143  0.61933907  0.37445324  1
  O  O422  1  0.13187002  0.62946231  0.88007662  1
  O  O423  1  0.63377930  0.13117527  0.38498500  1
  O  O424  1  0.62554755  0.12672533  0.87516521  1
  O  O425  1  0.63106579  0.63425850  0.37625884  1
  O  O426  1  0.61415165  0.63984487  0.87577145  1
