# generated using pymatgen
data_V85Zn86O256
_symmetry_space_group_name_H-M   'P 1'
_cell_length_a   16.91905492
_cell_length_b   16.92634428
_cell_length_c   16.93167235
_cell_angle_alpha   89.91816697
_cell_angle_beta   90.03534976
_cell_angle_gamma   90.01015697
_symmetry_Int_Tables_number   1
_chemical_formula_structural   V85Zn86O256
_chemical_formula_sum   'V85 Zn86 O256'
_cell_volume   4848.84826019
_cell_formula_units_Z   1
loop_
 _symmetry_equiv_pos_site_id
 _symmetry_equiv_pos_as_xyz
  1  'x, y, z'
loop_
 _atom_site_type_symbol
 _atom_site_label
 _atom_site_symmetry_multiplicity
 _atom_site_fract_x
 _atom_site_fract_y
 _atom_site_fract_z
 _atom_site_occupancy
  V  V0  1  0.24400584  0.00037187  0.24706258  1
  V  V1  1  0.60481549  0.36923667  0.75507785  1
  V  V2  1  0.62800995  0.49182650  0.62014461  1
  V  V3  1  0.63018950  0.61368075  0.00329860  1
  V  V4  1  0.49457066  0.12780570  0.63874113  1
  V  V5  1  0.24377309  0.13179337  0.87257893  1
  V  V6  1  0.87633226  0.75214826  0.62749153  1
  V  V7  1  0.75054349  0.25938260  0.50399435  1
  V  V8  1  0.62384338  0.87158704  0.75229818  1
  V  V9  1  0.00427285  0.74888367  0.75616468  1
  V  V10  1  0.62904775  0.37886136  0.23763406  1
  V  V11  1  0.62427508  0.00297376  0.62727924  1
  V  V12  1  0.75048204  0.74663142  -0.00003223  1
  V  V13  1  0.37976009  0.75200716  0.63231213  1
  V  V14  1  0.22870440  0.49681007  0.24922388  1
  V  V15  1  0.50778106  0.75010175  0.24723278  1
  V  V16  1  0.25094998  0.74930391  0.49895415  1
  V  V17  1  0.12709977  0.87405225  0.75122036  1
  V  V18  1  0.13294683  0.37082656  0.75432243  1
  V  V19  1  0.24232839  0.62094973  0.86958202  1
  V  V20  1  0.50762667  0.87516518  0.36931789  1
  V  V21  1  0.00783119  0.24768783  0.75615004  1
  V  V22  1  0.74398266  0.12970018  0.87698938  1
  V  V23  1  0.61974668  0.12246591  0.00618526  1
  V  V24  1  0.87181926  0.37305498  0.00624279  1
  V  V25  1  0.87687903  0.12521238  0.75022870  1
  V  V26  1  0.75058938  0.49875916  0.23739013  1
  V  V27  1  0.00761349  0.37937267  0.37442561  1
  V  V28  1  0.87504311  0.62266998  0.74954479  1
  V  V29  1  0.12391552  0.49770560  0.61894231  1
  V  V30  1  0.24357859  0.87172328  0.13089374  1
  V  V31  1  0.87773962  0.87646057  0.00105453  1
  V  V32  1  0.48776803  0.38131431  0.37706307  1
  V  V33  1  0.62404360  0.13046342  0.50310209  1
  V  V34  1  0.25351566  0.37552761  0.61656146  1
  V  V35  1  0.74278355  -0.00268089  0.25106674  1
  V  V36  1  0.37493092  0.00590274  0.87210333  1
  V  V37  1  0.37686189  0.25061978  0.62868488  1
  V  V38  1  0.12219946  0.00367677  0.61439529  1
  V  V39  1  0.49625765  0.49673184  -0.01571491  1
  V  V40  1  0.50301785  0.62790211  0.62648033  1
  V  V41  1  0.37746362  0.61024803  0.25186468  1
  V  V42  1  0.23631550  0.37889777  0.12711257  1
  V  V43  1  0.00714317  0.87861987  0.87906459  1
  V  V44  1  0.87615237  0.50121138  0.37917963  1
  V  V45  1  -0.00206213  0.11888782  0.11966333  1
  V  V46  1  0.37601965  0.74522952  0.12507193  1
  V  V47  1  0.00790068  0.88127248  0.37503478  1
  V  V48  1  0.24916759  0.24600714  0.49666339  1
  V  V49  1  0.87596563  0.75255099  0.12643303  1
  V  V50  1  0.24158157  0.25074180  -0.00435892  1
  V  V51  1  0.75078973  0.87708318  0.62734375  1
  V  V52  1  0.88065242  0.38080827  0.50388603  1
  V  V53  1  0.37533852  0.37897624  -0.00770638  1
  V  V54  1  0.48674716  0.49940882  0.49731099  1
  V  V55  1  0.88303146  0.49391491  0.87267656  1
  V  V56  1  0.87817954  0.00570648  0.37690211  1
  V  V57  1  0.37588479  0.01157688  0.36782426  1
  V  V58  1  0.23805385  0.12458339  0.37178604  1
  V  V59  1  0.25464508  0.62039910  0.37580109  1
  V  V60  1  0.00589197  0.25364500  0.24675183  1
  V  V61  1  0.75176056  0.62065930  0.87318918  1
  V  V62  1  0.49389763  0.24585219  0.25165620  1
  V  V63  1  0.37408214  0.87290137  -0.00110796  1
  V  V64  1  0.49985215  0.00380702  0.49938353  1
  V  V65  1  0.00253016  0.62251045  0.61899771  1
  V  V66  1  0.87850973  0.00223981  0.88241386  1
  V  V67  1  0.75133463  0.48354218  0.74528292  1
  V  V68  1  0.87573074  0.63035411  0.25520391  1
  V  V69  1  0.87359900  0.25487606  0.62756010  1
  V  V70  1  0.74821813  0.75057701  0.49946759  1
  V  V71  1  0.00248938  0.12387268  0.61300152  1
  V  V72  1  0.62062004  0.74477767  0.87035909  1
  V  V73  1  0.50333611  0.61006372  0.12474086  1
  V  V74  1  0.49737968  0.86977888  0.86922083  1
  V  V75  1  0.62582093  0.25815769  0.37603562  1
  V  V76  1  0.74344656  0.25424338  0.00851648  1
  V  V77  1  0.01051682  0.75679611  0.25070812  1
  V  V78  1  0.88205507  0.88427463  0.50343254  1
  V  V79  1  0.25266207  0.00494265  0.74844263  1
  V  V80  1  0.38127080  0.62080457  0.75666996  1
  V  V81  1  0.74925394  0.00103172  0.75383985  1
  V  V82  1  0.24208857  0.74695912  -0.00774103  1
  V  V83  1  0.37686292  0.87595363  0.49734464  1
  V  V84  1  0.36890211  0.24646309  0.12879292  1
  Zn  Zn85  1  0.13019810  0.75455162  0.37306856  1
  Zn  Zn86  1  0.12289536  0.25078285  0.37916616  1
  Zn  Zn87  1  0.61421856  -0.00899864  0.13421305  1
  Zn  Zn88  1  0.25033345  0.87675026  0.62371758  1
  Zn  Zn89  1  0.62553438  0.62271975  0.49683327  1
  Zn  Zn90  1  0.01486860  0.49116837  0.01420784  1
  Zn  Zn91  1  0.49814222  -0.00323302  0.00556858  1
  Zn  Zn92  1  0.11923379  0.11871565  -0.00490714  1
  Zn  Zn93  1  0.59170490  0.25242443  0.87390933  1
  Zn  Zn94  1  0.87189031  0.12868454  0.24953426  1
  Zn  Zn95  1  0.01165952  0.61974225  0.12672856  1
  Zn  Zn96  1  0.49157691  0.11879125  0.13192647  1
  Zn  Zn97  1  0.74714463  0.62425897  0.37675215  1
  Zn  Zn98  1  0.12222995  0.61695830  0.00155204  1
  Zn  Zn99  1  0.12267778  0.62415008  0.49709002  1
  Zn  Zn100  1  0.62974386  0.75102468  0.36876017  1
  Zn  Zn101  1  0.75027152  0.12836631  0.37588150  1
  Zn  Zn102  1  0.25899296  0.49234297  0.75067427  1
  Zn  Zn103  1  0.86812169  0.25284134  0.13098010  1
  Zn  Zn104  1  0.74173138  0.87233139  0.13326880  1
  Zn  Zn105  1  0.11734293  -0.00718565  0.12151745  1
  Zn  Zn106  1  0.00850861  0.36897060  0.87905921  1
  Zn  Zn107  1  0.18466226  0.18534701  0.18838337  1
  Zn  Zn108  1  0.19160231  0.18674547  0.68557488  1
  Zn  Zn109  1  0.18959204  0.68439299  0.18741280  1
  Zn  Zn110  1  0.18988357  0.68884855  0.68712118  1
  Zn  Zn111  1  0.68355672  0.18290089  0.19048384  1
  Zn  Zn112  1  0.68702994  0.19261779  0.68903568  1
  Zn  Zn113  1  0.68995713  0.68326681  0.18458001  1
  Zn  Zn114  1  0.68841751  0.68343907  0.68677038  1
  Zn  Zn115  1  0.30799666  0.31493497  0.31091706  1
  Zn  Zn116  1  0.38007900  0.28407457  0.83040448  1
  Zn  Zn117  1  0.31933288  0.81087233  0.31110760  1
  Zn  Zn118  1  0.31059414  0.81111333  0.81145325  1
  Zn  Zn119  1  0.81410393  0.31522735  0.31300689  1
  Zn  Zn120  1  0.81283852  0.30982600  0.81652827  1
  Zn  Zn121  1  0.81566934  0.81857975  0.31659140  1
  Zn  Zn122  1  0.81387671  0.81195297  0.81575473  1
  Zn  Zn123  1  0.19074960  0.44062790  0.43926182  1
  Zn  Zn124  1  0.19462332  0.43871097  0.93339091  1
  Zn  Zn125  1  0.19096405  0.93902190  0.43672585  1
  Zn  Zn126  1  0.18779334  0.94177939  0.94106285  1
  Zn  Zn127  1  0.68992571  0.43846520  0.43502698  1
  Zn  Zn128  1  0.68730660  0.43545012  0.93235621  1
  Zn  Zn129  1  0.68993564  0.93894141  0.43860120  1
  Zn  Zn130  1  0.68633664  0.93483981  0.94661570  1
  Zn  Zn131  1  0.30816611  0.06196053  0.06049775  1
  Zn  Zn132  1  0.31068482  0.06585668  0.55891634  1
  Zn  Zn133  1  0.30643036  0.55946871  0.06240053  1
  Zn  Zn134  1  0.31285294  0.56460253  0.56680317  1
  Zn  Zn135  1  0.81089849  0.06492971  0.06596327  1
  Zn  Zn136  1  0.81123354  0.06778504  0.56228070  1
  Zn  Zn137  1  0.85106500  0.54828923  0.07740568  1
  Zn  Zn138  1  0.81227393  0.56275855  0.56419874  1
  Zn  Zn139  1  0.43544188  0.42870224  0.18411676  1
  Zn  Zn140  1  0.43504508  0.43843977  0.67986110  1
  Zn  Zn141  1  0.43209040  0.93521438  0.18892937  1
  Zn  Zn142  1  0.43819089  0.93899732  0.68812235  1
  Zn  Zn143  1  0.93800086  0.43476580  0.19127925  1
  Zn  Zn144  1  0.94392946  0.43503558  0.68854050  1
  Zn  Zn145  1  0.93114773  0.93877895  0.19297646  1
  Zn  Zn146  1  0.94079970  0.94115318  0.69109519  1
  Zn  Zn147  1  0.06123272  0.06259789  0.30462178  1
  Zn  Zn148  1  0.06440542  0.06115121  0.80969463  1
  Zn  Zn149  1  0.05949817  0.56897631  0.31826884  1
  Zn  Zn150  1  0.06756631  0.55747765  0.80800688  1
  Zn  Zn151  1  0.56485664  0.06745100  0.31620517  1
  Zn  Zn152  1  0.56173757  0.06114531  0.81875977  1
  Zn  Zn153  1  0.56703960  0.56154909  0.31382978  1
  Zn  Zn154  1  0.56400424  0.55916455  0.80738535  1
  Zn  Zn155  1  0.43458397  0.19216820  0.44294195  1
  Zn  Zn156  1  0.43256022  0.18302376  0.94981413  1
  Zn  Zn157  1  0.43813922  0.68672482  0.43685445  1
  Zn  Zn158  1  0.43851119  0.68543508  0.93869294  1
  Zn  Zn159  1  0.93805035  0.19283070  0.43565701  1
  Zn  Zn160  1  0.93345536  0.19037644  0.93934451  1
  Zn  Zn161  1  0.93599533  0.69484387  0.43799438  1
  Zn  Zn162  1  0.94231458  0.68513951  0.93806535  1
  Zn  Zn163  1  0.06061791  0.30972845  0.06106185  1
  Zn  Zn164  1  0.06348003  0.30979439  0.56191847  1
  Zn  Zn165  1  0.06318510  0.80636442  0.06125978  1
  Zn  Zn166  1  0.06404206  0.81350264  0.56434071  1
  Zn  Zn167  1  0.55625180  0.30908967  0.06103670  1
  Zn  Zn168  1  0.55726786  0.31680816  0.56352963  1
  Zn  Zn169  1  0.56266786  0.80812204  0.05951546  1
  Zn  Zn170  1  0.56302565  0.81444623  0.56202830  1
  O  O171  1  0.10785735  0.12589260  0.12522364  1
  O  O172  1  0.11812057  0.11165036  0.62995595  1
  O  O173  1  0.12366797  0.63316689  0.11681275  1
  O  O174  1  0.11911286  0.61853038  0.62640563  1
  O  O175  1  0.61924803  0.11960439  0.11796363  1
  O  O176  1  0.61828712  0.12354550  0.62149893  1
  O  O177  1  0.61642795  0.62819207  0.11334241  1
  O  O178  1  0.61819959  0.61450707  0.62414948  1
  O  O179  1  0.38945156  0.37537605  0.36961363  1
  O  O180  1  0.36435670  0.37986338  0.89331327  1
  O  O181  1  0.38455286  0.88032443  0.38452776  1
  O  O182  1  0.38028541  0.87772407  0.87915042  1
  O  O183  1  0.88175644  0.38342337  0.38348778  1
  O  O184  1  0.87849441  0.37958330  0.88035795  1
  O  O185  1  0.88277590  0.88705603  0.38568800  1
  O  O186  1  0.88390085  0.88272263  0.87999339  1
  O  O187  1  0.25625413  0.00589019  0.36861811  1
  O  O188  1  0.25664275  0.00344001  0.86602831  1
  O  O189  1  0.24729092  0.50677546  0.36166426  1
  O  O190  1  0.25613108  0.51667782  0.86846275  1
  O  O191  1  0.75679654  0.00248854  0.36902448  1
  O  O192  1  0.75468494  0.01020197  0.87298658  1
  O  O193  1  0.76221725  0.50111496  0.36811476  1
  O  O194  1  0.75773877  0.50312404  0.86303648  1
  O  O195  1  0.25256415  0.49412764  0.14111757  1
  O  O196  1  0.24479777  0.49174420  0.62469085  1
  O  O197  1  0.25648215  0.98821266  0.13321240  1
  O  O198  1  0.24173919  1.00070150  0.63080117  1
  O  O199  1  0.75915657  0.50676695  0.13839076  1
  O  O200  1  0.74028458  0.50388549  0.63373209  1
  O  O201  1  0.75068854  1.00002076  0.14206503  1
  O  O202  1  0.74409267  0.99751587  0.63244479  1
  O  O203  1  -0.00548995  0.36365318  0.25867831  1
  O  O204  1  0.01206239  0.36382019  0.74976714  1
  O  O205  1  -0.00755119  0.86807605  0.26183304  1
  O  O206  1  0.00673227  0.86991309  0.75770627  1
  O  O207  1  0.50994777  0.37136378  0.25955784  1
  O  O208  1  0.50563581  0.37815352  0.74925414  1
  O  O209  1  0.49210658  0.86311526  0.25819025  1
  O  O210  1  0.50613250  0.87743863  0.76153228  1
  O  O211  1  0.50391657  0.14200960  0.25282098  1
  O  O212  1  0.50275201  0.11782033  0.73745792  1
  O  O213  1  0.49568233  0.62764806  0.24313806  1
  O  O214  1  0.49621932  0.62106309  0.73563055  1
  O  O215  1  0.99530565  0.13737709  0.24257157  1
  O  O216  1  0.99509836  0.13010070  0.74319616  1
  O  O217  1  0.98839863  0.63626571  0.25204185  1
  O  O218  1  0.99741757  0.63327686  0.74442071  1
  O  O219  1  0.36553889  0.26199587  0.01018225  1
  O  O220  1  0.36023149  0.24976877  0.50796964  1
  O  O221  1  0.36994853  0.75263753  0.00766263  1
  O  O222  1  0.36876623  0.75686131  0.50541960  1
  O  O223  1  0.86198666  0.25734573  0.00046133  1
  O  O224  1  0.86838605  0.25717922  0.50728628  1
  O  O225  1  0.87247742  0.75506351  0.00832941  1
  O  O226  1  0.86578048  0.76060103  0.50780657  1
  O  O227  1  0.14060553  0.25262426  0.49837934  1
  O  O228  1  0.13852128  0.24855151  0.99811905  1
  O  O229  1  0.14124248  0.75039853  0.50269652  1
  O  O230  1  0.13982584  0.74951086  0.99600332  1
  O  O231  1  0.63184479  0.25331787  0.49717893  1
  O  O232  1  0.62616104  0.24238596  0.99531042  1
  O  O233  1  0.63980702  0.75182322  0.50333446  1
  O  O234  1  0.62811960  0.73558434  0.98734072  1
  O  O235  1  0.48851878  0.25072723  0.13575614  1
  O  O236  1  0.48591095  0.24368312  0.61783658  1
  O  O237  1  0.49204633  0.74090760  0.12798819  1
  O  O238  1  0.49282414  0.74090377  0.61697348  1
  O  O239  1  0.99638494  0.24630903  0.13598553  1
  O  O240  1  0.99178935  0.24245837  0.63238217  1
  O  O241  1  0.99127688  0.75457170  0.13523188  1
  O  O242  1  0.99550547  0.74736789  0.63699565  1
  O  O243  1  0.00133459  0.25837811  0.36558121  1
  O  O244  1  -0.00364745  0.24721826  0.86007781  1
  O  O245  1  0.00133465  0.76068796  0.36826933  1
  O  O246  1  -0.00621645  0.75981340  0.86220176  1
  O  O247  1  0.50431762  0.26157342  0.37224614  1
  O  O248  1  0.47894007  0.24746988  0.87213688  1
  O  O249  1  0.49983838  0.75750240  0.36562511  1
  O  O250  1  0.50903690  0.75575344  0.87685267  1
  O  O251  1  0.25201154  0.13192332  0.48545531  1
  O  O252  1  0.24884980  0.13413510  0.99133128  1
  O  O253  1  0.25335795  0.63208806  0.49212780  1
  O  O254  1  0.25509126  0.63015991  0.98485305  1
  O  O255  1  0.74245793  0.13975899  0.50025341  1
  O  O256  1  0.74060785  0.13018691  0.99471205  1
  O  O257  1  0.75051251  0.63671899  0.50030130  1
  O  O258  1  0.74288598  0.62757199  0.99308225  1
  O  O259  1  0.25747038  0.37101686  0.00737501  1
  O  O260  1  0.24812490  0.36911751  0.50939931  1
  O  O261  1  0.26030144  0.86505568  0.00193093  1
  O  O262  1  0.26090335  0.86917536  0.50017577  1
  O  O263  1  0.75396958  0.36313861  -0.00869708  1
  O  O264  1  0.76053943  0.36576737  0.49786610  1
  O  O265  1  0.76619497  0.86441008  -0.00846360  1
  O  O266  1  0.75842251  0.87149289  0.50879380  1
  O  O267  1  0.13056190  0.50580302  0.24936097  1
  O  O268  1  0.13094186  0.48936352  0.73801110  1
  O  O269  1  0.13869382  0.99875574  0.24307783  1
  O  O270  1  0.13225052  0.99006163  0.74305229  1
  O  O271  1  0.63370995  0.48744997  0.25257432  1
  O  O272  1  0.63124240  0.48776547  0.74357087  1
  O  O273  1  0.63745629  1.00312397  0.25428977  1
  O  O274  1  0.63089395  0.99336668  0.74807464  1
  O  O275  1  0.36419375  -0.00534096  0.26185994  1
  O  O276  1  0.36422364  -0.00780111  0.75806990  1
  O  O277  1  0.37685039  0.50915792  0.24685127  1
  O  O278  1  0.37411493  0.51497516  0.73844208  1
  O  O279  1  0.86450174  0.00525926  0.26157777  1
  O  O280  1  0.86863431  0.00461092  0.76087629  1
  O  O281  1  0.86850709  0.50926750  0.25909403  1
  O  O282  1  0.86851597  0.50074066  0.75205091  1
  O  O283  1  0.11028633  0.37915988  0.38142184  1
  O  O284  1  0.12947456  0.37546165  0.85816465  1
  O  O285  1  0.11200712  0.87558165  0.38248981  1
  O  O286  1  0.11429853  0.88096217  0.86834196  1
  O  O287  1  0.61895939  0.36763966  0.37012902  1
  O  O288  1  0.62232291  0.37217819  0.85919473  1
  O  O289  1  0.61106124  0.87362074  0.38189571  1
  O  O290  1  0.61746619  0.86579231  0.87448491  1
  O  O291  1  0.37151780  0.14145637  0.11890287  1
  O  O292  1  0.38399070  0.13431147  0.61701425  1
  O  O293  1  0.38101675  0.62910609  0.12991943  1
  O  O294  1  0.38285302  0.63466080  0.63103652  1
  O  O295  1  0.88449260  0.13055424  0.12623239  1
  O  O296  1  0.88223448  0.13021875  0.63193575  1
  O  O297  1  0.87327152  0.64422605  0.13728267  1
  O  O298  1  0.88327368  0.62994802  0.63155828  1
  O  O299  1  0.25149943  0.25655169  0.12031452  1
  O  O300  1  0.25687372  0.25285113  0.61544890  1
  O  O301  1  0.26124805  0.75334902  0.11947636  1
  O  O302  1  0.26095891  0.75277951  0.61679950  1
  O  O303  1  0.74641257  0.24361136  0.11215971  1
  O  O304  1  0.76465285  0.24626553  0.61978115  1
  O  O305  1  0.75704128  0.75303917  0.11850976  1
  O  O306  1  0.75711075  0.75685053  0.62223427  1
  O  O307  1  0.24798332  0.24256008  0.37749648  1
  O  O308  1  0.26886459  0.23769983  0.88221137  1
  O  O309  1  0.25179685  0.74487811  0.38159680  1
  O  O310  1  0.25768388  0.73798822  0.88229553  1
  O  O311  1  0.74227755  0.25230413  0.38425104  1
  O  O312  1  0.75107408  0.23617544  0.88231283  1
  O  O313  1  0.75016909  0.75310270  0.38546899  1
  O  O314  1  0.74547927  0.74098894  0.87998338  1
  O  O315  1  -0.00038709  0.13470735  0.01537268  1
  O  O316  1  -0.00328417  0.13192226  0.51384038  1
  O  O317  1  0.00153160  0.61832140  0.00249845  1
  O  O318  1  0.00200701  0.63820003  0.51531673  1
  O  O319  1  0.50634291  0.11993062  0.00794268  1
  O  O320  1  0.50669281  0.12047833  0.50520926  1
  O  O321  1  0.50534975  0.61600718  0.00658223  1
  O  O322  1  0.50152018  0.61854797  0.50817808  1
  O  O323  1  0.50190861  0.38274761  0.48514791  1
  O  O324  1  0.48584617  0.38246278  1.00553045  1
  O  O325  1  0.49435838  0.88272391  0.49387206  1
  O  O326  1  0.48700032  0.87078159  0.98891105  1
  O  O327  1  0.98776600  0.36734314  0.49150283  1
  O  O328  1  0.98995660  0.37331540  0.99548391  1
  O  O329  1  0.98816646  0.86872385  0.49482849  1
  O  O330  1  0.98883871  0.86745960  0.99155443  1
  O  O331  1  0.50421742  0.48916851  0.38118796  1
  O  O332  1  0.49721072  0.50659996  0.88521166  1
  O  O333  1  0.49372553  0.99535113  0.37697529  1
  O  O334  1  0.49096107  0.98953826  0.87813693  1
  O  O335  1  0.98667545  0.49448039  0.36963609  1
  O  O336  1  0.98811141  0.49536948  0.86520062  1
  O  O337  1  0.99152169  0.99456549  0.36858475  1
  O  O338  1  0.99000948  0.99180919  0.86970649  1
  O  O339  1  -0.00350485  0.01509804  0.13413726  1
  O  O340  1  0.01275570  0.00767672  0.62948708  1
  O  O341  1  -0.03731883  0.51308796  0.11641286  1
  O  O342  1  0.00839527  0.51220494  0.63112386  1
  O  O343  1  0.49687804  0.00096962  0.12487442  1
  O  O344  1  0.50487756  0.00704408  0.61917209  1
  O  O345  1  0.49730458  0.50811996  0.12008388  1
  O  O346  1  0.50766259  0.50589923  0.61478702  1
  O  O347  1  0.24790097  0.39012165  0.24582154  1
  O  O348  1  0.24229703  0.37321139  0.73128233  1
  O  O349  1  0.25757105  0.87941989  0.24018867  1
  O  O350  1  0.24241774  0.88196537  0.74744335  1
  O  O351  1  0.73740118  0.38147027  0.25265729  1
  O  O352  1  0.74808099  0.38178915  0.75105521  1
  O  O353  1  0.75348661  0.89128030  0.25190539  1
  O  O354  1  0.74571719  0.88046496  0.74710756  1
  O  O355  1  0.25020658  0.11594957  0.25769254  1
  O  O356  1  0.24747859  0.11298017  0.75590992  1
  O  O357  1  0.25716196  0.61459527  0.25542285  1
  O  O358  1  0.25950052  0.62806919  0.75831436  1
  O  O359  1  0.75133375  0.11590538  0.25653702  1
  O  O360  1  0.75452988  0.12214844  0.75785959  1
  O  O361  1  0.76044873  0.62087879  0.25386782  1
  O  O362  1  0.75734999  0.61548676  0.75394534  1
  O  O363  1  0.37167625  0.11409140  0.38000574  1
  O  O364  1  0.36622074  0.10858403  0.88183869  1
  O  O365  1  0.36435970  0.62986457  0.36548332  1
  O  O366  1  0.37317371  0.63288457  0.85983099  1
  O  O367  1  0.87376447  0.11481421  0.37994215  1
  O  O368  1  0.86839238  0.11784594  0.87210753  1
  O  O369  1  0.87468712  0.62049971  0.37144690  1
  O  O370  1  0.87116660  0.61561749  0.86775211  1
  O  O371  1  0.13674344  0.37215166  0.12140025  1
  O  O372  1  0.12960551  0.38149264  0.62730506  1
  O  O373  1  0.14023659  0.87065690  0.12053419  1
  O  O374  1  0.12525090  0.88667209  0.63251661  1
  O  O375  1  0.61925361  0.37076225  0.13972321  1
  O  O376  1  0.61920612  0.38512160  0.63510326  1
  O  O377  1  0.63378232  0.88283638  0.09929719  1
  O  O378  1  0.62954169  0.88148555  0.63245846  1
  O  O379  1  0.10964893  0.24865478  0.25496546  1
  O  O380  1  0.11787293  0.25681028  0.73958461  1
  O  O381  1  0.11360428  0.74932112  0.25205928  1
  O  O382  1  0.11883794  0.76442890  0.74317462  1
  O  O383  1  0.62033826  0.26029039  0.25816635  1
  O  O384  1  0.62386574  0.26626214  0.74896288  1
  O  O385  1  0.61188556  0.74614424  0.24610525  1
  O  O386  1  0.63293960  0.75404528  0.76259273  1
  O  O387  1  0.38248115  0.25783522  0.24298513  1
  O  O388  1  0.36339881  0.24342711  0.72702246  1
  O  O389  1  0.38396417  0.73903014  0.24068478  1
  O  O390  1  0.37425662  0.74743434  0.73607537  1
  O  O391  1  0.88339823  0.24883432  0.25058757  1
  O  O392  1  0.88086090  0.24538412  0.74326221  1
  O  O393  1  0.87863769  0.74725898  0.24676233  1
  O  O394  1  0.88200696  0.74523285  0.74543013  1
  O  O395  1  0.38724080  0.50300582  0.50426471  1
  O  O396  1  0.38059505  0.48714075  1.00739792  1
  O  O397  1  0.37954542  0.99246818  0.49293082  1
  O  O398  1  0.37204088  0.98759357  0.99146058  1
  O  O399  1  0.87085601  0.49139989  0.49503114  1
  O  O400  1  0.86695421  0.48699709  0.98320884  1
  O  O401  1  0.86841957  0.99234147  0.49533381  1
  O  O402  1  0.86864005  0.99308319  0.99020200  1
  O  O403  1  0.12974697  0.00517945  0.00941004  1
  O  O404  1  0.12937781  -0.00414433  0.51600313  1
  O  O405  1  0.12410693  0.50171910  -0.00977471  1
  O  O406  1  0.12813661  0.50502000  0.51363986  1
  O  O407  1  0.62162044  0.01449660  -0.00530614  1
  O  O408  1  0.62122875  0.00752520  0.50694794  1
  O  O409  1  0.61783474  0.50789908  -0.00736754  1
  O  O410  1  0.62132337  0.49911558  0.50747787  1
  O  O411  1  0.36292975  0.36546754  0.12009151  1
  O  O412  1  0.36856440  0.36203064  0.62354174  1
  O  O413  1  0.37015846  0.86367849  0.11561504  1
  O  O414  1  0.37804119  0.87012779  0.61353759  1
  O  O415  1  0.87290083  0.37233170  0.11029936  1
  O  O416  1  0.88258961  0.36615021  0.61790699  1
  O  O417  1  0.87154480  0.86921517  0.11764594  1
  O  O418  1  0.87242646  0.87452081  0.62152439  1
  O  O419  1  0.13470814  0.12350148  0.37219244  1
  O  O420  1  0.13849415  0.12162210  0.87407386  1
  O  O421  1  0.13767963  0.63064883  0.37825213  1
  O  O422  1  0.13996492  0.62689874  0.86786478  1
  O  O423  1  0.62377952  0.14226496  0.38455749  1
  O  O424  1  0.62911310  0.13162261  0.88077130  1
  O  O425  1  0.62827735  0.63185771  0.37870137  1
  O  O426  1  0.63046456  0.62831932  0.87663770  1
