# generated using pymatgen
data_V85Zn86O256
_symmetry_space_group_name_H-M   'P 1'
_cell_length_a   16.96326039
_cell_length_b   16.95597487
_cell_length_c   16.97358954
_cell_angle_alpha   90.01109535
_cell_angle_beta   89.95081387
_cell_angle_gamma   89.97269550
_symmetry_Int_Tables_number   1
_chemical_formula_structural   V85Zn86O256
_chemical_formula_sum   'V85 Zn86 O256'
_cell_volume   4882.08763600
_cell_formula_units_Z   1
loop_
 _symmetry_equiv_pos_site_id
 _symmetry_equiv_pos_as_xyz
  1  'x, y, z'
loop_
 _atom_site_type_symbol
 _atom_site_label
 _atom_site_symmetry_multiplicity
 _atom_site_fract_x
 _atom_site_fract_y
 _atom_site_fract_z
 _atom_site_occupancy
  V  V0  1  0.38477370  0.62433577  0.74393861  1
  V  V1  1  0.49493624  0.24687562  0.24830550  1
  V  V2  1  0.63939882  0.12446443  -0.00265259  1
  V  V3  1  0.54671099  0.69325709  0.19498234  1
  V  V4  1  0.74286031  0.87571681  0.62601044  1
  V  V5  1  0.50478865  0.76996259  0.74806083  1
  V  V6  1  0.37682132  -0.00834817  0.87399436  1
  V  V7  1  0.75284631  0.87887705  0.12672565  1
  V  V8  1  0.87403256  0.75259022  0.63057395  1
  V  V9  1  0.86885496  0.24809028  0.12097902  1
  V  V10  1  0.49510019  0.87360590  0.36951145  1
  V  V11  1  -0.00222504  0.25137744  0.74986343  1
  V  V12  1  0.61547752  0.50329863  0.62860630  1
  V  V13  1  0.00427155  0.87209915  0.85863301  1
  V  V14  1  0.12598665  0.75253332  0.37764640  1
  V  V15  1  0.87216876  0.87598450  0.49959718  1
  V  V16  1  0.37829152  0.50181629  0.87302757  1
  V  V17  1  0.87355284  0.63803870  0.75604364  1
  V  V18  1  0.37674777  0.24757529  0.12411530  1
  V  V19  1  0.49942792  0.24649167  0.75078739  1
  V  V20  1  -0.00043990  0.24898352  0.25045477  1
  V  V21  1  0.87176488  0.50582537  0.87684693  1
  V  V22  1  0.49606793  0.00219734  0.49280237  1
  V  V23  1  0.49781639  0.12626709  0.62400392  1
  V  V24  1  0.00083983  0.74909751  0.25385736  1
  V  V25  1  0.49980521  0.37270523  0.87486871  1
  V  V26  1  0.12366763  0.74656455  0.85977355  1
  V  V27  1  0.62453981  0.38290948  0.24856137  1
  V  V28  1  0.35799000  0.25202034  0.62401635  1
  V  V29  1  0.50431797  0.11895958  0.11854651  1
  V  V30  1  0.12387569  0.62574157  0.50347115  1
  V  V31  1  0.25434261  0.87624687  0.12337866  1
  V  V32  1  0.00127919  0.62973775  0.63404686  1
  V  V33  1  0.00117227  0.37466683  0.87447273  1
  V  V34  1  0.62339655  -0.00101494  0.62513116  1
  V  V35  1  0.24800054  0.75513091  0.50849134  1
  V  V36  1  0.61026635  0.62569420  0.50391748  1
  V  V37  1  0.12487691  0.12123166  -0.00177345  1
  V  V38  1  0.35226843  0.37222589  0.50359592  1
  V  V39  1  0.87604185  0.61569748  0.26676645  1
  V  V40  1  0.62438486  0.74441410  0.37588843  1
  V  V41  1  0.75067393  0.38454259  0.12682650  1
  V  V42  1  -0.00507203  0.37807754  0.37912658  1
  V  V43  1  0.74144216  0.00091956  0.24940581  1
  V  V44  1  0.24850505  0.24851103  -0.00279898  1
  V  V45  1  0.37818269  0.74769064  0.62243329  1
  V  V46  1  -0.00267791  0.00531118  0.50243459  1
  V  V47  1  0.75132051  0.25560367  0.49890632  1
  V  V48  1  0.63969229  0.24115156  0.87628767  1
  V  V49  1  0.87613097  0.00062009  0.37428212  1
  V  V50  1  0.37091036  0.88040235  0.50178026  1
  V  V51  1  0.87186908  0.37095126  -0.00076716  1
  V  V52  1  0.12909320  0.87752828  0.24578881  1
  V  V53  1  0.86977932  0.12722643  0.75280948  1
  V  V54  1  0.74936827  0.12589334  0.37373136  1
  V  V55  1  0.74896979  0.74328962  -0.00092520  1
  V  V56  1  -0.00567018  0.49881404  0.50093825  1
  V  V57  1  0.12363163  0.38008404  0.24666925  1
  V  V58  1  0.75399437  0.38043477  0.62184412  1
  V  V59  1  0.88059436  0.74874835  0.12816174  1
  V  V60  1  -0.00054046  0.12184850  0.12726556  1
  V  V61  1  0.00542092  -0.00707858  0.00418407  1
  V  V62  1  0.00853321  0.50685496  0.00110807  1
  V  V63  1  0.13848863  0.12957936  0.50311090  1
  V  V64  1  0.12949493  0.37393509  0.74396117  1
  V  V65  1  0.74755888  0.50544189  0.75457657  1
  V  V66  1  0.62287152  0.24584305  0.37306317  1
  V  V67  1  0.25034572  0.49960992  0.74302293  1
  V  V68  1  0.13367641  0.24911418  0.38021173  1
  V  V69  1  0.74842804  0.74236631  0.49921784  1
  V  V70  1  0.87480667  0.25303656  0.61818721  1
  V  V71  1  0.37305440  0.37923319  -0.00195716  1
  V  V72  1  0.25330011  0.50055507  0.24819014  1
  V  V73  1  0.37090370  0.64329636  0.24934674  1
  V  V74  1  0.24587749  -0.01619977  0.74746374  1
  V  V75  1  0.36927495  0.12277916  0.75202730  1
  V  V76  1  0.62118401  0.87664885  0.24593410  1
  V  V77  1  0.62354120  0.12683966  0.49955212  1
  V  V78  1  0.38198184  0.86300544  -0.00156661  1
  V  V79  1  0.24072521  0.74392620  0.00431019  1
  V  V80  1  0.87487003  0.00165001  0.87555818  1
  V  V81  1  0.49552167  0.37195495  0.38311407  1
  V  V82  1  0.74362399  0.00180026  0.75470079  1
  V  V83  1  0.12604555  -0.01133656  0.62858447  1
  V  V84  1  0.50677680  -0.00359037  -0.00801501  1
  Zn  Zn85  1  0.24678459  0.62337682  0.87681578  1
  Zn  Zn86  1  0.31004046  0.05832911  0.30841907  1
  Zn  Zn87  1  0.25154125  0.62454170  0.37820446  1
  Zn  Zn88  1  -0.00043777  0.12532087  0.62758074  1
  Zn  Zn89  1  0.24788567  0.37636987  0.12352462  1
  Zn  Zn90  1  0.16643342  0.03316789  0.16299234  1
  Zn  Zn91  1  0.75061808  0.50146274  0.26566433  1
  Zn  Zn92  1  0.83179877  0.44457197  0.43419189  1
  Zn  Zn93  1  0.54166195  0.54019096  0.04360956  1
  Zn  Zn94  1  0.62007523  0.75633874  0.87178882  1
  Zn  Zn95  1  0.00023993  0.87754184  0.37577102  1
  Zn  Zn96  1  0.49065695  0.50023248  0.50692678  1
  Zn  Zn97  1  0.12507146  0.24854468  0.87386365  1
  Zn  Zn98  1  0.13647704  0.51303187  0.11502084  1
  Zn  Zn99  1  0.37290622  0.50148809  0.37779718  1
  Zn  Zn100  1  0.00693247  0.62670638  0.12516890  1
  Zn  Zn101  1  0.24757423  0.11936428  0.87591070  1
  Zn  Zn102  1  0.87900572  0.87278189  0.00022114  1
  Zn  Zn103  1  0.87345001  0.12217750  0.24760224  1
  Zn  Zn104  1  0.12657294  0.49639300  0.62401884  1
  Zn  Zn105  1  0.68984506  0.58959741  0.93527599  1
  Zn  Zn106  1  0.62618431  0.37300091  0.74996852  1
  Zn  Zn107  1  0.18796867  0.19811622  0.18762994  1
  Zn  Zn108  1  0.18310948  0.18107012  0.68988360  1
  Zn  Zn109  1  0.18941963  0.68641028  0.18516072  1
  Zn  Zn110  1  0.19352610  0.68504815  0.68853951  1
  Zn  Zn111  1  0.68306156  0.18944482  0.18479263  1
  Zn  Zn112  1  0.68830984  0.18710021  0.68773210  1
  Zn  Zn113  1  0.70751593  0.67922180  0.18163550  1
  Zn  Zn114  1  0.68339388  0.68449259  0.69122197  1
  Zn  Zn115  1  0.31227822  0.31052593  0.31204762  1
  Zn  Zn116  1  0.30971657  0.31065025  0.81230045  1
  Zn  Zn117  1  0.30700079  0.82124437  0.31832676  1
  Zn  Zn118  1  0.31343745  0.80862665  0.81430034  1
  Zn  Zn119  1  0.81233631  0.31020587  0.30743860  1
  Zn  Zn120  1  0.81381827  0.31874609  0.80810752  1
  Zn  Zn121  1  0.81069680  0.81015074  0.31438568  1
  Zn  Zn122  1  0.78651670  0.82718332  0.82618484  1
  Zn  Zn123  1  0.18020838  0.44155558  0.43160374  1
  Zn  Zn124  1  0.19010554  0.43621936  0.92986412  1
  Zn  Zn125  1  0.18713324  0.93632906  0.44289320  1
  Zn  Zn126  1  0.18806823  0.93286856  0.93644207  1
  Zn  Zn127  1  0.67099838  0.43830444  0.43938262  1
  Zn  Zn128  1  0.68417826  0.42164792  0.94156979  1
  Zn  Zn129  1  0.68400767  0.93595227  0.43562469  1
  Zn  Zn130  1  0.68789352  0.93230738  0.93632412  1
  Zn  Zn131  1  0.32039155  0.06123936  0.06009334  1
  Zn  Zn132  1  0.31080933  0.05978564  0.56488473  1
  Zn  Zn133  1  0.36377018  0.59336176  0.04279917  1
  Zn  Zn134  1  0.31074133  0.56260520  0.56327763  1
  Zn  Zn135  1  0.81628187  0.05798813  0.06242153  1
  Zn  Zn136  1  0.81096720  0.06693375  0.56391304  1
  Zn  Zn137  1  0.82436116  0.56142849  0.07188477  1
  Zn  Zn138  1  0.80913709  0.56891513  0.56933152  1
  Zn  Zn139  1  0.43257731  0.44102382  0.19002819  1
  Zn  Zn140  1  0.43384323  0.43119732  0.68792795  1
  Zn  Zn141  1  0.43566252  0.93238663  0.18023003  1
  Zn  Zn142  1  0.43124342  0.93942411  0.67966080  1
  Zn  Zn143  1  0.93957091  0.43773164  0.18566419  1
  Zn  Zn144  1  0.93670167  0.44223607  0.68790908  1
  Zn  Zn145  1  0.93965396  0.93722255  0.19156807  1
  Zn  Zn146  1  0.93319607  0.93987117  0.68564317  1
  Zn  Zn147  1  0.14565433  0.05899111  0.32248637  1
  Zn  Zn148  1  0.06040713  0.06096432  0.81227452  1
  Zn  Zn149  1  0.06267499  0.56293360  0.31533094  1
  Zn  Zn150  1  0.06226139  0.56324543  0.81357934  1
  Zn  Zn151  1  0.47032610  0.06537687  0.30702029  1
  Zn  Zn152  1  0.56175223  0.06136840  0.81372945  1
  Zn  Zn153  1  0.56013221  0.55807471  0.32255903  1
  Zn  Zn154  1  0.56113799  0.56702723  0.81514479  1
  Zn  Zn155  1  0.42512047  0.18934650  0.43926403  1
  Zn  Zn156  1  0.43860482  0.18491782  0.93715684  1
  Zn  Zn157  1  0.43551196  0.69043090  0.43178969  1
  Zn  Zn158  1  0.44782602  0.68755012  0.92655072  1
  Zn  Zn159  1  0.94032266  0.18635393  0.43491658  1
  Zn  Zn160  1  0.93712012  0.18525054  0.93827916  1
  Zn  Zn161  1  0.93977547  0.68919438  0.44243860  1
  Zn  Zn162  1  0.93709246  0.69159785  0.93629517  1
  Zn  Zn163  1  0.06087917  0.31288895  0.06249551  1
  Zn  Zn164  1  0.06204609  0.31266996  0.56265082  1
  Zn  Zn165  1  0.06707955  0.81048467  0.06382282  1
  Zn  Zn166  1  0.05687885  0.81376548  0.56521945  1
  Zn  Zn167  1  0.54288817  0.35430318  0.08160037  1
  Zn  Zn168  1  0.56246987  0.31362911  0.56619859  1
  Zn  Zn169  1  0.56873347  0.81515951  0.05856017  1
  Zn  Zn170  1  0.55876532  0.81381994  0.56299444  1
  O  O171  1  0.11592296  0.12760549  0.11249237  1
  O  O172  1  0.11965206  0.12079610  0.61398516  1
  O  O173  1  0.11922450  0.62374899  0.12736468  1
  O  O174  1  0.11715527  0.62630052  0.62092883  1
  O  O175  1  0.61888780  0.13412628  0.10505458  1
  O  O176  1  0.61810685  0.12088479  0.61942282  1
  O  O177  1  0.60896251  0.63462490  0.14090197  1
  O  O178  1  0.62744621  0.61403095  0.61739941  1
  O  O179  1  0.37815214  0.36971806  0.38974826  1
  O  O180  1  0.38039611  0.37887579  0.87709132  1
  O  O181  1  0.38588574  0.86970928  0.38670361  1
  O  O182  1  0.37207324  0.88590488  0.88028628  1
  O  O183  1  0.88969783  0.36588148  0.37423767  1
  O  O184  1  0.87984681  0.38444036  0.88056321  1
  O  O185  1  0.87248906  0.88256847  0.38270379  1
  O  O186  1  0.88643653  0.88460601  0.87666695  1
  O  O187  1  0.23292756  0.00381366  0.37005091  1
  O  O188  1  0.25663064  -0.00003494  0.86776532  1
  O  O189  1  0.24821041  0.50415461  0.36451572  1
  O  O190  1  0.26161741  0.50093937  0.86506952  1
  O  O191  1  0.75653633  0.00459827  0.37054709  1
  O  O192  1  0.76242201  -0.00354602  0.86459310  1
  O  O193  1  0.74862669  0.49043606  0.37863783  1
  O  O194  1  0.75738355  0.49934893  0.86988851  1
  O  O195  1  0.24870813  0.49436795  0.14125128  1
  O  O196  1  0.24629673  0.50261611  0.63867346  1
  O  O197  1  0.25305020  0.98317286  0.11066650  1
  O  O198  1  0.23922039  1.00373995  0.63511363  1
  O  O199  1  0.76011922  0.48681799  0.13463436  1
  O  O200  1  0.74265522  0.49477755  0.63101432  1
  O  O201  1  0.75870568  0.98751049  0.13451836  1
  O  O202  1  0.74265054  0.99639524  0.62853620  1
  O  O203  1  0.00513845  0.36968164  0.25560306  1
  O  O204  1  0.00277743  0.37307740  0.75827152  1
  O  O205  1  0.00388055  0.86135311  0.25396911  1
  O  O206  1  -0.00310861  0.87786948  0.76073125  1
  O  O207  1  0.50478860  0.36389068  0.26158440  1
  O  O208  1  0.50047017  0.36334337  0.75805668  1
  O  O209  1  0.50943367  0.87855836  0.25804081  1
  O  O210  1  0.49504681  0.86868173  0.74340020  1
  O  O211  1  0.51656352  0.14152223  0.23186102  1
  O  O212  1  0.48806582  0.12743940  0.74577115  1
  O  O213  1  0.49096431  0.63019539  0.25832634  1
  O  O214  1  0.48642099  0.62962017  0.74749740  1
  O  O215  1  1.00011914  0.13343326  0.23450503  1
  O  O216  1  0.98842665  0.13182989  0.74954146  1
  O  O217  1  0.99440180  0.63641819  0.25490065  1
  O  O218  1  0.98928081  0.62014493  0.74282344  1
  O  O219  1  0.36734107  0.25682784  0.00096054  1
  O  O220  1  0.37276449  0.26207804  0.51049973  1
  O  O221  1  0.36792906  0.76226691  -0.01666838  1
  O  O222  1  0.36731738  0.75448618  0.50523085  1
  O  O223  1  0.88205158  0.25847608  0.00803050  1
  O  O224  1  0.87105286  0.24508881  0.51243863  1
  O  O225  1  0.87880884  0.75117139  0.01793648  1
  O  O226  1  0.86544995  0.75455462  0.50600029  1
  O  O227  1  0.12037457  0.23853300  0.49684707  1
  O  O228  1  0.13173085  0.24369591  0.99874408  1
  O  O229  1  0.12869764  0.74709053  0.49778278  1
  O  O230  1  0.13831987  0.75103972  0.99249703  1
  O  O231  1  0.62969313  0.24700952  0.49391664  1
  O  O232  1  0.62650988  0.23520597  0.98123089  1
  O  O233  1  0.62824399  0.74451428  0.49597997  1
  O  O234  1  0.64447604  0.75289688  0.99726587  1
  O  O235  1  0.49347803  0.25188167  0.12969671  1
  O  O236  1  0.49534830  0.24575106  0.63678637  1
  O  O237  1  0.50076197  0.75520202  0.13285189  1
  O  O238  1  0.48556603  0.75421966  0.63052037  1
  O  O239  1  0.99186778  0.24529691  0.13066752  1
  O  O240  1  0.98930225  0.25131986  0.63157450  1
  O  O241  1  0.99602047  0.75166843  0.13637384  1
  O  O242  1  0.98996764  0.73931374  0.62169719  1
  O  O243  1  0.00491116  0.25523895  0.36664993  1
  O  O244  1  -0.00333586  0.26201407  0.87016790  1
  O  O245  1  0.00760200  0.75402027  0.37239091  1
  O  O246  1  0.01019743  0.76256632  0.87941358  1
  O  O247  1  0.50571758  0.25311400  0.36810540  1
  O  O248  1  0.50299008  0.25061416  0.86278073  1
  O  O249  1  0.51262978  0.76308807  0.38170568  1
  O  O250  1  0.50051219  0.75657179  0.85394929  1
  O  O251  1  0.23682566  0.12417614  0.50287865  1
  O  O252  1  0.24203815  0.12958653  1.00009582  1
  O  O253  1  0.23669516  0.63091284  0.50143452  1
  O  O254  1  0.26518826  0.64213969  0.99594018  1
  O  O255  1  0.74355502  0.13408020  0.49417892  1
  O  O256  1  0.73820339  0.11831152  1.00294886  1
  O  O257  1  0.74074662  0.63921205  0.50721186  1
  O  O258  1  0.75599241  0.63812545  1.01846456  1
  O  O259  1  0.25487327  0.36567592  -0.00194873  1
  O  O260  1  0.25413618  0.37651334  0.49677842  1
  O  O261  1  0.25708806  0.86367660  0.00305968  1
  O  O262  1  0.25827177  0.86675750  0.49825039  1
  O  O263  1  0.76431614  0.37405630  0.00928930  1
  O  O264  1  0.75152731  0.37242241  0.50666724  1
  O  O265  1  0.75804012  0.86657914  0.01292075  1
  O  O266  1  0.75243012  0.86900850  0.50850617  1
  O  O267  1  0.12917583  0.49228636  0.25188399  1
  O  O268  1  0.13297506  0.49266407  0.75227158  1
  O  O269  1  0.10407873  0.97967219  0.24730833  1
  O  O270  1  0.13371131  1.00806485  0.74075089  1
  O  O271  1  0.62368704  0.48559254  0.25759346  1
  O  O272  1  0.63126422  0.49864810  0.74532046  1
  O  O273  1  0.63946180  0.98888143  0.25391786  1
  O  O274  1  0.63687414  1.00782773  0.74440027  1
  O  O275  1  0.39249962  0.00747582  0.24767302  1
  O  O276  1  0.36851884  0.00529740  0.75353060  1
  O  O277  1  0.36545142  0.49869373  0.25825860  1
  O  O278  1  0.36972769  0.50422326  0.75201237  1
  O  O279  1  0.86650605  0.00021730  0.26009006  1
  O  O280  1  0.86876255  0.00953408  0.75477405  1
  O  O281  1  0.88405722  0.51309658  0.25268379  1
  O  O282  1  0.86780399  0.50751441  0.75927172  1
  O  O283  1  0.11340624  0.36772046  0.36780765  1
  O  O284  1  0.11541616  0.37176065  0.86515345  1
  O  O285  1  0.12273084  0.86358872  0.37104207  1
  O  O286  1  0.11107994  0.86679349  0.87620807  1
  O  O287  1  0.61434149  0.36260131  0.37095327  1
  O  O288  1  0.61683032  0.35800073  0.87195994  1
  O  O289  1  0.61963957  0.86759581  0.36373783  1
  O  O290  1  0.67576315  0.85366078  0.85908268  1
  O  O291  1  0.38839332  0.13972921  0.11191290  1
  O  O292  1  0.37935234  0.13162789  0.63127898  1
  O  O293  1  0.37567193  0.62255864  0.15183629  1
  O  O294  1  0.37006293  0.63509990  0.63031674  1
  O  O295  1  0.88168227  0.13166856  0.12417304  1
  O  O296  1  0.87475463  0.13551612  0.63399079  1
  O  O297  1  0.88691001  0.63362910  0.13884242  1
  O  O298  1  0.88073627  0.63329898  0.63581524  1
  O  O299  1  0.25728727  0.25185643  0.11346262  1
  O  O300  1  0.25958211  0.24693109  0.63408553  1
  O  O301  1  0.24928892  0.75725487  0.10976261  1
  O  O302  1  0.25772784  0.74805375  0.61466896  1
  O  O303  1  0.76651462  0.25588308  0.13465241  1
  O  O304  1  0.75500214  0.25920459  0.62063648  1
  O  O305  1  0.76178714  0.75886049  0.12101804  1
  O  O306  1  0.75237443  0.75888075  0.62065881  1
  O  O307  1  0.23256488  0.24993840  0.36778381  1
  O  O308  1  0.24900062  0.24369379  0.88631545  1
  O  O309  1  0.24136114  0.74921915  0.38908869  1
  O  O310  1  0.23605964  0.75203435  0.88139356  1
  O  O311  1  0.74315849  0.24775704  0.37895617  1
  O  O312  1  0.73771222  0.25306064  0.86523918  1
  O  O313  1  0.73561771  0.75714099  0.38602998  1
  O  O314  1  0.77970807  0.73945492  0.90350862  1
  O  O315  1  0.00613821  0.11762665  0.00736507  1
  O  O316  1  -0.00271240  0.11344902  0.50480683  1
  O  O317  1  -0.00512374  0.60818427  -0.00277076  1
  O  O318  1  0.00897288  0.62163319  0.50873975  1
  O  O319  1  0.51048202  0.11828152  0.00091352  1
  O  O320  1  0.50240734  0.11960679  0.50453176  1
  O  O321  1  0.47053880  0.61761839  0.00847326  1
  O  O322  1  0.50700322  0.62538235  0.50012903  1
  O  O323  1  0.49726825  0.37121522  0.49060832  1
  O  O324  1  0.48746869  0.36200430  0.98066150  1
  O  O325  1  0.49376839  0.88368448  0.49293719  1
  O  O326  1  0.49606808  0.88415393  1.00291468  1
  O  O327  1  1.00478799  0.38636036  0.49342121  1
  O  O328  1  0.99175889  0.38077173  0.99242539  1
  O  O329  1  0.99185931  0.88788311  0.49904581  1
  O  O330  1  1.00073084  0.88402326  1.00020775  1
  O  O331  1  0.49444173  0.48576149  0.38264992  1
  O  O332  1  0.48788848  0.48767982  0.86461876  1
  O  O333  1  0.50921934  0.98976955  0.38803964  1
  O  O334  1  0.49251102  1.00144086  0.88279302  1
  O  O335  1  1.00355211  0.49122852  0.38667721  1
  O  O336  1  0.99450294  0.49093685  0.88236987  1
  O  O337  1  0.98283095  0.99908224  0.38417037  1
  O  O338  1  0.99761283  0.98804346  0.88095311  1
  O  O339  1  -0.00699608  0.00887216  0.11644444  1
  O  O340  1  0.00433751  0.00285066  0.61917299  1
  O  O341  1  0.00148757  0.49738155  0.10771047  1
  O  O342  1  0.00254403  0.51145440  0.62044117  1
  O  O343  1  0.49953316  0.01389469  0.10928443  1
  O  O344  1  0.50458168  0.00599363  0.61548820  1
  O  O345  1  0.51021149  0.46009626  0.11595708  1
  O  O346  1  0.51218847  0.48962224  0.62654814  1
  O  O347  1  0.24011106  0.38073652  0.25115143  1
  O  O348  1  0.23997630  0.38257856  0.75644908  1
  O  O349  1  0.24141899  0.87026593  0.23840306  1
  O  O350  1  0.25487815  0.88503904  0.75033111  1
  O  O351  1  0.74296929  0.37647946  0.24503986  1
  O  O352  1  0.74845923  0.38945610  0.74319388  1
  O  O353  1  0.74441322  0.87878521  0.24575783  1
  O  O354  1  0.76401464  0.89040693  0.73060889  1
  O  O355  1  0.21955951  0.10557052  0.24114705  1
  O  O356  1  0.26073479  0.11993583  0.75310868  1
  O  O357  1  0.25821956  0.62085758  0.25528254  1
  O  O358  1  0.26023177  0.61693214  0.75461908  1
  O  O359  1  0.74846901  0.11725099  0.25390855  1
  O  O360  1  0.76204880  0.11761231  0.74548531  1
  O  O361  1  0.77018692  0.61961131  0.25157345  1
  O  O362  1  0.75923268  0.61254976  0.74248523  1
  O  O363  1  0.38824339  0.12692388  0.35899128  1
  O  O364  1  0.37417118  0.11311066  0.86733345  1
  O  O365  1  0.37230489  0.62229611  0.36635986  1
  O  O366  1  0.37411388  0.61518132  0.86334549  1
  O  O367  1  0.86730256  0.11851203  0.37212727  1
  O  O368  1  0.88228582  0.11185878  0.86792413  1
  O  O369  1  0.87991483  0.62973302  0.36516199  1
  O  O370  1  0.88310208  0.61319792  0.86970763  1
  O  O371  1  0.12472129  0.37527698  0.13748340  1
  O  O372  1  0.11758979  0.37683192  0.64014604  1
  O  O373  1  0.13660565  0.86953739  0.13383943  1
  O  O374  1  0.12166518  0.88939650  0.61931536  1
  O  O375  1  0.64227381  0.35961773  0.13765162  1
  O  O376  1  0.63703714  0.38057912  0.62784322  1
  O  O377  1  0.63612600  0.86852841  0.13859633  1
  O  O378  1  0.63326720  0.88480742  0.61704968  1
  O  O379  1  0.11356657  0.25827328  0.25580537  1
  O  O380  1  0.11703462  0.25487841  0.75241363  1
  O  O381  1  0.11962232  0.75507391  0.26002349  1
  O  O382  1  0.12978931  0.75112201  0.76110319  1
  O  O383  1  0.61960708  0.25784198  0.25841974  1
  O  O384  1  0.61653087  0.24619836  0.75776397  1
  O  O385  1  0.62140205  0.74821035  0.25372367  1
  O  O386  1  0.60492818  0.75422819  0.73404953  1
  O  O387  1  0.38356740  0.25661975  0.23755440  1
  O  O388  1  0.38011952  0.24214049  0.74613833  1
  O  O389  1  0.36826264  0.74238337  0.25725612  1
  O  O390  1  0.37993341  0.74493132  0.74126230  1
  O  O391  1  0.88696193  0.24680105  0.24312740  1
  O  O392  1  0.87658045  0.24495065  0.74287945  1
  O  O393  1  0.88193079  0.74393388  0.24732073  1
  O  O394  1  0.86194294  0.74028453  0.75296918  1
  O  O395  1  0.37222322  0.48569243  0.50126306  1
  O  O396  1  0.36611417  0.48526327  0.98819062  1
  O  O397  1  0.38378990  0.99343200  0.50541356  1
  O  O398  1  0.38512714  0.99268331  0.98941453  1
  O  O399  1  0.88858066  0.50789308  0.50955785  1
  O  O400  1  0.88297983  0.49280595  0.99376398  1
  O  O401  1  0.87708974  0.99736224  0.49619988  1
  O  O402  1  0.88590483  0.99873071  0.99090881  1
  O  O403  1  0.11713733  0.00685080  -0.00330870  1
  O  O404  1  0.11535855  0.01074551  0.50692427  1
  O  O405  1  0.11231674  0.49158971  -0.00317603  1
  O  O406  1  0.11644405  0.51007663  0.50322044  1
  O  O407  1  0.62004012  0.01100060  -0.01266979  1
  O  O408  1  0.61807977  0.00751375  0.50415707  1
  O  O409  1  0.63306852  0.50756979  -0.01139502  1
  O  O410  1  0.61700423  0.50953747  0.51065102  1
  O  O411  1  0.37102702  0.36357335  0.11271790  1
  O  O412  1  0.37468565  0.36652754  0.61210256  1
  O  O413  1  0.36857166  0.87295512  0.11001967  1
  O  O414  1  0.37605450  0.86705741  0.60897494  1
  O  O415  1  0.87223722  0.36836979  0.11813720  1
  O  O416  1  0.86281800  0.36907485  0.63148998  1
  O  O417  1  0.86994533  0.86615922  0.12972752  1
  O  O418  1  0.86888098  0.87017162  0.61719647  1
  O  O419  1  0.11102602  0.13672314  0.39583587  1
  O  O420  1  0.12246844  0.12749551  0.88656873  1
  O  O421  1  0.12359155  0.63715845  0.38558219  1
  O  O422  1  0.12429376  0.64114260  0.87211384  1
  O  O423  1  0.62997636  0.13797946  0.38047417  1
  O  O424  1  0.62530427  0.13343511  0.87969100  1
  O  O425  1  0.62008761  0.63416580  0.38645077  1
  O  O426  1  0.63142508  0.64263571  0.85783569  1
