# generated using pymatgen
data_V85Zn86O256
_symmetry_space_group_name_H-M   'P 1'
_cell_length_a   16.93198362
_cell_length_b   16.92875280
_cell_length_c   16.93398031
_cell_angle_alpha   90.00231730
_cell_angle_beta   89.99669236
_cell_angle_gamma   89.95683943
_symmetry_Int_Tables_number   1
_chemical_formula_structural   V85Zn86O256
_chemical_formula_sum   'V85 Zn86 O256'
_cell_volume   4853.91010702
_cell_formula_units_Z   1
loop_
 _symmetry_equiv_pos_site_id
 _symmetry_equiv_pos_as_xyz
  1  'x, y, z'
loop_
 _atom_site_type_symbol
 _atom_site_label
 _atom_site_symmetry_multiplicity
 _atom_site_fract_x
 _atom_site_fract_y
 _atom_site_fract_z
 _atom_site_occupancy
  V  V0  1  0.62527762  0.50013557  0.12595930  1
  V  V1  1  0.62167336  0.61786318  -0.00233202  1
  V  V2  1  0.26899145  0.12452049  0.87577945  1
  V  V3  1  0.37179485  0.12847001  0.24980194  1
  V  V4  1  0.37351502  0.87647768  0.49953728  1
  V  V5  1  0.36110814  0.50278657  0.88622907  1
  V  V6  1  0.62575889  0.00297718  0.11379422  1
  V  V7  1  0.12280292  0.62620417  0.50197338  1
  V  V8  1  -0.00626922  -0.00949706  0.50115038  1
  V  V9  1  0.05340575  0.30342854  0.81258802  1
  V  V10  1  0.12844063  0.00529388  0.62407358  1
  V  V11  1  0.37662403  0.87911396  -0.00707376  1
  V  V12  1  0.37664765  0.74755990  0.62745945  1
  V  V13  1  0.36600477  0.25851992  0.63582344  1
  V  V14  1  0.75244146  0.24686091  0.50213866  1
  V  V15  1  0.74954099  0.87451763  0.12329161  1
  V  V16  1  0.49854389  0.61680695  0.62853675  1
  V  V17  1  0.12025401  -0.00114812  0.11663630  1
  V  V18  1  0.62418227  0.25096261  0.37696983  1
  V  V19  1  0.74862246  0.00526861  0.75544350  1
  V  V20  1  0.74962474  0.12426312  0.37423259  1
  V  V21  1  0.25096128  0.26286712  -0.00301468  1
  V  V22  1  0.37685945  0.00574557  0.37363873  1
  V  V23  1  0.87672690  0.24072623  0.63671530  1
  V  V24  1  0.62544456  0.37551013  0.25327511  1
  V  V25  1  0.00120083  0.12856806  0.61711565  1
  V  V26  1  0.00290108  0.62028178  0.12334606  1
  V  V27  1  0.24929759  0.00326816  0.24685639  1
  V  V28  1  0.75352712  0.49885058  0.25496594  1
  V  V29  1  0.75180457  0.76190618  0.50389016  1
  V  V30  1  0.75253135  0.62287729  0.38041513  1
  V  V31  1  0.49946127  0.61959398  0.12278556  1
  V  V32  1  0.63216267  0.87264951  0.74626864  1
  V  V33  1  0.87002164  -0.01106802  0.37754517  1
  V  V34  1  0.12714072  0.12708359  -0.00793919  1
  V  V35  1  0.72803025  0.13278958  0.87656157  1
  V  V36  1  0.25023383  0.87352845  0.12238216  1
  V  V37  1  0.88689787  0.49958011  0.38064206  1
  V  V38  1  0.91006181  0.09908868  0.78905253  1
  V  V39  1  0.87650513  0.74556238  0.12698767  1
  V  V40  1  0.74998918  0.74623695  -0.00143187  1
  V  V41  1  0.62567903  0.74866054  0.37788924  1
  V  V42  1  0.87782951  0.61818140  0.75068264  1
  V  V43  1  0.49902775  0.87430824  0.37568542  1
  V  V44  1  0.23779302  0.49111596  0.73060344  1
  V  V45  1  -0.00190800  0.12270627  0.11949247  1
  V  V46  1  0.50402873  0.87373532  0.87441183  1
  V  V47  1  0.50417720  0.25168618  0.76062030  1
  V  V48  1  0.12738271  0.49008485  0.12141192  1
  V  V49  1  -0.00312175  0.63052728  0.62110008  1
  V  V50  1  0.49972082  0.37998146  0.38866768  1
  V  V51  1  0.37622893  0.74870502  0.12424828  1
  V  V52  1  0.62391108  0.49292728  0.62543194  1
  V  V53  1  0.62243957  0.87600944  0.24820767  1
  V  V54  1  0.49967187  0.74883430  0.24999107  1
  V  V55  1  0.25003300  0.74195820  -0.00912903  1
  V  V56  1  0.37637494  0.50323269  0.38492676  1
  V  V57  1  0.75469051  0.37336393  0.12675601  1
  V  V58  1  0.13058853  0.36881312  0.25364756  1
  V  V59  1  0.87626931  0.37585814  -0.01169619  1
  V  V60  1  0.03434189  0.46736648  0.54101757  1
  V  V61  1  0.87765350  0.37313829  0.50188540  1
  V  V62  1  0.24889066  0.75222601  0.50078123  1
  V  V63  1  0.62295560  0.61876881  0.50291031  1
  V  V64  1  0.49183225  0.12815995  0.62959934  1
  V  V65  1  0.73767690  0.24843740  -0.00234425  1
  V  V66  1  0.25002985  0.24911214  0.48090402  1
  V  V67  1  0.49920932  0.00613834  -0.00807067  1
  V  V68  1  0.12229336  0.87784506  0.75678511  1
  V  V69  1  0.37236570  0.26558751  0.12022020  1
  V  V70  1  0.00425349  0.24555446  0.25589462  1
  V  V71  1  0.25247129  0.49823725  0.24575208  1
  V  V72  1  0.25050891  0.87742817  0.62565525  1
  V  V73  1  0.12460657  0.75686507  0.37323710  1
  V  V74  1  -0.00221159  0.49494795  -0.01520641  1
  V  V75  1  0.50087449  0.38880350  0.88758617  1
  V  V76  1  0.50259160  0.12834739  0.11987377  1
  V  V77  1  0.86939838  0.76450550  0.62397602  1
  V  V78  1  0.74829818  0.00168892  0.24662418  1
  V  V79  1  0.49865569  0.25196458  0.25196846  1
  V  V80  1  0.26463573  0.00529305  0.75390604  1
  V  V81  1  0.75537104  0.49490647  0.75110123  1
  V  V82  1  -0.00252276  0.75472037  0.75894299  1
  V  V83  1  0.62584109  0.00041873  0.62490530  1
  V  V84  1  0.75545023  0.61752179  0.87535814  1
  Zn  Zn85  1  0.00203307  0.75053266  0.24770952  1
  Zn  Zn86  1  0.49885112  0.00407647  0.50191498  1
  Zn  Zn87  1  0.87564741  0.12372069  0.24723550  1
  Zn  Zn88  1  0.87878163  0.62228023  0.25332020  1
  Zn  Zn89  1  0.36745490  0.38079748  0.51010887  1
  Zn  Zn90  1  0.62056235  0.12559159  0.50174631  1
  Zn  Zn91  1  0.50131243  0.74783621  0.75088158  1
  Zn  Zn92  1  -0.04837423  0.95824592  0.91734479  1
  Zn  Zn93  1  0.13019330  0.13002795  0.47608971  1
  Zn  Zn94  1  0.75411710  0.37234807  0.62870307  1
  Zn  Zn95  1  0.11959960  0.87283840  0.24489860  1
  Zn  Zn96  1  0.00538751  0.36788633  0.37361009  1
  Zn  Zn97  1  0.87987784  0.87177317  -0.00082244  1
  Zn  Zn98  1  0.12317385  0.75205711  0.87695392  1
  Zn  Zn99  1  0.25034483  0.62552503  0.37454438  1
  Zn  Zn100  1  0.87636708  0.24882569  0.12636821  1
  Zn  Zn101  1  -0.00787329  0.87164716  0.37217617  1
  Zn  Zn102  1  0.37400590  0.62496235  0.25254232  1
  Zn  Zn103  1  0.13269904  0.61474363  -0.00721679  1
  Zn  Zn104  1  0.36270710  0.62279956  0.75709062  1
  Zn  Zn105  1  0.63035749  0.37028424  0.75997202  1
  Zn  Zn106  1  0.62593758  0.74629413  0.87104703  1
  Zn  Zn107  1  0.18849911  0.18906970  0.18084830  1
  Zn  Zn108  1  0.18563963  0.19087919  0.69380230  1
  Zn  Zn109  1  0.18677628  0.68299806  0.18413875  1
  Zn  Zn110  1  0.18520804  0.68357926  0.69085173  1
  Zn  Zn111  1  0.68608424  0.18843945  0.18571464  1
  Zn  Zn112  1  0.68339340  0.18545270  0.68760716  1
  Zn  Zn113  1  0.68865943  0.68483981  0.19004984  1
  Zn  Zn114  1  0.68969766  0.68556072  0.68715492  1
  Zn  Zn115  1  0.31531381  0.31888825  0.31127989  1
  Zn  Zn116  1  0.31405265  0.31940706  0.81552499  1
  Zn  Zn117  1  0.31063580  0.81354677  0.31144527  1
  Zn  Zn118  1  0.31503333  0.81655973  0.81050749  1
  Zn  Zn119  1  0.81841649  0.31001495  0.31304538  1
  Zn  Zn120  1  0.82070371  0.30411105  0.81038922  1
  Zn  Zn121  1  0.80944122  0.80931577  0.30861539  1
  Zn  Zn122  1  0.81645445  0.81363532  0.81527905  1
  Zn  Zn123  1  0.19408204  0.43321638  0.43506774  1
  Zn  Zn124  1  0.17920180  0.43246591  0.92323970  1
  Zn  Zn125  1  0.17537788  0.96267995  0.42097109  1
  Zn  Zn126  1  0.19003827  0.94093486  0.93558086  1
  Zn  Zn127  1  0.69165647  0.43621703  0.44153009  1
  Zn  Zn128  1  0.68664069  0.43579332  0.93738895  1
  Zn  Zn129  1  0.68340500  0.93925683  0.43880576  1
  Zn  Zn130  1  0.70044903  0.93437543  0.93157189  1
  Zn  Zn131  1  0.31608903  0.06605495  0.06151650  1
  Zn  Zn132  1  0.31278687  0.06952679  0.56184880  1
  Zn  Zn133  1  0.31451415  0.55735044  0.06337317  1
  Zn  Zn134  1  0.30623989  0.56265259  0.56803311  1
  Zn  Zn135  1  0.81659383  0.06298778  0.05062777  1
  Zn  Zn136  1  0.81000765  0.05811047  0.56367244  1
  Zn  Zn137  1  0.81505576  0.55848475  0.06306443  1
  Zn  Zn138  1  0.81507153  0.56234467  0.56524348  1
  Zn  Zn139  1  0.43937029  0.44039742  0.19398069  1
  Zn  Zn140  1  0.43274601  0.43752836  0.70008701  1
  Zn  Zn141  1  0.43796093  0.93872297  0.18232902  1
  Zn  Zn142  1  0.44227102  0.93576667  0.68784940  1
  Zn  Zn143  1  0.94122482  0.43584641  0.18891617  1
  Zn  Zn144  1  0.96329174  0.42485281  0.68721996  1
  Zn  Zn145  1  0.93615111  0.93588984  0.18426840  1
  Zn  Zn146  1  0.93869848  0.94150425  0.69288047  1
  Zn  Zn147  1  0.06033862  0.05931564  0.30908498  1
  Zn  Zn148  1  0.07967284  0.07948560  0.80241254  1
  Zn  Zn149  1  0.06743893  0.56489217  0.31063145  1
  Zn  Zn150  1  0.07371875  0.56674863  0.81212048  1
  Zn  Zn151  1  0.56176471  0.06408950  0.30933772  1
  Zn  Zn152  1  0.55798085  0.06391355  0.80958953  1
  Zn  Zn153  1  0.56137957  0.56174025  0.31357698  1
  Zn  Zn154  1  0.56361372  0.55903831  0.81004744  1
  Zn  Zn155  1  0.43271390  0.19073444  0.44326653  1
  Zn  Zn156  1  0.43788339  0.19344660  0.93960271  1
  Zn  Zn157  1  0.43920291  0.68468609  0.44269391  1
  Zn  Zn158  1  0.43656993  0.68454038  0.93659761  1
  Zn  Zn159  1  0.93694599  0.17951713  0.43770845  1
  Zn  Zn160  1  0.93631319  0.19310553  0.94514105  1
  Zn  Zn161  1  0.93827867  0.69077422  0.44038183  1
  Zn  Zn162  1  0.93920646  0.68294847  0.93850058  1
  Zn  Zn163  1  0.06312229  0.30978157  0.06141236  1
  Zn  Zn164  1  0.07537508  0.30142509  0.56734621  1
  Zn  Zn165  1  0.05927668  0.81742852  0.05425947  1
  Zn  Zn166  1  0.06262432  0.81522650  0.56610016  1
  Zn  Zn167  1  0.56090370  0.31679475  0.06348994  1
  Zn  Zn168  1  0.56150472  0.30982115  0.56822469  1
  Zn  Zn169  1  0.56425383  0.80967053  0.05990868  1
  Zn  Zn170  1  0.56177753  0.81246761  0.56368934  1
  O  O171  1  0.12172668  0.11579501  0.11610113  1
  O  O172  1  0.11873635  0.11815223  0.62430041  1
  O  O173  1  0.11798115  0.61381020  0.11709753  1
  O  O174  1  0.11238886  0.63484530  0.61053976  1
  O  O175  1  0.61147615  0.11709694  0.13050986  1
  O  O176  1  0.61210236  0.11913116  0.62429505  1
  O  O177  1  0.62005848  0.62022780  0.11973866  1
  O  O178  1  0.62132340  0.61508854  0.62054250  1
  O  O179  1  0.38503178  0.38457766  0.37732871  1
  O  O180  1  0.38810509  0.39092020  0.87118183  1
  O  O181  1  0.38411225  0.87838053  0.37843509  1
  O  O182  1  0.38498767  0.87310076  0.88580036  1
  O  O183  1  0.87695608  0.38073920  0.38608302  1
  O  O184  1  0.86581551  0.37351306  0.89075105  1
  O  O185  1  0.86734420  0.88510816  0.37273578  1
  O  O186  1  0.85916947  0.88719187  0.88395152  1
  O  O187  1  0.27141063  -0.01703055  0.35497878  1
  O  O188  1  0.25229814  0.01228224  0.86781810  1
  O  O189  1  0.25939180  0.50291144  0.36739063  1
  O  O190  1  0.25855350  0.50067113  0.87879892  1
  O  O191  1  0.74983023  0.00661868  0.36989752  1
  O  O192  1  0.74260144  0.01686876  0.86529353  1
  O  O193  1  0.76141955  0.50411553  0.37519988  1
  O  O194  1  0.74750026  0.50955938  0.86728468  1
  O  O195  1  0.24059749  0.50294734  0.13205301  1
  O  O196  1  0.24805641  0.48874996  0.62909745  1
  O  O197  1  0.24908521  0.99320477  0.12937925  1
  O  O198  1  0.24525215  0.99942187  0.63030211  1
  O  O199  1  0.74571671  0.49305328  0.13394945  1
  O  O200  1  0.74494227  0.49781636  0.63372234  1
  O  O201  1  0.74133151  0.99790140  0.12633628  1
  O  O202  1  0.73371137  1.01038235  0.63594627  1
  O  O203  1  0.00798837  0.36339679  0.25172343  1
  O  O204  1  -0.02630949  0.35567873  0.77181685  1
  O  O205  1  0.00187818  0.87004551  0.25225086  1
  O  O206  1  0.00980008  0.86862964  0.74502414  1
  O  O207  1  0.50779315  0.36916635  0.25947964  1
  O  O208  1  0.50409944  0.36507101  0.75842051  1
  O  O209  1  0.50326769  0.86936323  0.25381998  1
  O  O210  1  0.50955276  0.87409443  0.75977321  1
  O  O211  1  0.49197785  0.13214914  0.24278329  1
  O  O212  1  0.50065473  0.13970671  0.74573737  1
  O  O213  1  0.50185655  0.63334641  0.24217060  1
  O  O214  1  0.50202637  0.62824032  0.73740171  1
  O  O215  1  1.00181910  0.12804570  0.23964606  1
  O  O216  1  0.99814056  0.12788741  0.73058955  1
  O  O217  1  1.00047539  0.62655718  0.23647930  1
  O  O218  1  0.99357981  0.63444151  0.74191371  1
  O  O219  1  0.36405819  0.24902580  0.00881330  1
  O  O220  1  0.36452945  0.25352423  0.51251779  1
  O  O221  1  0.36780044  0.75690719  0.00482884  1
  O  O222  1  0.37037541  0.75414153  0.50988362  1
  O  O223  1  0.86584036  0.26283089  0.00645090  1
  O  O224  1  0.86498049  0.25272531  0.49858920  1
  O  O225  1  0.86360598  0.74403079  0.01073804  1
  O  O226  1  0.86719895  0.74834505  0.51464657  1
  O  O227  1  0.14145901  0.24580287  0.49627158  1
  O  O228  1  0.14218913  0.24000159  1.01045981  1
  O  O229  1  0.12880863  0.74670986  0.49447607  1
  O  O230  1  0.14450254  0.75410900  1.00205603  1
  O  O231  1  0.63749110  0.25125291  0.49621810  1
  O  O232  1  0.63859381  0.25485314  1.00706932  1
  O  O233  1  0.63184608  0.74249206  0.49711122  1
  O  O234  1  0.63665661  0.73637858  1.00176059  1
  O  O235  1  0.49602463  0.24426220  0.12965528  1
  O  O236  1  0.49204120  0.24473261  0.63394682  1
  O  O237  1  0.49664725  0.74207614  0.12926441  1
  O  O238  1  0.49117396  0.74249644  0.62563899  1
  O  O239  1  1.00069958  0.23951470  0.13450247  1
  O  O240  1  0.98995840  0.23549359  0.60949621  1
  O  O241  1  0.99251438  0.74057234  0.12132687  1
  O  O242  1  0.98776534  0.74630299  0.62953852  1
  O  O243  1  -0.00101734  0.24186214  0.36083414  1
  O  O244  1  0.00932145  0.22780095  0.86664013  1
  O  O245  1  0.00818664  0.75270237  0.37345634  1
  O  O246  1  -0.00767203  0.75070912  0.86090954  1
  O  O247  1  0.50425191  0.25699452  0.37191922  1
  O  O248  1  0.49307878  0.25908130  0.86420048  1
  O  O249  1  0.50634536  0.75404430  0.37174235  1
  O  O250  1  0.50356452  0.76109495  0.87519788  1
  O  O251  1  0.25001541  0.14289691  0.50323144  1
  O  O252  1  0.24850748  0.12760584  0.99036581  1
  O  O253  1  0.23982513  0.63384071  0.50043349  1
  O  O254  1  0.25265036  0.64010101  1.00620037  1
  O  O255  1  0.74599293  0.13088829  0.49165413  1
  O  O256  1  0.75000239  0.13429535  0.98734997  1
  O  O257  1  0.74238731  0.63110372  0.49683000  1
  O  O258  1  0.74661739  0.62621786  0.99379657  1
  O  O259  1  0.24434658  0.36078487  -0.00728674  1
  O  O260  1  0.25151943  0.35789271  0.49748385  1
  O  O261  1  0.25942528  0.87221031  0.00629274  1
  O  O262  1  0.25720862  0.87051053  0.50659928  1
  O  O263  1  0.75681355  0.37191898  0.00856234  1
  O  O264  1  0.76046733  0.36521439  0.50420393  1
  O  O265  1  0.74338297  0.86027036  0.00844397  1
  O  O266  1  0.74323723  0.86106485  0.49670688  1
  O  O267  1  0.13234616  0.49441071  0.24209978  1
  O  O268  1  0.13664612  0.49988122  0.74916042  1
  O  O269  1  0.13747881  0.99576140  0.23458952  1
  O  O270  1  0.13413881  0.99509210  0.73999017  1
  O  O271  1  0.63337927  0.49450519  0.24802273  1
  O  O272  1  0.63937320  0.49846105  0.74205259  1
  O  O273  1  0.62770820  0.99488637  0.23933581  1
  O  O274  1  0.62982858  0.99483128  0.74497060  1
  O  O275  1  0.37326188  0.00934811  0.25057861  1
  O  O276  1  0.36353042  -0.00347500  0.74485329  1
  O  O277  1  0.36743814  0.50218232  0.25895875  1
  O  O278  1  0.36171813  0.50343696  0.75845624  1
  O  O279  1  0.86443670  0.00123392  0.25669094  1
  O  O280  1  0.85953619  0.01434116  0.73730737  1
  O  O281  1  0.86989612  0.49853119  0.26100488  1
  O  O282  1  0.86705781  0.51208716  0.74227760  1
  O  O283  1  0.12297328  0.38151297  0.35795159  1
  O  O284  1  0.10654641  0.36141138  0.87733640  1
  O  O285  1  0.12727276  0.86487147  0.37325249  1
  O  O286  1  0.13267863  0.87339265  0.86100836  1
  O  O287  1  0.61999173  0.37149998  0.37347854  1
  O  O288  1  0.60972540  0.38166414  0.87442572  1
  O  O289  1  0.61659099  0.87101472  0.36917885  1
  O  O290  1  0.62039883  0.87140202  0.86832254  1
  O  O291  1  0.38730052  0.13093645  0.13173203  1
  O  O292  1  0.38616291  0.13561513  0.62508333  1
  O  O293  1  0.38495050  0.62922681  0.12667455  1
  O  O294  1  0.38454750  0.63112904  0.62189605  1
  O  O295  1  0.88566288  0.12584884  0.12528540  1
  O  O296  1  0.88584831  0.13139727  0.61041208  1
  O  O297  1  0.88119754  0.62875410  0.12843009  1
  O  O298  1  0.87787674  0.63697789  0.63243510  1
  O  O299  1  0.26192152  0.24594367  0.11110086  1
  O  O300  1  0.26551873  0.24626329  0.63116589  1
  O  O301  1  0.25672832  0.75724821  0.11864045  1
  O  O302  1  0.25722828  0.75542704  0.62036319  1
  O  O303  1  0.75126294  0.25768706  0.12013006  1
  O  O304  1  0.75763036  0.24693960  0.61748728  1
  O  O305  1  0.75536794  0.75026357  0.11923607  1
  O  O306  1  0.76105648  0.74821203  0.61910755  1
  O  O307  1  0.26042699  0.24655371  0.38179734  1
  O  O308  1  0.26063442  0.23908890  0.88721119  1
  O  O309  1  0.24433572  0.74907615  0.38273259  1
  O  O310  1  0.25461217  0.75536324  0.88887365  1
  O  O311  1  0.74655202  0.24250897  0.38048391  1
  O  O312  1  0.74645439  0.24119573  0.88100025  1
  O  O313  1  0.74523970  0.74237610  0.38224599  1
  O  O314  1  0.74831761  0.73659348  0.88339919  1
  O  O315  1  0.01153127  0.13206349  0.01179916  1
  O  O316  1  0.00910215  0.11146893  0.50030467  1
  O  O317  1  -0.00512726  0.61251677  0.01150459  1
  O  O318  1  0.00589010  0.62467002  0.50813920  1
  O  O319  1  0.49654433  0.11785805  0.00663919  1
  O  O320  1  0.50095353  0.12546554  0.51098170  1
  O  O321  1  0.51099785  0.63176303  0.01070545  1
  O  O322  1  0.51500897  0.62874303  0.51197078  1
  O  O323  1  0.49873985  0.37084908  0.49046139  1
  O  O324  1  0.50002550  0.37289475  0.98654131  1
  O  O325  1  0.49280978  0.87772015  0.49287141  1
  O  O326  1  0.49616040  0.88035112  0.99411620  1
  O  O327  1  0.99526886  0.37340592  0.49045606  1
  O  O328  1  0.98405261  0.37811271  1.00686130  1
  O  O329  1  1.00132839  0.88646870  0.49780020  1
  O  O330  1  0.99712461  0.87487417  0.98483529  1
  O  O331  1  0.49115473  0.49162990  0.37144331  1
  O  O332  1  0.49513054  0.49220944  0.87269380  1
  O  O333  1  0.49158096  0.99358920  0.37293499  1
  O  O334  1  0.50706563  0.99068917  0.88547899  1
  O  O335  1  0.98962050  0.50062072  0.37156966  1
  O  O336  1  1.00033597  0.50621356  0.88660553  1
  O  O337  1  0.98479884  0.99620458  0.38141762  1
  O  O338  1  0.98160171  1.03070237  0.83841649  1
  O  O339  1  0.01233476  0.00762139  0.13166481  1
  O  O340  1  0.00436694  0.00753296  0.61896447  1
  O  O341  1  0.00772314  0.50425055  0.12142149  1
  O  O342  1  -0.01751037  0.52052368  0.62377378  1
  O  O343  1  0.50640930  0.00737179  0.11530054  1
  O  O344  1  0.50702991  0.01005818  0.62791420  1
  O  O345  1  0.50751150  0.51216552  0.13319662  1
  O  O346  1  0.50941580  0.50558469  0.63251571  1
  O  O347  1  0.24458123  0.38673545  0.25057611  1
  O  O348  1  0.25023315  0.39149202  0.75727962  1
  O  O349  1  0.25343279  0.88135981  0.23364016  1
  O  O350  1  0.24615689  0.88372056  0.74402674  1
  O  O351  1  0.74578309  0.37720625  0.24602140  1
  O  O352  1  0.75300601  0.38045602  0.74944521  1
  O  O353  1  0.74128824  0.88016368  0.24275377  1
  O  O354  1  0.73789034  0.88653772  0.75516770  1
  O  O355  1  0.26303826  0.11681725  0.24010912  1
  O  O356  1  0.24486031  0.12051042  0.76724725  1
  O  O357  1  0.25064363  0.61274399  0.25218560  1
  O  O358  1  0.24992285  0.60747826  0.73932028  1
  O  O359  1  0.74881198  0.11954456  0.25683918  1
  O  O360  1  0.74152972  0.12122686  0.76433936  1
  O  O361  1  0.75097593  0.61774034  0.26330120  1
  O  O362  1  0.75697290  0.61870043  0.75700176  1
  O  O363  1  0.38300677  0.11631012  0.36405803  1
  O  O364  1  0.36767939  0.12126740  0.87943820  1
  O  O365  1  0.37600555  0.61797163  0.37416900  1
  O  O366  1  0.38329165  0.60908156  0.87223991  1
  O  O367  1  0.86086587  0.11464298  0.37330250  1
  O  O368  1  0.86252501  0.13498101  0.87310885  1
  O  O369  1  0.87009184  0.61751887  0.37822683  1
  O  O370  1  0.86682050  0.62855693  0.86411407  1
  O  O371  1  0.11943360  0.38496098  0.13442560  1
  O  O372  1  0.06865371  0.40142176  0.61887229  1
  O  O373  1  0.13481341  0.88092178  0.12175916  1
  O  O374  1  0.13270503  0.88080100  0.63554527  1
  O  O375  1  0.63426754  0.38073025  0.13153152  1
  O  O376  1  0.62870382  0.38519658  0.62546373  1
  O  O377  1  0.62796447  0.88173755  0.12918918  1
  O  O378  1  0.61669616  0.88555765  0.63503890  1
  O  O379  1  0.12106806  0.25757205  0.24373152  1
  O  O380  1  0.11232416  0.26305478  0.73845908  1
  O  O381  1  0.12734416  0.75053246  0.25856042  1
  O  O382  1  0.11425857  0.75930770  0.74827342  1
  O  O383  1  0.61969890  0.25565857  0.25740399  1
  O  O384  1  0.60873114  0.25445869  0.74371898  1
  O  O385  1  0.62097703  0.75524861  0.25776188  1
  O  O386  1  0.62524621  0.75848502  0.74915871  1
  O  O387  1  0.37853774  0.24450741  0.24345356  1
  O  O388  1  0.38503489  0.25489551  0.74164344  1
  O  O389  1  0.38107866  0.74861014  0.24271180  1
  O  O390  1  0.37538406  0.74639936  0.73865846  1
  O  O391  1  0.88593974  0.24539084  0.24670260  1
  O  O392  1  0.86827347  0.22717692  0.73714813  1
  O  O393  1  0.87384250  0.74388511  0.23802771  1
  O  O394  1  0.87708014  0.74462257  0.74054050  1
  O  O395  1  0.36864966  0.49964348  0.48900441  1
  O  O396  1  0.37373360  0.50075843  0.98651178  1
  O  O397  1  0.37500600  0.99710923  0.48912528  1
  O  O398  1  0.38807137  0.99068048  1.00698817  1
  O  O399  1  0.87815663  0.48735568  0.49735820  1
  O  O400  1  0.88120143  0.48449181  1.00516308  1
  O  O401  1  0.88045952  1.00151964  0.49150847  1
  O  O402  1  0.88400511  0.98918298  1.00790847  1
  O  O403  1  0.13266748  0.00829079  0.00955874  1
  O  O404  1  0.11837371  -0.00837925  0.51864059  1
  O  O405  1  0.11639404  0.49442918  0.00556777  1
  O  O406  1  0.12033711  0.50816587  0.49237905  1
  O  O407  1  0.61954025  -0.00648270  0.00998918  1
  O  O408  1  0.62065525  0.00208507  0.51041925  1
  O  O409  1  0.63200919  0.51124173  0.00917367  1
  O  O410  1  0.63254145  0.50854875  0.50994052  1
  O  O411  1  0.38324890  0.36403955  0.13050326  1
  O  O412  1  0.38372285  0.36144386  0.62484104  1
  O  O413  1  0.37147331  0.86933077  0.11396415  1
  O  O414  1  0.37288850  0.86750618  0.62010169  1
  O  O415  1  0.86221558  0.37553906  0.12512501  1
  O  O416  1  0.88012117  0.36022276  0.61465638  1
  O  O417  1  0.86566298  0.86180174  0.12520352  1
  O  O418  1  0.87563169  0.86303060  0.63179241  1
  O  O419  1  0.14248830  0.06878469  0.38165577  1
  O  O420  1  0.13839442  0.12151580  0.88957783  1
  O  O421  1  0.12414137  0.63721035  0.38549550  1
  O  O422  1  0.11439750  0.63954225  0.88501533  1
  O  O423  1  0.63338687  0.13028461  0.37571403  1
  O  O424  1  0.62934063  0.12735229  0.87804707  1
  O  O425  1  0.62992820  0.62701282  0.38523582  1
  O  O426  1  0.63109205  0.62442954  0.88276780  1
