# generated using pymatgen
data_V85Zn86O256
_symmetry_space_group_name_H-M   'P 1'
_cell_length_a   16.94351143
_cell_length_b   16.95256769
_cell_length_c   16.96277945
_cell_angle_alpha   90.02118670
_cell_angle_beta   89.96356659
_cell_angle_gamma   89.94643054
_symmetry_Int_Tables_number   1
_chemical_formula_structural   V85Zn86O256
_chemical_formula_sum   'V85 Zn86 O256'
_cell_volume   4872.31788294
_cell_formula_units_Z   1
loop_
 _symmetry_equiv_pos_site_id
 _symmetry_equiv_pos_as_xyz
  1  'x, y, z'
loop_
 _atom_site_type_symbol
 _atom_site_label
 _atom_site_symmetry_multiplicity
 _atom_site_fract_x
 _atom_site_fract_y
 _atom_site_fract_z
 _atom_site_occupancy
  V  V0  1  0.62506789  0.75191393  0.87537131  1
  V  V1  1  0.62385550  0.37354557  0.25029774  1
  V  V2  1  0.24549377  0.25533908  -0.00396952  1
  V  V3  1  0.74860997  0.63008443  0.37230114  1
  V  V4  1  -0.00749251  0.87818764  0.38152379  1
  V  V5  1  0.87719986  0.24588173  0.62516034  1
  V  V6  1  0.87788291  0.63468573  0.74928188  1
  V  V7  1  0.62071587  0.87907402  0.24697538  1
  V  V8  1  0.00186067  0.25433573  0.25929960  1
  V  V9  1  0.74825638  0.50176657  0.25501302  1
  V  V10  1  0.13210874  0.62899364  0.50462076  1
  V  V11  1  0.36364062  0.87283701  0.48965293  1
  V  V12  1  0.62768703  0.12276229  0.49822001  1
  V  V13  1  0.86878128  0.75974396  0.61738512  1
  V  V14  1  0.87284806  0.12064911  0.74820042  1
  V  V15  1  0.11517188  0.37415481  0.76013673  1
  V  V16  1  0.87480123  0.25137972  0.12646189  1
  V  V17  1  0.87055625  0.00557475  0.37988207  1
  V  V18  1  0.49899382  0.50266583  -0.00543304  1
  V  V19  1  0.49992953  0.62530240  0.62504262  1
  V  V20  1  0.12227994  0.12563846  -0.00141996  1
  V  V21  1  0.25135429  0.37447785  0.62934565  1
  V  V22  1  0.37521992  0.10596148  0.25811024  1
  V  V23  1  0.12037813  0.49489096  0.62533108  1
  V  V24  1  0.50316403  0.37212946  0.37597024  1
  V  V25  1  0.49432684  -0.00989294  0.48901238  1
  V  V26  1  0.12265906  0.75570513  0.87146042  1
  V  V27  1  -0.00190647  0.62853057  0.62659569  1
  V  V28  1  0.25211814  0.49940825  0.75806480  1
  V  V29  1  0.75415047  0.74949789  0.00135016  1
  V  V30  1  0.12772928  0.37489793  0.25674212  1
  V  V31  1  0.87214570  -0.00054258  0.87805436  1
  V  V32  1  0.62729675  0.23746962  0.88103554  1
  V  V33  1  0.88135567  0.49598857  0.87114356  1
  V  V34  1  0.14218573  0.00242156  0.13105293  1
  V  V35  1  0.88647145  0.37842266  0.49077184  1
  V  V36  1  0.00183251  0.12226171  0.13114440  1
  V  V37  1  0.49035015  0.87740746  0.89065911  1
  V  V38  1  0.13082533  0.62912097  -0.00195788  1
  V  V39  1  0.49903912  0.75494108  0.74922890  1
  V  V40  1  0.87514907  0.74249248  0.13455184  1
  V  V41  1  0.11837553  0.87160278  0.73095196  1
  V  V42  1  0.68200992  -0.06057523  0.58121386  1
  V  V43  1  0.62784235  0.62702131  0.49944159  1
  V  V44  1  -0.00297992  0.75585558  0.25337884  1
  V  V45  1  0.13541031  0.88341141  0.25170913  1
  V  V46  1  0.75269864  0.62473415  0.87498689  1
  V  V47  1  0.37070521  0.11829263  0.75265145  1
  V  V48  1  0.75059650  0.37418498  0.62164561  1
  V  V49  1  0.89091581  0.87072371  0.00297140  1
  V  V50  1  -0.00586946  0.24662029  0.76267531  1
  V  V51  1  0.75140168  0.01230939  0.24694155  1
  V  V52  1  0.23928766  -0.00592036  0.73872033  1
  V  V53  1  0.00120508  0.00645174  0.50949255  1
  V  V54  1  0.37896785  0.37473103  0.50221920  1
  V  V55  1  0.49591199  0.37994538  0.87271573  1
  V  V56  1  0.74297769  -0.00293461  0.75400495  1
  V  V57  1  0.37470044  0.50005315  0.37571219  1
  V  V58  1  0.62660596  0.62472076  -0.00049243  1
  V  V59  1  0.49856614  0.75556169  0.25323149  1
  V  V60  1  0.37803376  0.24822301  0.62591261  1
  V  V61  1  0.39001634  0.22960565  0.10512191  1
  V  V62  1  0.62514530  0.50067804  0.12471505  1
  V  V63  1  0.49315197  0.24709095  0.24849359  1
  V  V64  1  0.50371157  0.10996734  0.62632597  1
  V  V65  1  0.87526221  0.37500909  -0.00270916  1
  V  V66  1  0.00195614  0.49778380  -0.00172878  1
  V  V67  1  0.50220735  0.50073513  0.50103322  1
  V  V68  1  0.75187000  0.49943551  0.74929465  1
  V  V69  1  0.24826058  0.11286918  0.37522027  1
  V  V70  1  0.75075995  0.24642310  0.49030154  1
  V  V71  1  0.62616775  0.37315644  0.75175812  1
  V  V72  1  0.75215911  0.87906575  0.12429067  1
  V  V73  1  0.61417004  0.01375173  0.10804950  1
  V  V74  1  0.92323668  0.56602648  0.31353818  1
  V  V75  1  0.49856585  0.62722340  0.12402571  1
  V  V76  1  0.36191916  0.75697074  0.62184477  1
  V  V77  1  0.13449055  0.75451225  0.38005729  1
  V  V78  1  0.24890529  0.24977796  0.49742286  1
  V  V79  1  0.50047115  0.24667794  0.74897177  1
  V  V80  1  0.35978154  0.75368995  0.11555218  1
  V  V81  1  0.37401185  0.62316219  0.75453411  1
  V  V82  1  0.12976003  0.49924425  0.12435006  1
  V  V83  1  0.37273297  0.38517453  -0.00095861  1
  V  V84  1  0.37246625  0.62671020  0.25047663  1
  Zn  Zn85  1  0.12789483  0.11471796  0.51182216  1
  Zn  Zn86  1  0.62207433  0.75663031  0.37515939  1
  Zn  Zn87  1  0.11129621  0.25251198  0.88120000  1
  Zn  Zn88  1  -0.00463370  0.86905744  0.86042649  1
  Zn  Zn89  1  0.24250353  0.12487316  0.87177220  1
  Zn  Zn90  1  0.25502310  0.37095261  0.12775798  1
  Zn  Zn91  1  0.87356182  0.12976076  0.25477246  1
  Zn  Zn92  1  0.29965489  0.90789334  0.05039425  1
  Zn  Zn93  1  0.25513189  0.49669916  0.24996498  1
  Zn  Zn94  1  0.74049942  0.23982322  0.00269716  1
  Zn  Zn95  1  0.00035772  0.62482969  0.12680184  1
  Zn  Zn96  1  0.62777541  0.23919205  0.36936521  1
  Zn  Zn97  1  0.25679655  0.63054521  0.38492320  1
  Zn  Zn98  1  0.36766713  -0.00806101  0.88408922  1
  Zn  Zn99  1  0.25327004  0.62975588  0.87782818  1
  Zn  Zn100  1  0.62571297  0.87701443  0.75026985  1
  Zn  Zn101  1  0.62689696  0.50052461  0.62550814  1
  Zn  Zn102  1  0.12587609  0.25114170  0.37482629  1
  Zn  Zn103  1  0.00155225  0.00026388  -0.00100703  1
  Zn  Zn104  1  0.75033949  0.37614699  0.12408235  1
  Zn  Zn105  1  0.00053271  0.49531025  0.49157119  1
  Zn  Zn106  1  0.74917013  0.76577921  0.49934696  1
  Zn  Zn107  1  0.19602174  0.18772609  0.18693705  1
  Zn  Zn108  1  0.18472958  0.18549961  0.68770409  1
  Zn  Zn109  1  0.18494685  0.68705920  0.19232977  1
  Zn  Zn110  1  0.18562880  0.68855542  0.69086807  1
  Zn  Zn111  1  0.68404448  0.18847875  0.18274677  1
  Zn  Zn112  1  0.68912382  0.18312613  0.68630685  1
  Zn  Zn113  1  0.68739655  0.68847609  0.18912613  1
  Zn  Zn114  1  0.68844301  0.68960310  0.68672095  1
  Zn  Zn115  1  0.31391727  0.31041309  0.31245700  1
  Zn  Zn116  1  0.31230494  0.31145271  0.81473761  1
  Zn  Zn117  1  0.31419104  0.81488841  0.30965614  1
  Zn  Zn118  1  0.30596205  0.81298088  0.81082251  1
  Zn  Zn119  1  0.81312474  0.31606236  0.31268561  1
  Zn  Zn120  1  0.81077964  0.31056861  0.81462200  1
  Zn  Zn121  1  0.80941484  0.81797088  0.31362657  1
  Zn  Zn122  1  0.81056282  0.81634251  0.81105874  1
  Zn  Zn123  1  0.19032561  0.43635780  0.44109984  1
  Zn  Zn124  1  0.18694998  0.44028237  0.93617764  1
  Zn  Zn125  1  0.18240479  0.93557570  0.44334079  1
  Zn  Zn126  1  0.18411445  0.94390053  0.92544257  1
  Zn  Zn127  1  0.69050260  0.43797348  0.43587347  1
  Zn  Zn128  1  0.68956853  0.43275416  0.93648624  1
  Zn  Zn129  1  0.68087177  0.94554828  0.41908612  1
  Zn  Zn130  1  0.68911972  0.93376536  0.93672173  1
  Zn  Zn131  1  0.33121084  0.07772558  0.05406303  1
  Zn  Zn132  1  0.31571578  0.06013210  0.56164349  1
  Zn  Zn133  1  0.31142123  0.56529771  0.06338729  1
  Zn  Zn134  1  0.31254489  0.56201056  0.56961937  1
  Zn  Zn135  1  0.81175403  0.06424651  0.06193843  1
  Zn  Zn136  1  0.81818474  0.06621244  0.55970697  1
  Zn  Zn137  1  0.81357824  0.56135117  0.06459424  1
  Zn  Zn138  1  0.81372737  0.56106051  0.55926102  1
  Zn  Zn139  1  0.43786067  0.43445793  0.18396482  1
  Zn  Zn140  1  0.43854337  0.43925531  0.68858581  1
  Zn  Zn141  1  0.43943138  0.93655661  0.17696400  1
  Zn  Zn142  1  0.43231504  0.93442297  0.68906484  1
  Zn  Zn143  1  0.94468968  0.43289842  0.18283752  1
  Zn  Zn144  1  0.93779785  0.43346925  0.68502547  1
  Zn  Zn145  1  0.94014102  0.93767295  0.19101286  1
  Zn  Zn146  1  0.93261209  0.93816076  0.68695612  1
  Zn  Zn147  1  0.06500294  0.06511226  0.31797132  1
  Zn  Zn148  1  0.05523003  0.06054434  0.81078529  1
  Zn  Zn149  1  0.08481887  0.56439822  0.31448496  1
  Zn  Zn150  1  0.06183084  0.56575045  0.81177829  1
  Zn  Zn151  1  0.56161254  0.06176111  0.30827378  1
  Zn  Zn152  1  0.55732585  0.05751068  0.81709355  1
  Zn  Zn153  1  0.56101480  0.56521187  0.31323756  1
  Zn  Zn154  1  0.56355007  0.56345624  0.81107367  1
  Zn  Zn155  1  0.43791075  0.18275203  0.43652702  1
  Zn  Zn156  1  0.43487706  0.19213862  0.93270978  1
  Zn  Zn157  1  0.43852467  0.69185665  0.43782712  1
  Zn  Zn158  1  0.43663805  0.69094344  0.93680079  1
  Zn  Zn159  1  0.93647025  0.18617605  0.43770904  1
  Zn  Zn160  1  0.91197763  0.17535645  0.94824684  1
  Zn  Zn161  1  0.94501882  0.69375113  0.44895111  1
  Zn  Zn162  1  0.94633975  0.68808801  0.93748551  1
  Zn  Zn163  1  0.05983019  0.31462072  0.06878695  1
  Zn  Zn164  1  0.07419938  0.28350596  0.57954796  1
  Zn  Zn165  1  0.10989884  0.83330429  0.04628362  1
  Zn  Zn166  1  0.05352814  0.81183875  0.56043851  1
  Zn  Zn167  1  0.56203263  0.31423881  0.06114505  1
  Zn  Zn168  1  0.56599318  0.30737293  0.56339945  1
  Zn  Zn169  1  0.56370440  0.81175501  0.06812327  1
  Zn  Zn170  1  0.55402519  0.80632819  0.55912493  1
  O  O171  1  0.12134802  0.12112831  0.12254931  1
  O  O172  1  0.11422216  0.17501615  0.60467285  1
  O  O173  1  0.12329511  0.61889788  0.11877520  1
  O  O174  1  0.11755873  0.61899398  0.62313067  1
  O  O175  1  0.62897859  0.11349996  0.11848185  1
  O  O176  1  0.61331857  0.13004439  0.61367763  1
  O  O177  1  0.62009653  0.62053008  0.11924833  1
  O  O178  1  0.61982120  0.62383743  0.61660999  1
  O  O179  1  0.38310707  0.38212652  0.38085617  1
  O  O180  1  0.38845857  0.37443806  0.87838095  1
  O  O181  1  0.37694455  0.86447106  0.39077380  1
  O  O182  1  0.38719910  0.86687381  0.87211132  1
  O  O183  1  0.87404469  0.37197476  0.39200228  1
  O  O184  1  0.87010126  0.38497445  0.88304296  1
  O  O185  1  0.88154014  0.88926338  0.36987387  1
  O  O186  1  0.87891398  0.87473421  0.88547882  1
  O  O187  1  0.24634522  0.01435941  0.38470223  1
  O  O188  1  0.24936327  0.00663716  0.85740803  1
  O  O189  1  0.26563431  0.50161162  0.37673380  1
  O  O190  1  0.24717037  0.50436773  0.86087045  1
  O  O191  1  0.76268128  -0.00097228  0.36298138  1
  O  O192  1  0.76267134  -0.00811701  0.86875670  1
  O  O193  1  0.74913585  0.50784733  0.36234175  1
  O  O194  1  0.76076617  0.50551000  0.87160155  1
  O  O195  1  0.23989846  0.49799694  0.12589411  1
  O  O196  1  0.23872537  0.49410587  0.63396455  1
  O  O197  1  0.24174411  1.00268606  0.12188593  1
  O  O198  1  0.24855983  1.00922973  0.63967117  1
  O  O199  1  0.74534156  0.50290834  0.13850405  1
  O  O200  1  0.74912108  0.49153950  0.62948399  1
  O  O201  1  0.74995340  0.99412699  0.12929069  1
  O  O202  1  0.75103941  0.99974638  0.63123424  1
  O  O203  1  0.01231433  0.36590156  0.24560527  1
  O  O204  1  0.00576853  0.36745026  0.75053322  1
  O  O205  1  0.00505243  0.86903367  0.26208293  1
  O  O206  1  0.01402940  0.88110130  0.74365803  1
  O  O207  1  0.50539616  0.36865021  0.25545306  1
  O  O208  1  0.50492440  0.37040054  0.75564226  1
  O  O209  1  0.50818567  0.86694107  0.23937843  1
  O  O210  1  0.50082000  0.86284515  0.75362305  1
  O  O211  1  0.48354536  0.13128129  0.25762438  1
  O  O212  1  0.49265765  0.12450271  0.74311714  1
  O  O213  1  0.49002155  0.62928333  0.24383214  1
  O  O214  1  0.49378130  0.63338488  0.74619476  1
  O  O215  1  1.00267054  0.13502993  0.24559184  1
  O  O216  1  0.98641972  0.13204807  0.74810469  1
  O  O217  1  0.99176565  0.62642554  0.25981725  1
  O  O218  1  0.99069253  0.61883500  0.73692511  1
  O  O219  1  0.36378463  0.27074261  -0.00522672  1
  O  O220  1  0.37000459  0.25408979  0.50521036  1
  O  O221  1  0.37341031  0.74102365  0.01681790  1
  O  O222  1  0.38150195  0.75979852  0.51187867  1
  O  O223  1  0.89559301  0.27080691  0.01274979  1
  O  O224  1  0.86917872  0.25527096  0.50679614  1
  O  O225  1  0.87379203  0.75422026  0.00807456  1
  O  O226  1  0.86873319  0.75074901  0.51157254  1
  O  O227  1  0.14667860  0.27507043  0.48887650  1
  O  O228  1  0.12835187  0.24870533  1.00091315  1
  O  O229  1  0.11639994  0.74115010  0.49227979  1
  O  O230  1  0.11398677  0.73800593  0.98514907  1
  O  O231  1  0.63333279  0.24105180  0.49663832  1
  O  O232  1  0.62355938  0.25205635  0.98724717  1
  O  O233  1  0.62605042  0.73889814  0.49704041  1
  O  O234  1  0.63358572  0.74379494  0.99704386  1
  O  O235  1  0.49368332  0.25556888  0.13326639  1
  O  O236  1  0.49523266  0.24137190  0.63080997  1
  O  O237  1  0.49321728  0.74254471  0.13332305  1
  O  O238  1  0.49326437  0.74233027  0.63378936  1
  O  O239  1  0.99370818  0.24340964  0.13649881  1
  O  O240  1  0.97881301  0.26261231  0.64038837  1
  O  O241  1  0.99376842  0.74396033  0.14585911  1
  O  O242  1  0.98432825  0.73837298  0.61941767  1
  O  O243  1  0.00232556  0.24622171  0.36327127  1
  O  O244  1  -0.01205433  0.24582297  0.86483925  1
  O  O245  1  0.00387479  0.75748640  0.37024173  1
  O  O246  1  0.01389688  0.74866147  0.86758456  1
  O  O247  1  0.50069272  0.25558696  0.36793045  1
  O  O248  1  0.50664375  0.25755899  0.86853198  1
  O  O249  1  0.50263785  0.74362205  0.35744584  1
  O  O250  1  0.50495420  0.75534280  0.86752793  1
  O  O251  1  0.25253127  0.13346647  0.49366382  1
  O  O252  1  0.23698617  0.13730477  0.99738016  1
  O  O253  1  0.23658528  0.61967898  0.50459233  1
  O  O254  1  0.23536847  0.61748579  0.99571079  1
  O  O255  1  0.74060653  0.13398653  0.50613688  1
  O  O256  1  0.80323154  0.14786221  0.99181355  1
  O  O257  1  0.74304778  0.62102992  0.48740005  1
  O  O258  1  0.74793103  0.62962789  0.99453228  1
  O  O259  1  0.25565609  0.37423552  0.00012529  1
  O  O260  1  0.26295050  0.37338637  0.50869973  1
  O  O261  1  0.21065204  0.86674996  0.00078383  1
  O  O262  1  0.26448427  0.87946006  0.49971354  1
  O  O263  1  0.76102493  0.36955442  0.00316008  1
  O  O264  1  0.75439873  0.36799425  0.50617572  1
  O  O265  1  0.76035252  0.86801564  0.01081210  1
  O  O266  1  0.73107734  0.88417494  0.50621108  1
  O  O267  1  0.13077565  0.49438119  0.24083177  1
  O  O268  1  0.12895693  0.49323161  0.74447147  1
  O  O269  1  0.12272206  0.99521279  0.24548093  1
  O  O270  1  0.13076636  0.98992790  0.74973283  1
  O  O271  1  0.63115453  0.49681291  0.24578461  1
  O  O272  1  0.63314955  0.49228997  0.74928442  1
  O  O273  1  0.63217347  0.99657413  0.24076065  1
  O  O274  1  0.63830626  1.00246066  0.75616330  1
  O  O275  1  0.38123731  0.00806459  0.25007868  1
  O  O276  1  0.36286546  0.00374838  0.75117812  1
  O  O277  1  0.37819399  0.50667668  0.25773646  1
  O  O278  1  0.36512743  0.51065386  0.74165573  1
  O  O279  1  0.86706337  0.00234947  0.25627556  1
  O  O280  1  0.86651653  0.00268759  0.75544178  1
  O  O281  1  0.87174203  0.50256362  0.24925582  1
  O  O282  1  0.87158629  0.50478402  0.75624929  1
  O  O283  1  0.13040514  0.38014569  0.36036254  1
  O  O284  1  0.12563363  0.37487628  0.86355095  1
  O  O285  1  0.11626982  0.87063709  0.37115494  1
  O  O286  1  0.11712585  0.86541474  0.86330263  1
  O  O287  1  0.61839243  0.37354494  0.36821792  1
  O  O288  1  0.61398225  0.36941943  0.86982235  1
  O  O289  1  0.62590240  0.87353248  0.35316938  1
  O  O290  1  0.61466970  0.86614432  0.87416030  1
  O  O291  1  0.35240490  0.13320501  0.15545779  1
  O  O292  1  0.38252863  0.12847055  0.63420315  1
  O  O293  1  0.37880025  0.63040209  0.13367371  1
  O  O294  1  0.38129564  0.63383227  0.63169906  1
  O  O295  1  0.88585390  0.13510487  0.13392907  1
  O  O296  1  0.87257096  0.13588589  0.63145695  1
  O  O297  1  0.87673832  0.63870978  0.12251408  1
  O  O298  1  0.88091693  0.62635896  0.63083910  1
  O  O299  1  0.26187906  0.25069365  0.10936152  1
  O  O300  1  0.26125838  0.25737466  0.61962558  1
  O  O301  1  0.26090863  0.74378836  0.12845035  1
  O  O302  1  0.26410025  0.74469681  0.62601559  1
  O  O303  1  0.76358870  0.25275049  0.12552594  1
  O  O304  1  0.75670454  0.25695358  0.61738925  1
  O  O305  1  0.75755268  0.75743835  0.12342168  1
  O  O306  1  0.76340123  0.74241610  0.61898886  1
  O  O307  1  0.25450436  0.24237879  0.38418391  1
  O  O308  1  0.24510212  0.24918311  0.88598523  1
  O  O309  1  0.23772859  0.75012271  0.37319138  1
  O  O310  1  0.23049798  0.74533606  0.86503441  1
  O  O311  1  0.74874258  0.25227312  0.38637161  1
  O  O312  1  0.72955874  0.25406653  0.87338384  1
  O  O313  1  0.74624554  0.74483211  0.37859690  1
  O  O314  1  0.74567383  0.74460713  0.88043870  1
  O  O315  1  0.00823681  0.12865778  0.01234188  1
  O  O316  1  -0.00035548  0.10972989  0.49457329  1
  O  O317  1  0.00779659  0.61296292  0.00268621  1
  O  O318  1  0.00935953  0.61750389  0.51049916  1
  O  O319  1  0.42983414  0.15200128  0.03752166  1
  O  O320  1  0.50191061  0.11148942  0.50740898  1
  O  O321  1  0.50553936  0.62074233  0.00276682  1
  O  O322  1  0.50789489  0.62152889  0.50383481  1
  O  O323  1  0.49869724  0.37913270  0.49655593  1
  O  O324  1  0.49317304  0.38219282  0.99157546  1
  O  O325  1  0.49467180  0.88618259  0.50283762  1
  O  O326  1  0.50006726  0.86460117  0.98839819  1
  O  O327  1  0.98712609  0.37153810  0.50605576  1
  O  O328  1  0.99639100  0.39138872  1.00532481  1
  O  O329  1  0.99963192  0.88514662  0.48770062  1
  O  O330  1  0.99466898  0.87288918  1.00561691  1
  O  O331  1  0.49173266  0.49522538  0.38042622  1
  O  O332  1  0.50573928  0.49265771  0.88234017  1
  O  O333  1  0.50451037  1.00015454  0.39150383  1
  O  O334  1  0.49363571  0.98100218  0.87320441  1
  O  O335  1  0.99031682  0.51212829  0.36822934  1
  O  O336  1  0.98828485  0.50507633  0.88151747  1
  O  O337  1  0.98897811  0.99488270  0.37800514  1
  O  O338  1  0.98715833  0.99196887  0.87767286  1
  O  O339  1  0.00064914  0.01489799  0.12673534  1
  O  O340  1  -0.01416200  -0.00115484  0.60697101  1
  O  O341  1  0.01188528  0.50465389  0.11941585  1
  O  O342  1  0.01123610  0.50350107  0.62583055  1
  O  O343  1  0.51526361  -0.00059317  0.12068122  1
  O  O344  1  0.49596482  0.00693924  0.62066218  1
  O  O345  1  0.50529148  0.50683921  0.11678542  1
  O  O346  1  0.50351478  0.50685288  0.61875302  1
  O  O347  1  0.24559436  0.37604641  0.24624384  1
  O  O348  1  0.24470629  0.38048173  0.74663552  1
  O  O349  1  0.23467603  0.87306195  0.25388973  1
  O  O350  1  0.23773175  0.88654824  0.74834387  1
  O  O351  1  0.74238449  0.38401119  0.24979890  1
  O  O352  1  0.74699238  0.37950351  0.74220718  1
  O  O353  1  0.74472662  0.88354402  0.23724901  1
  O  O354  1  0.74525417  0.88632036  0.74926357  1
  O  O355  1  0.25684055  0.12865285  0.26928014  1
  O  O356  1  0.25383528  0.12000830  0.75032080  1
  O  O357  1  0.26293185  0.62206421  0.25509998  1
  O  O358  1  0.25722630  0.61598170  0.74743098  1
  O  O359  1  0.74958316  0.11545372  0.24593454  1
  O  O360  1  0.76223652  0.11528374  0.74480920  1
  O  O361  1  0.74701872  0.62046553  0.26312335  1
  O  O362  1  0.75716882  0.61800369  0.75517051  1
  O  O363  1  0.36501527  0.12474108  0.36646883  1
  O  O364  1  0.37511901  0.12401403  0.85962113  1
  O  O365  1  0.37629579  0.61900030  0.36995911  1
  O  O366  1  0.37362301  0.63325602  0.85883735  1
  O  O367  1  0.87692532  0.11109790  0.37099760  1
  O  O368  1  0.87989741  0.10876701  0.86048322  1
  O  O369  1  0.87042528  0.62674187  0.37836253  1
  O  O370  1  0.87285901  0.62012534  0.86698715  1
  O  O371  1  0.12883548  0.38357923  0.13401241  1
  O  O372  1  0.12980326  0.37960174  0.63646529  1
  O  O373  1  0.11161419  0.89254786  0.14156989  1
  O  O374  1  0.12411598  0.86712777  0.63221364  1
  O  O375  1  0.62661491  0.38295281  0.13155919  1
  O  O376  1  0.63635455  0.37358908  0.63055657  1
  O  O377  1  0.63554547  0.88224318  0.12888144  1
  O  O378  1  0.61956174  0.87296384  0.62975664  1
  O  O379  1  0.12150503  0.25788720  0.25055002  1
  O  O380  1  0.11176324  0.25737339  0.75678534  1
  O  O381  1  0.11615620  0.75553556  0.25995727  1
  O  O382  1  0.12516354  0.76359444  0.75289883  1
  O  O383  1  0.61360061  0.25249646  0.24999540  1
  O  O384  1  0.61888476  0.25367881  0.75623880  1
  O  O385  1  0.61609500  0.75976841  0.24488058  1
  O  O386  1  0.61604075  0.74814377  0.75717679  1
  O  O387  1  0.38670536  0.25241227  0.24130005  1
  O  O388  1  0.38042117  0.24221433  0.74543173  1
  O  O389  1  0.38008519  0.74297544  0.24341996  1
  O  O390  1  0.37930095  0.74624460  0.73903197  1
  O  O391  1  0.88290194  0.25375973  0.24392065  1
  O  O392  1  0.87363527  0.24154949  0.74580776  1
  O  O393  1  0.88081501  0.75650670  0.24507928  1
  O  O394  1  0.86826361  0.73785333  0.74258746  1
  O  O395  1  0.38233081  0.49697631  0.49558807  1
  O  O396  1  0.38047880  0.49337933  1.00289665  1
  O  O397  1  0.38528119  0.98661382  0.50317815  1
  O  O398  1  0.35859403  0.98786444  0.99742081  1
  O  O399  1  0.88000481  0.48371742  0.50454242  1
  O  O400  1  0.88099210  0.49374031  0.99485672  1
  O  O401  1  0.87918336  1.00139793  0.48565610  1
  O  O402  1  0.87767963  0.98708027  0.99446164  1
  O  O403  1  0.12017224  0.01231020  0.00966975  1
  O  O404  1  0.10737962  -0.00053285  0.50166840  1
  O  O405  1  0.11877647  0.50466654  0.00486405  1
  O  O406  1  0.12131618  0.50330628  0.50841034  1
  O  O407  1  0.63196378  -0.00195986  0.00992748  1
  O  O408  1  0.62027506  0.00090875  0.50751671  1
  O  O409  1  0.62218684  0.50496605  0.00449221  1
  O  O410  1  0.62042898  0.51031990  0.49938230  1
  O  O411  1  0.37701636  0.36669686  0.11129320  1
  O  O412  1  0.37376600  0.36901064  0.62123422  1
  O  O413  1  0.37042911  0.85905055  0.12820291  1
  O  O414  1  0.37762032  0.86092892  0.61810110  1
  O  O415  1  0.87310972  0.37059286  0.11883961  1
  O  O416  1  0.86256265  0.36914704  0.61931618  1
  O  O417  1  0.87155714  0.86663207  0.12110444  1
  O  O418  1  0.87442677  0.85740375  0.63036513  1
  O  O419  1  0.13740265  0.13035300  0.38445582  1
  O  O420  1  0.11900280  0.12794108  0.88605657  1
  O  O421  1  0.13141683  0.63482297  0.38667165  1
  O  O422  1  0.12521543  0.63238545  0.88014662  1
  O  O423  1  0.61829396  0.12151834  0.39201021  1
  O  O424  1  0.61409093  0.13901469  0.87472558  1
  O  O425  1  0.63200482  0.62802965  0.38138796  1
  O  O426  1  0.63138882  0.63149347  0.88042233  1
