# generated using pymatgen
data_V85Zn86O256
_symmetry_space_group_name_H-M   'P 1'
_cell_length_a   16.93672600
_cell_length_b   16.94894417
_cell_length_c   16.93984537
_cell_angle_alpha   89.98804110
_cell_angle_beta   90.00179821
_cell_angle_gamma   89.89978305
_symmetry_Int_Tables_number   1
_chemical_formula_structural   V85Zn86O256
_chemical_formula_sum   'V85 Zn86 O256'
_cell_volume   4862.73808344
_cell_formula_units_Z   1
loop_
 _symmetry_equiv_pos_site_id
 _symmetry_equiv_pos_as_xyz
  1  'x, y, z'
loop_
 _atom_site_type_symbol
 _atom_site_label
 _atom_site_symmetry_multiplicity
 _atom_site_fract_x
 _atom_site_fract_y
 _atom_site_fract_z
 _atom_site_occupancy
  V  V0  1  0.61465021  0.49958776  0.63350917  1
  V  V1  1  0.61354731  0.62026813  -0.00177077  1
  V  V2  1  0.62733530  0.25570573  0.87111527  1
  V  V3  1  0.12204173  -0.00081157  0.12918770  1
  V  V4  1  0.74847439  0.49904099  0.25334247  1
  V  V5  1  0.75169985  0.25819261  0.50903321  1
  V  V6  1  0.61620670  0.49771247  0.12112470  1
  V  V7  1  0.01181315  0.74482692  0.75437358  1
  V  V8  1  0.00181513  0.62337325  0.61601984  1
  V  V9  1  0.75055011  0.87652656  0.62631520  1
  V  V10  1  0.24823015  -0.00071194  0.25002499  1
  V  V11  1  0.12448385  0.12729704  -0.01289117  1
  V  V12  1  0.37697590  0.87546649  -0.00029794  1
  V  V13  1  0.13039239  0.74739140  0.37304552  1
  V  V14  1  0.07084960  0.30062562  0.42304087  1
  V  V15  1  0.24406370  0.87407929  0.12983357  1
  V  V16  1  0.75294168  0.48345313  0.74306605  1
  V  V17  1  0.24800131  0.12709489  0.37264675  1
  V  V18  1  0.49449180  0.24812826  0.74822325  1
  V  V19  1  0.12200572  0.49890142  0.62327687  1
  V  V20  1  0.37163879  0.62833005  0.25503807  1
  V  V21  1  0.62574718  0.24561240  0.38155058  1
  V  V22  1  -0.00066857  -0.00206757  -0.00294416  1
  V  V23  1  0.00055240  0.12535292  0.62844968  1
  V  V24  1  0.12906846  -0.00154378  0.62918128  1
  V  V25  1  0.75327152  0.61640723  0.87325750  1
  V  V26  1  0.49455891  -0.00151065  -0.00294847  1
  V  V27  1  0.12429583  0.12000212  0.49493699  1
  V  V28  1  -0.00471610  0.62392763  0.12445573  1
  V  V29  1  0.86992844  0.12227324  0.75412914  1
  V  V30  1  0.61480596  0.75010951  0.87514179  1
  V  V31  1  0.12260483  0.49885620  0.12559047  1
  V  V32  1  0.87632047  0.62209433  0.75353038  1
  V  V33  1  0.37887474  0.23543369  0.62714227  1
  V  V34  1  -0.00405464  0.12958601  0.12189721  1
  V  V35  1  0.38476865  0.86880861  0.49428638  1
  V  V36  1  0.50848848  0.01103860  0.51135642  1
  V  V37  1  0.86328544  -0.00053626  0.87101556  1
  V  V38  1  0.75180294  0.36921355  0.12596837  1
  V  V39  1  -0.00037883  0.25581485  0.24418220  1
  V  V40  1  0.25406612  0.87082431  0.61812849  1
  V  V41  1  0.25202232  0.49919565  0.75222961  1
  V  V42  1  0.12636314  0.36655738  0.76014687  1
  V  V43  1  0.38107702  0.37574044  0.50367218  1
  V  V44  1  0.87202646  0.62757095  0.25382058  1
  V  V45  1  0.87488027  0.87271064  -0.00182721  1
  V  V46  1  0.38963053  -0.00162249  0.37213061  1
  V  V47  1  0.87810347  0.86692916  0.50002843  1
  V  V48  1  0.50419627  0.51609529  0.50242692  1
  V  V49  1  0.50481060  0.38323780  0.87582193  1
  V  V50  1  0.63190591  0.87832209  0.75138982  1
  V  V51  1  0.24919733  0.25060409  -0.00650376  1
  V  V52  1  0.00543161  0.87371769  0.37108088  1
  V  V53  1  0.62598288  0.12220435  -0.01603949  1
  V  V54  1  0.00110344  0.75212077  0.24904212  1
  V  V55  1  0.75110661  -0.00056953  0.24714687  1
  V  V56  1  0.75306087  0.24484625  -0.00125278  1
  V  V57  1  0.50782378  0.75309383  0.25513413  1
  V  V58  1  0.12173085  0.62761376  -0.00281128  1
  V  V59  1  0.13483774  0.62117178  0.49462466  1
  V  V60  1  0.24973506  0.50388255  0.25863654  1
  V  V61  1  0.24298633  0.75370917  -0.00301221  1
  V  V62  1  0.73420199  0.74381673  0.49979725  1
  V  V63  1  0.74829722  0.74663195  -0.00158374  1
  V  V64  1  0.13125371  0.86777778  0.75551296  1
  V  V65  1  0.49880351  0.74405502  0.73564592  1
  V  V66  1  0.88716359  0.49468903  0.38273526  1
  V  V67  1  0.62554498  -0.00090026  0.12144985  1
  V  V68  1  0.50055639  0.25194711  0.24964479  1
  V  V69  1  0.37674540  0.50245776  0.88549799  1
  V  V70  1  0.37467953  0.12667752  0.24686389  1
  V  V71  1  0.62434241  0.37378962  0.25138533  1
  V  V72  1  0.00263130  0.36632906  0.88094492  1
  V  V73  1  0.26722896  0.12139392  0.86803174  1
  V  V74  1  0.73771251  0.62274581  0.38055974  1
  V  V75  1  -0.00704144  0.50111530  -0.00666091  1
  V  V76  1  0.25298410  0.24881966  0.49667765  1
  V  V77  1  0.44604482  0.92990284  0.82983296  1
  V  V78  1  0.25215154  0.37319393  0.12574459  1
  V  V79  1  0.24866285  0.37004945  0.62682096  1
  V  V80  1  0.12347256  0.37030447  0.25021441  1
  V  V81  1  0.24657861  0.62754406  0.87543927  1
  V  V82  1  0.87260223  0.37695866  0.00067599  1
  V  V83  1  0.87654566  -0.00017756  0.37441748  1
  V  V84  1  0.87310682  0.13242893  0.24712686  1
  Zn  Zn85  1  0.87133160  0.75007034  0.12595609  1
  Zn  Zn86  1  0.74543343  0.87212427  0.12261903  1
  Zn  Zn87  1  0.00620079  0.24009232  0.76302346  1
  Zn  Zn88  1  0.50018564  0.37819560  0.37915929  1
  Zn  Zn89  1  0.37514903  0.74775280  0.12576038  1
  Zn  Zn90  1  0.00478403  0.87002145  0.87401019  1
  Zn  Zn91  1  0.87569911  0.38000865  0.50322375  1
  Zn  Zn92  1  0.60643612  0.88281868  0.27096582  1
  Zn  Zn93  1  0.26759581  -0.00119112  0.75215977  1
  Zn  Zn94  1  0.25892358  0.74435430  0.49262604  1
  Zn  Zn95  1  0.50036816  0.12766888  0.12046615  1
  Zn  Zn96  1  0.37981496  0.37732782  0.00254027  1
  Zn  Zn97  1  0.37259204  0.50440138  0.38078097  1
  Zn  Zn98  1  0.74896827  0.12519062  0.38427919  1
  Zn  Zn99  1  0.87264304  0.25863437  0.63631315  1
  Zn  Zn100  1  0.49498041  0.62397244  0.12341410  1
  Zn  Zn101  1  0.87687475  0.74763220  0.62701825  1
  Zn  Zn102  1  0.37662518  0.25173081  0.12335682  1
  Zn  Zn103  1  0.62702026  0.12583290  0.54008495  1
  Zn  Zn104  1  0.00131392  -0.00404454  0.50211705  1
  Zn  Zn105  1  0.71008830  0.03904431  0.69738722  1
  Zn  Zn106  1  0.38598361  0.62391721  0.73982809  1
  Zn  Zn107  1  0.18320016  0.18791096  0.18371633  1
  Zn  Zn108  1  0.19073347  0.18524852  0.68857168  1
  Zn  Zn109  1  0.18523955  0.68738480  0.18667689  1
  Zn  Zn110  1  0.21184842  0.67796299  0.67466759  1
  Zn  Zn111  1  0.68431477  0.18451923  0.18312286  1
  Zn  Zn112  1  0.68985037  0.20862346  0.69302053  1
  Zn  Zn113  1  0.68518169  0.68534594  0.18620900  1
  Zn  Zn114  1  0.68572883  0.68456673  0.68379028  1
  Zn  Zn115  1  0.31340622  0.31451888  0.31562313  1
  Zn  Zn116  1  0.31566366  0.31187068  0.81714956  1
  Zn  Zn117  1  0.31662971  0.81483995  0.31112190  1
  Zn  Zn118  1  0.30873577  0.80502450  0.80854402  1
  Zn  Zn119  1  0.81160699  0.31275593  0.31869655  1
  Zn  Zn120  1  0.82087860  0.30816149  0.82082952  1
  Zn  Zn121  1  0.77850657  0.82903534  0.33085275  1
  Zn  Zn122  1  0.81400773  0.80547105  0.81358249  1
  Zn  Zn123  1  0.19119685  0.44035428  0.44323993  1
  Zn  Zn124  1  0.18685541  0.43910655  0.94032666  1
  Zn  Zn125  1  0.19085037  0.93738483  0.43443976  1
  Zn  Zn126  1  0.18964412  0.94269806  0.93649709  1
  Zn  Zn127  1  0.68361589  0.43834416  0.44121172  1
  Zn  Zn128  1  0.68823600  0.43901127  0.93640183  1
  Zn  Zn129  1  0.68753711  0.93972777  0.44095288  1
  Zn  Zn130  1  0.68551295  0.93439749  0.93446698  1
  Zn  Zn131  1  0.31129758  0.06261066  0.06022853  1
  Zn  Zn132  1  0.31315985  0.05646323  0.55899783  1
  Zn  Zn133  1  0.30981814  0.56366786  0.06789250  1
  Zn  Zn134  1  0.31527077  0.56271282  0.56691912  1
  Zn  Zn135  1  0.81246357  0.06325589  0.05922853  1
  Zn  Zn136  1  0.81897287  0.06705394  0.55691432  1
  Zn  Zn137  1  0.80720968  0.55993807  0.06507311  1
  Zn  Zn138  1  0.81167806  0.56260255  0.56480499  1
  Zn  Zn139  1  0.43520099  0.43836893  0.19002286  1
  Zn  Zn140  1  0.43738491  0.43330313  0.69022638  1
  Zn  Zn141  1  0.43592032  0.93605009  0.18226074  1
  Zn  Zn142  1  0.44451712  0.92869823  0.66866290  1
  Zn  Zn143  1  0.93286757  0.43857982  0.18695876  1
  Zn  Zn144  1  0.93607054  0.44116082  0.69707842  1
  Zn  Zn145  1  0.93335896  0.93662426  0.18594492  1
  Zn  Zn146  1  0.93993566  0.93586726  0.68843460  1
  Zn  Zn147  1  0.05916620  0.06461624  0.31021786  1
  Zn  Zn148  1  0.06042826  0.05302262  0.81179271  1
  Zn  Zn149  1  0.06282983  0.56341403  0.31171148  1
  Zn  Zn150  1  0.06420906  0.55787762  0.81247932  1
  Zn  Zn151  1  0.56460334  0.06739689  0.31004657  1
  Zn  Zn152  1  0.57730096  0.08428295  0.76960428  1
  Zn  Zn153  1  0.55687191  0.56336199  0.31183811  1
  Zn  Zn154  1  0.56687400  0.56262373  0.80879399  1
  Zn  Zn155  1  0.43948919  0.18593520  0.43670434  1
  Zn  Zn156  1  0.43960704  0.19097009  0.93617755  1
  Zn  Zn157  1  0.44236981  0.68746276  0.42884118  1
  Zn  Zn158  1  0.43112297  0.68960356  0.93466357  1
  Zn  Zn159  1  0.93167690  0.18326983  0.44194544  1
  Zn  Zn160  1  0.93236268  0.18598249  0.93836436  1
  Zn  Zn161  1  0.93670073  0.68471930  0.43518386  1
  Zn  Zn162  1  0.93664084  0.68899763  0.93239939  1
  Zn  Zn163  1  0.06500194  0.31025413  0.06230095  1
  Zn  Zn164  1  0.02726350  0.33763604  0.59591188  1
  Zn  Zn165  1  0.06099792  0.81268802  0.06442866  1
  Zn  Zn166  1  0.06598248  0.80815241  0.56330740  1
  Zn  Zn167  1  0.56245912  0.31266535  0.05877909  1
  Zn  Zn168  1  0.56692778  0.32067385  0.56900714  1
  Zn  Zn169  1  0.55977809  0.81087960  0.06795208  1
  Zn  Zn170  1  0.56516505  0.81994988  0.56134928  1
  O  O171  1  0.11477694  0.11873519  0.11573748  1
  O  O172  1  0.12473977  0.11656901  0.61621048  1
  O  O173  1  0.11749986  0.61988322  0.11499021  1
  O  O174  1  0.12341335  0.61660434  0.61675988  1
  O  O175  1  0.62176024  0.11404603  0.11249066  1
  O  O176  1  0.63137735  0.11645281  0.65781884  1
  O  O177  1  0.62512203  0.61450034  0.11498634  1
  O  O178  1  0.63974287  0.59957781  0.62372070  1
  O  O179  1  0.37511254  0.37856799  0.39139667  1
  O  O180  1  0.38291698  0.38547998  0.87918492  1
  O  O181  1  0.37192498  0.88725515  0.38375785  1
  O  O182  1  0.37480033  0.87073325  0.88328396  1
  O  O183  1  0.87318618  0.39058622  0.37672787  1
  O  O184  1  0.88518231  0.37475110  0.89207286  1
  O  O185  1  0.87986730  0.88074870  0.38187993  1
  O  O186  1  0.87599094  0.87797956  0.88329851  1
  O  O187  1  0.25846784  0.00727918  0.36718843  1
  O  O188  1  0.24988023  0.01588835  0.87249114  1
  O  O189  1  0.24953089  0.49606270  0.36198157  1
  O  O190  1  0.25712546  0.50432679  0.87176660  1
  O  O191  1  0.76275609  0.00604114  0.36702696  1
  O  O192  1  0.76377898  -0.00150975  0.88021210  1
  O  O193  1  0.75439282  0.50538343  0.37137749  1
  O  O194  1  0.74310459  0.51072685  0.86303649  1
  O  O195  1  0.24268554  0.48844157  0.13006905  1
  O  O196  1  0.23951970  0.48888700  0.63443014  1
  O  O197  1  0.24138549  0.99520285  0.12843425  1
  O  O198  1  0.24663494  0.99177995  0.62929250  1
  O  O199  1  0.74007823  0.48916664  0.13273525  1
  O  O200  1  0.75554929  0.49619743  0.64069516  1
  O  O201  1  0.74205314  1.00181911  0.12855118  1
  O  O202  1  0.76118455  0.98216061  0.61510399  1
  O  O203  1  0.00055991  0.36239523  0.24365953  1
  O  O204  1  0.00818052  0.37493532  0.76575698  1
  O  O205  1  -0.00969236  0.86342888  0.25745438  1
  O  O206  1  0.01222396  0.86330434  0.74771871  1
  O  O207  1  0.50384755  0.36786275  0.25463003  1
  O  O208  1  0.49459275  0.36742068  0.76689449  1
  O  O209  1  0.49681104  0.86150055  0.24410281  1
  O  O210  1  0.50754178  0.87141304  0.75566366  1
  O  O211  1  0.49193488  0.13344143  0.24623595  1
  O  O212  1  0.48703888  0.14852611  0.76275238  1
  O  O213  1  0.49161006  0.63363692  0.24692992  1
  O  O214  1  0.50297311  0.63820374  0.74678536  1
  O  O215  1  0.99476440  0.13532606  0.24193572  1
  O  O216  1  0.99604109  0.12198988  0.74510705  1
  O  O217  1  0.99157278  0.62879835  0.24403636  1
  O  O218  1  0.99775409  0.62683513  0.74567021  1
  O  O219  1  0.36241911  0.24986346  0.00382669  1
  O  O220  1  0.37512841  0.25606477  0.50725552  1
  O  O221  1  0.36165039  0.75610974  0.00186251  1
  O  O222  1  0.37718844  0.76500258  0.48638026  1
  O  O223  1  0.86054486  0.25573020  -0.00252762  1
  O  O224  1  0.86225203  0.25211325  0.50139054  1
  O  O225  1  0.86694668  0.75525922  -0.00159618  1
  O  O226  1  0.87762635  0.75906414  0.50234569  1
  O  O227  1  0.12828102  0.24264694  0.49030038  1
  O  O228  1  0.13834624  0.24001234  1.00533650  1
  O  O229  1  0.12556229  0.74026422  0.48922374  1
  O  O230  1  0.13403014  0.74319518  1.00411499  1
  O  O231  1  0.63191541  0.24758283  0.49918228  1
  O  O232  1  0.62960292  0.24187897  0.99098902  1
  O  O233  1  0.63588756  0.75230491  0.49981774  1
  O  O234  1  0.63026400  0.74391876  0.99375311  1
  O  O235  1  0.49971952  0.24983854  0.13614049  1
  O  O236  1  0.49545954  0.25767350  0.63973700  1
  O  O237  1  0.49393964  0.74412849  0.13175852  1
  O  O238  1  0.50427408  0.75671856  0.63725073  1
  O  O239  1  1.00124826  0.24093154  0.13071398  1
  O  O240  1  1.00746554  0.23076707  0.63219666  1
  O  O241  1  0.99608153  0.74317073  0.13219484  1
  O  O242  1  1.00249708  0.73857334  0.63550157  1
  O  O243  1  0.00456359  0.24323808  0.36764671  1
  O  O244  1  0.00160924  0.26175864  0.88315596  1
  O  O245  1  0.00553032  0.75555371  0.36785627  1
  O  O246  1  0.00303750  0.74952108  0.85997987  1
  O  O247  1  0.50623353  0.25155267  0.36594684  1
  O  O248  1  0.50429244  0.26192647  0.86967971  1
  O  O249  1  0.50325795  0.74908836  0.35549706  1
  O  O250  1  0.51212613  0.74454359  0.87102960  1
  O  O251  1  0.24249584  0.12868323  0.49505939  1
  O  O252  1  0.24328562  0.12999207  0.99145624  1
  O  O253  1  0.23890715  0.62497891  0.49638055  1
  O  O254  1  0.24174886  0.63127114  0.99506632  1
  O  O255  1  0.74338654  0.13692384  0.50424591  1
  O  O256  1  0.74094785  0.13495453  1.00283551  1
  O  O257  1  0.75363762  0.63598009  0.49661484  1
  O  O258  1  0.74352361  0.62882678  0.99281545  1
  O  O259  1  0.25022099  0.36746185  0.00678572  1
  O  O260  1  0.25616118  0.36739196  0.50737218  1
  O  O261  1  0.25302820  0.86974553  0.00421897  1
  O  O262  1  0.26488751  0.87943830  0.50143308  1
  O  O263  1  0.75585989  0.37095429  0.00561947  1
  O  O264  1  0.75202270  0.36156586  0.49554126  1
  O  O265  1  0.75607727  0.86393340  -0.00065133  1
  O  O266  1  0.75863188  0.86162351  0.50592136  1
  O  O267  1  0.12979547  0.49314156  0.24525475  1
  O  O268  1  0.13442681  0.48834379  0.74758586  1
  O  O269  1  0.12825436  1.00759335  0.23617693  1
  O  O270  1  0.12828665  0.99107850  0.73862123  1
  O  O271  1  0.62903441  0.49269112  0.24499907  1
  O  O272  1  0.63834829  0.49899054  0.74286091  1
  O  O273  1  0.63322725  1.00010837  0.24171255  1
  O  O274  1  0.63041136  0.98420629  0.76328043  1
  O  O275  1  0.37243510  0.00720999  0.25417902  1
  O  O276  1  0.38870023  -0.01831240  0.75912307  1
  O  O277  1  0.36570039  0.50625618  0.25288623  1
  O  O278  1  0.36269700  0.50088305  0.75636861  1
  O  O279  1  0.87399766  0.01303811  0.25424723  1
  O  O280  1  0.87945469  0.00502912  0.75936158  1
  O  O281  1  0.86797572  0.50832644  0.25719788  1
  O  O282  1  0.86510327  0.51119639  0.75245288  1
  O  O283  1  0.12919139  0.36885159  0.37048006  1
  O  O284  1  0.11760704  0.37887270  0.87136561  1
  O  O285  1  0.11053289  0.87063478  0.37872754  1
  O  O286  1  0.12937035  0.87992248  0.85912603  1
  O  O287  1  0.62352309  0.36349868  0.37033712  1
  O  O288  1  0.61327662  0.37171755  0.87985287  1
  O  O289  1  0.67085897  0.86773225  0.35937024  1
  O  O290  1  0.63369806  0.85947936  0.86637431  1
  O  O291  1  0.37468489  0.12633348  0.13622547  1
  O  O292  1  0.37005840  0.13657146  0.61983210  1
  O  O293  1  0.37531631  0.62459131  0.13680853  1
  O  O294  1  0.32108574  0.63490293  0.64948598  1
  O  O295  1  0.88769602  0.11992591  0.13081834  1
  O  O296  1  0.88573728  0.12467309  0.63372025  1
  O  O297  1  0.87715873  0.62437000  0.13445434  1
  O  O298  1  0.88667040  0.62364754  0.63250624  1
  O  O299  1  0.25008477  0.26104489  0.12013399  1
  O  O300  1  0.25703683  0.25316763  0.61886349  1
  O  O301  1  0.24773179  0.75921022  0.11814802  1
  O  O302  1  0.23889467  0.76918309  0.60944262  1
  O  O303  1  0.74016066  0.26199842  0.11556147  1
  O  O304  1  0.75504248  0.25753306  0.61485706  1
  O  O305  1  0.75000638  0.74873109  0.11125582  1
  O  O306  1  0.75385051  0.75355068  0.61314914  1
  O  O307  1  0.25667972  0.23939582  0.38296765  1
  O  O308  1  0.25270133  0.23724804  0.88190157  1
  O  O309  1  0.23338055  0.75983689  0.37157266  1
  O  O310  1  0.24988560  0.73942420  0.88327709  1
  O  O311  1  0.74316727  0.24716762  0.38682678  1
  O  O312  1  0.73811598  0.25861589  0.88494486  1
  O  O313  1  0.76148185  0.73550233  0.39380927  1
  O  O314  1  0.74325403  0.73795814  0.88356642  1
  O  O315  1  0.00494993  0.12121040  0.00557636  1
  O  O316  1  0.00812918  0.12070011  0.50679495  1
  O  O317  1  0.00258621  0.61974820  0.00243958  1
  O  O318  1  0.00766389  0.62917898  0.51253918  1
  O  O319  1  0.50686558  0.11713583  -0.00138544  1
  O  O320  1  0.50708568  0.11529054  0.49918029  1
  O  O321  1  0.51047034  0.62858405  -0.00147231  1
  O  O322  1  0.49108679  0.61450436  0.50366106  1
  O  O323  1  0.49232394  0.38232085  0.50186656  1
  O  O324  1  0.49649881  0.37062708  0.98317983  1
  O  O325  1  0.49095793  0.88743038  0.50201790  1
  O  O326  1  0.48629426  0.88005678  1.00423812  1
  O  O327  1  1.01327050  0.35812340  0.48145368  1
  O  O328  1  0.99408473  0.38121271  1.00077086  1
  O  O329  1  0.99437785  0.87449644  0.49220046  1
  O  O330  1  0.99279677  0.87710366  0.99637107  1
  O  O331  1  0.49714096  0.49981855  0.39027792  1
  O  O332  1  0.49323528  0.49214006  0.86735144  1
  O  O333  1  0.49271982  1.00442660  0.37587681  1
  O  O334  1  0.50474101  0.99555846  0.88552109  1
  O  O335  1  0.98552222  0.50142140  0.37004877  1
  O  O336  1  1.00391594  0.49109439  0.88964503  1
  O  O337  1  0.99129692  0.99179285  0.37232040  1
  O  O338  1  0.99382074  0.99127934  0.88334713  1
  O  O339  1  0.00534272  0.00512300  0.11931860  1
  O  O340  1  0.01039288  0.00785673  0.62408584  1
  O  O341  1  0.00296200  0.50524459  0.11733361  1
  O  O342  1  0.01494311  0.50877419  0.63629307  1
  O  O343  1  0.50561743  0.00226182  0.11284458  1
  O  O344  1  0.50249177  0.00646686  0.61088557  1
  O  O345  1  0.51249108  0.50012772  0.12912412  1
  O  O346  1  0.50575629  0.50039065  0.62159759  1
  O  O347  1  0.24628836  0.37963753  0.24290477  1
  O  O348  1  0.24508032  0.38047498  0.74986299  1
  O  O349  1  0.25405370  0.88282818  0.23771442  1
  O  O350  1  0.24797150  0.87550384  0.73924463  1
  O  O351  1  0.74541619  0.37609232  0.24292724  1
  O  O352  1  0.76261416  0.38605423  0.75646991  1
  O  O353  1  0.77170722  0.89571320  0.23637128  1
  O  O354  1  0.74528226  0.86341306  0.73936704  1
  O  O355  1  0.25540692  0.12158059  0.25188560  1
  O  O356  1  0.25050467  0.12167447  0.76338370  1
  O  O357  1  0.25490800  0.61407376  0.24235459  1
  O  O358  1  0.22745417  0.61193770  0.77096820  1
  O  O359  1  0.75837052  0.11748420  0.24641703  1
  O  O360  1  0.76635722  0.12940387  0.74744732  1
  O  O361  1  0.75598819  0.62164030  0.25701725  1
  O  O362  1  0.75958878  0.62537308  0.75701821  1
  O  O363  1  0.37130833  0.11886936  0.36345606  1
  O  O364  1  0.36519144  0.12358125  0.87866154  1
  O  O365  1  0.37358445  0.62270466  0.36114931  1
  O  O366  1  0.36468059  0.61918590  0.86767134  1
  O  O367  1  0.87471403  0.11609540  0.36702202  1
  O  O368  1  0.88240877  0.11220041  0.86669030  1
  O  O369  1  0.86959184  0.61382232  0.36940279  1
  O  O370  1  0.86577941  0.62593918  0.86763787  1
  O  O371  1  0.13148001  0.37915731  0.13116013  1
  O  O372  1  0.12630136  0.38153689  0.63486643  1
  O  O373  1  0.13273872  0.88555248  0.11960895  1
  O  O374  1  0.13122640  0.88384498  0.62766770  1
  O  O375  1  0.63033939  0.38019533  0.12822371  1
  O  O376  1  0.63178054  0.39826191  0.62064185  1
  O  O377  1  0.62648936  0.89020621  0.12206720  1
  O  O378  1  0.63733721  0.87275142  0.63595125  1
  O  O379  1  0.11436484  0.25643944  0.24781943  1
  O  O380  1  0.12610917  0.26279715  0.74774484  1
  O  O381  1  0.10957262  0.74198830  0.25609602  1
  O  O382  1  0.12401565  0.75715667  0.73990261  1
  O  O383  1  0.61890082  0.25416773  0.25531796  1
  O  O384  1  0.61204426  0.25509108  0.76325134  1
  O  O385  1  0.61117747  0.75360795  0.23994366  1
  O  O386  1  0.61616173  0.75563170  0.75482154  1
  O  O387  1  0.38260101  0.24404214  0.24980312  1
  O  O388  1  0.38398288  0.25887817  0.74020427  1
  O  O389  1  0.38011793  0.74351805  0.24772299  1
  O  O390  1  0.39674400  0.75271716  0.75585391  1
  O  O391  1  0.88010785  0.23896960  0.25649181  1
  O  O392  1  0.88435798  0.23963702  0.75375113  1
  O  O393  1  0.88267979  0.73605921  0.25132550  1
  O  O394  1  0.88558018  0.73710997  0.74844660  1
  O  O395  1  0.38353882  0.49447556  0.50527069  1
  O  O396  1  0.37017959  0.50305709  0.98854130  1
  O  O397  1  0.38851402  0.99740907  0.49040608  1
  O  O398  1  0.38279290  0.99127810  1.00239231  1
  O  O399  1  0.87421116  0.49958433  0.48784292  1
  O  O400  1  0.88202282  0.49212847  1.00572592  1
  O  O401  1  0.87876032  0.99070746  0.48944264  1
  O  O402  1  0.87994375  0.99233590  0.99388349  1
  O  O403  1  0.11980808  0.00751199  0.00860287  1
  O  O404  1  0.12624049  0.00480661  0.50952912  1
  O  O405  1  0.11681780  0.50670895  0.00812471  1
  O  O406  1  0.12683973  0.50603419  0.51059475  1
  O  O407  1  0.61920595  0.00514232  0.00108794  1
  O  O408  1  0.61279315  0.00402740  0.49628016  1
  O  O409  1  0.63044876  0.50868493  0.00847223  1
  O  O410  1  0.60845858  0.49980004  0.50717328  1
  O  O411  1  0.36601551  0.37500438  0.12205268  1
  O  O412  1  0.36837333  0.36915619  0.61699445  1
  O  O413  1  0.36157853  0.87453316  0.11414608  1
  O  O414  1  0.36838238  0.87599703  0.60536914  1
  O  O415  1  0.86372441  0.37752881  0.11523710  1
  O  O416  1  0.91277988  0.36703738  0.61445001  1
  O  O417  1  0.87421648  0.87243108  0.10877246  1
  O  O418  1  0.87407730  0.87013814  0.61667829  1
  O  O419  1  0.12897015  0.11518763  0.38751731  1
  O  O420  1  0.12445276  0.11976498  0.88557686  1
  O  O421  1  0.11722617  0.63359697  0.38349623  1
  O  O422  1  0.12783615  0.61664537  0.89173026  1
  O  O423  1  0.62879686  0.14026877  0.37017577  1
  O  O424  1  0.62129800  0.13465734  0.87966782  1
  O  O425  1  0.63858342  0.61934972  0.37070556  1
  O  O426  1  0.63186568  0.62969813  0.88078003  1
