# generated using pymatgen
data_V85Zn86O256
_symmetry_space_group_name_H-M   'P 1'
_cell_length_a   16.93683803
_cell_length_b   16.94880044
_cell_length_c   16.93941244
_cell_angle_alpha   89.94725715
_cell_angle_beta   90.05640284
_cell_angle_gamma   89.93452523
_symmetry_Int_Tables_number   1
_chemical_formula_structural   V85Zn86O256
_chemical_formula_sum   'V85 Zn86 O256'
_cell_volume   4862.60468641
_cell_formula_units_Z   1
loop_
 _symmetry_equiv_pos_site_id
 _symmetry_equiv_pos_as_xyz
  1  'x, y, z'
loop_
 _atom_site_type_symbol
 _atom_site_label
 _atom_site_symmetry_multiplicity
 _atom_site_fract_x
 _atom_site_fract_y
 _atom_site_fract_z
 _atom_site_occupancy
  V  V0  1  0.62228285  0.37628165  0.25287532  1
  V  V1  1  0.38620579  0.49810601  0.88289479  1
  V  V2  1  0.62566530  0.74683238  0.88143909  1
  V  V3  1  0.87039633  0.63175072  0.23851669  1
  V  V4  1  0.62829805  0.87364701  0.74891160  1
  V  V5  1  0.75137827  0.25153206  0.49859923  1
  V  V6  1  0.87157458  0.12983111  0.24564414  1
  V  V7  1  0.37176462  0.87275855  0.49542867  1
  V  V8  1  0.87719671  0.25235004  0.62329370  1
  V  V9  1  0.01464981  0.63732940  0.11755266  1
  V  V10  1  0.12423282  0.74726074  0.87770687  1
  V  V11  1  0.12461979  0.12636868  0.00159040  1
  V  V12  1  0.87876042  0.38009439  0.00842852  1
  V  V13  1  0.63306246  -0.00595515  0.62156427  1
  V  V14  1  0.75939888  0.62416134  0.87543824  1
  V  V15  1  0.50244052  0.12146077  0.62905255  1
  V  V16  1  0.12074262  0.74778659  0.37050034  1
  V  V17  1  0.88818856  0.38538067  0.48564430  1
  V  V18  1  0.62614952  0.49517863  0.11879404  1
  V  V19  1  0.37357801  0.74888673  0.62222485  1
  V  V20  1  -0.00909659  0.88005679  0.87014194  1
  V  V21  1  0.62555866  0.12414946  0.49922279  1
  V  V22  1  0.50021998  0.74760908  0.74861522  1
  V  V23  1  0.87685640  0.87029591  0.49970248  1
  V  V24  1  0.24420574  0.50642299  0.23573427  1
  V  V25  1  0.01571835  0.50457297  0.00601781  1
  V  V26  1  0.12527883  0.50888625  0.61444068  1
  V  V27  1  0.24904822  0.49717437  0.75276728  1
  V  V28  1  0.62762639  0.36634477  0.75360939  1
  V  V29  1  0.24717765  0.62328522  0.88179863  1
  V  V30  1  0.50133445  0.74731918  0.25070474  1
  V  V31  1  0.62048604  0.25500388  0.37411374  1
  V  V32  1  0.12970454  0.12381359  0.49466533  1
  V  V33  1  0.37931184  0.49830905  0.37390342  1
  V  V34  1  0.12261508  0.87415679  0.74889809  1
  V  V35  1  0.24935049  0.37169224  0.62878561  1
  V  V36  1  0.50098177  0.61777998  0.11738952  1
  V  V37  1  0.36875790  0.87401448  0.00194090  1
  V  V38  1  0.75478173  0.74629587  0.50673668  1
  V  V39  1  0.00107439  0.12667084  0.62316175  1
  V  V40  1  0.62508740  0.49828742  0.62657638  1
  V  V41  1  0.87246411  0.87292297  -0.00041080  1
  V  V42  1  0.37599032  0.75035948  0.12611566  1
  V  V43  1  0.87066819  0.12274614  0.76201460  1
  V  V44  1  0.00142198  0.25360794  0.75050477  1
  V  V45  1  0.75544666  0.12192306  0.37622442  1
  V  V46  1  0.75193519  0.87108365  0.12477825  1
  V  V47  1  0.24360097  0.87427354  0.13853732  1
  V  V48  1  0.75328766  0.37515919  0.62582124  1
  V  V49  1  0.62565564  0.13787453  -0.00975252  1
  V  V50  1  0.76121847  0.50295866  0.75111307  1
  V  V51  1  0.12719120  0.25141410  0.87773879  1
  V  V52  1  0.00214751  0.88280784  0.36364768  1
  V  V53  1  0.62574920  0.87561489  0.25062165  1
  V  V54  1  -0.00318571  0.25744124  0.24965193  1
  V  V55  1  0.62384786  0.00836510  0.12718560  1
  V  V56  1  0.24561034  0.35834328  0.12702832  1
  V  V57  1  0.63023014  0.74463615  0.37667563  1
  V  V58  1  0.24860912  0.87323673  0.62371155  1
  V  V59  1  -0.00976085  0.00137962  0.49535436  1
  V  V60  1  0.37175375  0.01204583  0.36974869  1
  V  V61  1  0.24642962  0.62327719  0.37994562  1
  V  V62  1  0.49820734  0.87221862  0.87635788  1
  V  V63  1  0.12476183  -0.00107575  0.62172532  1
  V  V64  1  0.24451064  0.01471385  0.25334786  1
  V  V65  1  -0.00601892  0.13009288  0.12373355  1
  V  V66  1  0.25279353  0.24692883  0.49191400  1
  V  V67  1  -0.00842056  0.00303513  -0.00490757  1
  V  V68  1  0.49927779  0.00202427  0.00400731  1
  V  V69  1  0.50598490  0.37025947  0.88461341  1
  V  V70  1  0.76123819  0.24704126  -0.00271692  1
  V  V71  1  0.37522721  0.62347106  0.74960992  1
  V  V72  1  -0.00767447  0.62463949  0.61270241  1
  V  V73  1  0.24901811  0.12197726  0.87902329  1
  V  V74  1  0.48240205  0.25395892  0.25339001  1
  V  V75  1  0.12147528  0.25378386  0.37153169  1
  V  V76  1  -0.01197065  0.73954592  0.74626167  1
  V  V77  1  0.48435658  0.13048092  0.13239195  1
  V  V78  1  0.49997264  0.62099075  0.61993898  1
  V  V79  1  0.75381061  -0.00042613  0.25408332  1
  V  V80  1  0.37989850  0.37510446  0.49939569  1
  V  V81  1  0.38119933  0.12213010  0.75354006  1
  V  V82  1  0.37575142  -0.00209578  0.87535378  1
  V  V83  1  0.49889161  -0.00173785  0.49755569  1
  V  V84  1  0.37533594  0.24825402  0.63046275  1
  Zn  Zn85  1  0.49886199  0.87400850  0.37363068  1
  Zn  Zn86  1  0.24279389  0.74447601  0.00734655  1
  Zn  Zn87  1  0.76668480  -0.00515992  0.77111916  1
  Zn  Zn88  1  0.75261635  0.36806436  0.12852768  1
  Zn  Zn89  1  0.88039832  0.50089154  0.87725798  1
  Zn  Zn90  1  0.11896461  -0.00406245  0.13119716  1
  Zn  Zn91  1  0.24948950  -0.00215131  0.74976977  1
  Zn  Zn92  1  0.51119824  0.24218659  0.75629343  1
  Zn  Zn93  1  0.76128726  0.86840386  0.62969685  1
  Zn  Zn94  1  0.75503394  0.74197866  0.00637205  1
  Zn  Zn95  1  0.37339111  0.36119904  0.01590842  1
  Zn  Zn96  1  0.62415487  0.61334436  -0.00425578  1
  Zn  Zn97  1  0.63127005  0.61810758  0.49630240  1
  Zn  Zn98  1  0.23968069  0.74501147  0.50172187  1
  Zn  Zn99  1  0.09818129  0.40949761  0.25279803  1
  Zn  Zn100  1  0.77608793  0.61144066  0.38261434  1
  Zn  Zn101  1  0.50401133  0.49188366  0.49542784  1
  Zn  Zn102  1  0.00235058  0.37968842  0.87908167  1
  Zn  Zn103  1  0.12503109  0.37570478  0.75126858  1
  Zn  Zn104  1  0.76074541  0.49369162  0.25666847  1
  Zn  Zn105  1  0.37664202  0.62473582  0.25068895  1
  Zn  Zn106  1  -0.00357578  0.76040228  0.23849844  1
  Zn  Zn107  1  0.18239969  0.18527723  0.18740486  1
  Zn  Zn108  1  0.18939475  0.18484220  0.69077183  1
  Zn  Zn109  1  0.18602502  0.69086511  0.19564701  1
  Zn  Zn110  1  0.18540672  0.68639828  0.69143290  1
  Zn  Zn111  1  0.68549799  0.19262660  0.18474551  1
  Zn  Zn112  1  0.69210271  0.18450198  0.68707048  1
  Zn  Zn113  1  0.68633609  0.68446563  0.18686834  1
  Zn  Zn114  1  0.68949780  0.68476762  0.68817842  1
  Zn  Zn115  1  0.30110005  0.32314898  0.31516539  1
  Zn  Zn116  1  0.33197255  0.29313928  0.84842477  1
  Zn  Zn117  1  0.31090471  0.81147664  0.31371565  1
  Zn  Zn118  1  0.30981967  0.80989361  0.81152179  1
  Zn  Zn119  1  0.81035624  0.31112616  0.31227141  1
  Zn  Zn120  1  0.81414144  0.31299621  0.82118761  1
  Zn  Zn121  1  0.81825729  0.80743893  0.31638532  1
  Zn  Zn122  1  0.81207073  0.80928413  0.81484029  1
  Zn  Zn123  1  0.14596824  0.46393205  0.40903907  1
  Zn  Zn124  1  0.19088892  0.43412377  0.94092240  1
  Zn  Zn125  1  0.18509568  0.93557363  0.43289995  1
  Zn  Zn126  1  0.18267154  0.93868373  0.93890362  1
  Zn  Zn127  1  0.69413191  0.43626079  0.43801465  1
  Zn  Zn128  1  0.69247015  0.43275028  0.93860741  1
  Zn  Zn129  1  0.69003930  0.93217605  0.43603097  1
  Zn  Zn130  1  0.68754069  0.94070591  0.93916856  1
  Zn  Zn131  1  0.30748803  0.06062530  0.06395697  1
  Zn  Zn132  1  0.31240717  0.06031547  0.56292250  1
  Zn  Zn133  1  0.32075145  0.56160361  0.05844798  1
  Zn  Zn134  1  0.30978768  0.56000654  0.55973084  1
  Zn  Zn135  1  0.80978368  0.06291845  0.06058599  1
  Zn  Zn136  1  0.81376351  0.06351087  0.56634866  1
  Zn  Zn137  1  0.81258607  0.55997343  0.06712406  1
  Zn  Zn138  1  0.81635340  0.56120669  0.56292693  1
  Zn  Zn139  1  0.43336627  0.43532766  0.18930318  1
  Zn  Zn140  1  0.43836838  0.43408921  0.69457594  1
  Zn  Zn141  1  0.43527607  0.93749334  0.18993225  1
  Zn  Zn142  1  0.44082066  0.93661353  0.68552298  1
  Zn  Zn143  1  0.93399283  0.44965246  0.18162838  1
  Zn  Zn144  1  0.94155919  0.43922410  0.68262303  1
  Zn  Zn145  1  0.93140187  0.94527845  0.18323029  1
  Zn  Zn146  1  0.93855240  0.93837865  0.68383794  1
  Zn  Zn147  1  0.06224267  0.06769492  0.31333739  1
  Zn  Zn148  1  0.05924988  0.06278404  0.81070566  1
  Zn  Zn149  1  0.05083892  0.57317113  0.30565901  1
  Zn  Zn150  1  0.06350618  0.56154319  0.81415620  1
  Zn  Zn151  1  0.56057725  0.06780232  0.31227688  1
  Zn  Zn152  1  0.58848448  0.04893429  0.82397791  1
  Zn  Zn153  1  0.56503051  0.56046857  0.31157898  1
  Zn  Zn154  1  0.56781013  0.55926021  0.80962159  1
  Zn  Zn155  1  0.43890103  0.18920851  0.43859649  1
  Zn  Zn156  1  0.44155612  0.19076410  0.94385953  1
  Zn  Zn157  1  0.43669940  0.68498224  0.43623861  1
  Zn  Zn158  1  0.43532764  0.68679528  0.93940881  1
  Zn  Zn159  1  0.93768163  0.19147161  0.43498612  1
  Zn  Zn160  1  0.93848459  0.19285615  0.93708990  1
  Zn  Zn161  1  0.93879990  0.69032388  0.43119688  1
  Zn  Zn162  1  0.93883942  0.68925354  0.93929107  1
  Zn  Zn163  1  0.06808853  0.31668719  0.06939165  1
  Zn  Zn164  1  0.06633533  0.31663370  0.56085866  1
  Zn  Zn165  1  0.06275211  0.81599557  0.05922025  1
  Zn  Zn166  1  0.05934537  0.80795980  0.55885056  1
  Zn  Zn167  1  0.55923717  0.31058927  0.06943462  1
  Zn  Zn168  1  0.56212653  0.30954394  0.56754769  1
  Zn  Zn169  1  0.56264603  0.81424957  0.06500935  1
  Zn  Zn170  1  0.56330346  0.81031272  0.55962030  1
  O  O171  1  0.11741215  0.11929691  0.11551813  1
  O  O172  1  0.11936365  0.12008718  0.61810829  1
  O  O173  1  0.11416408  0.63874262  0.11974084  1
  O  O174  1  0.12143240  0.61381673  0.62889162  1
  O  O175  1  0.61658366  0.11668731  0.12382233  1
  O  O176  1  0.62299488  0.11460511  0.62039622  1
  O  O177  1  0.61814319  0.61415690  0.12412633  1
  O  O178  1  0.61721595  0.61504451  0.62493982  1
  O  O179  1  0.36541829  0.38616221  0.38801860  1
  O  O180  1  0.39652081  0.38824621  0.85699575  1
  O  O181  1  0.37504246  0.88026719  0.38574171  1
  O  O182  1  0.37809872  0.87730461  0.88155854  1
  O  O183  1  0.87202460  0.36972284  0.38745841  1
  O  O184  1  0.88270047  0.37607037  0.88977309  1
  O  O185  1  0.88999725  0.87388110  0.38557930  1
  O  O186  1  0.88399331  0.87696366  0.87751431  1
  O  O187  1  0.25938901  -0.00381750  0.36375421  1
  O  O188  1  0.25575733  0.00398943  0.87257364  1
  O  O189  1  0.24953012  0.50952891  0.36421736  1
  O  O190  1  0.25684331  0.50369559  0.86903638  1
  O  O191  1  0.74097167  0.00929089  0.36573435  1
  O  O192  1  0.69805631  0.01207491  0.85659582  1
  O  O193  1  0.72918833  0.51054705  0.36536583  1
  O  O194  1  0.75077920  0.50705442  0.86782343  1
  O  O195  1  0.26019245  0.50608481  0.13555387  1
  O  O196  1  0.24318431  0.49562221  0.63241484  1
  O  O197  1  0.25021401  0.99391703  0.13980143  1
  O  O198  1  0.24261771  0.99165018  0.62716889  1
  O  O199  1  0.73838771  0.49536298  0.13364805  1
  O  O200  1  0.74463450  0.49593164  0.63238139  1
  O  O201  1  0.74036590  0.99543514  0.13235273  1
  O  O202  1  0.73882337  0.99704413  0.62659755  1
  O  O203  1  -0.00836792  0.35877321  0.23283450  1
  O  O204  1  0.00068072  0.36325577  0.75062574  1
  O  O205  1  -0.00900046  0.88250113  0.26036267  1
  O  O206  1  0.00410323  0.86790892  0.75315921  1
  O  O207  1  0.50466710  0.36043841  0.24884093  1
  O  O208  1  0.51427022  0.37150438  0.75475830  1
  O  O209  1  0.50716721  0.86473411  0.24887418  1
  O  O210  1  0.50398761  0.86478561  0.75451987  1
  O  O211  1  0.50068416  0.13886417  0.24383552  1
  O  O212  1  0.49659902  0.12055248  0.74765853  1
  O  O213  1  0.50115304  0.63629102  0.24161824  1
  O  O214  1  0.49696975  0.62849531  0.73931109  1
  O  O215  1  0.98855328  0.12625581  0.24271300  1
  O  O216  1  0.99340092  0.13554306  0.74368523  1
  O  O217  1  0.99519558  0.63404174  0.22978054  1
  O  O218  1  1.00355388  0.63730120  0.74743246  1
  O  O219  1  0.36129177  0.26448087  -0.04117680  1
  O  O220  1  0.37005802  0.25228309  0.50810795  1
  O  O221  1  0.37137541  0.75893219  0.00655344  1
  O  O222  1  0.37299164  0.75789656  0.50475571  1
  O  O223  1  0.86745261  0.25471337  0.00104433  1
  O  O224  1  0.87064660  0.25439440  0.50764903  1
  O  O225  1  0.87168078  0.76796676  -0.00744317  1
  O  O226  1  0.86776727  0.75782144  0.49567678  1
  O  O227  1  0.13240668  0.24314188  0.49683058  1
  O  O228  1  0.11630194  0.23546423  0.99195293  1
  O  O229  1  0.12559923  0.75995119  0.47937316  1
  O  O230  1  0.12701121  0.75917933  0.98172053  1
  O  O231  1  0.62911491  0.24457595  0.49462326  1
  O  O232  1  0.62792854  0.23987510  1.00714692  1
  O  O233  1  0.63356329  0.74836078  0.49211290  1
  O  O234  1  0.62540426  0.75346867  0.98723715  1
  O  O235  1  0.49697233  0.24327231  0.14109081  1
  O  O236  1  0.49394711  0.23899708  0.63174114  1
  O  O237  1  0.49754574  0.74493131  0.13261851  1
  O  O238  1  0.49492270  0.74136402  0.62838139  1
  O  O239  1  1.00550893  0.23484838  0.13051589  1
  O  O240  1  0.99590662  0.24734153  0.63073434  1
  O  O241  1  0.99904107  0.74270797  0.11782236  1
  O  O242  1  1.00844214  0.73686865  0.63692737  1
  O  O243  1  0.00808522  0.24664125  0.36390099  1
  O  O244  1  0.01117528  0.25016942  0.86687258  1
  O  O245  1  0.00795582  0.76397126  0.37035486  1
  O  O246  1  0.00497528  0.75570946  0.86413529  1
  O  O247  1  0.50871319  0.24188902  0.36450985  1
  O  O248  1  0.50336087  0.26665725  0.87088193  1
  O  O249  1  0.50448946  0.75191132  0.36632088  1
  O  O250  1  0.50537514  0.75212748  0.86947798  1
  O  O251  1  0.24058945  0.13433580  0.51134737  1
  O  O252  1  0.23972800  0.11656012  0.98816355  1
  O  O253  1  0.25226598  0.62680572  0.48542492  1
  O  O254  1  0.25792940  0.62655813  0.98560807  1
  O  O255  1  0.74591371  0.12875657  0.49416564  1
  O  O256  1  0.73717229  0.13294218  1.00191876  1
  O  O257  1  0.75121689  0.63105324  0.49829510  1
  O  O258  1  0.74476901  0.62517927  0.99259418  1
  O  O259  1  0.24531183  0.37807909  0.02317027  1
  O  O260  1  0.26263126  0.36227705  0.51751230  1
  O  O261  1  0.26009117  0.87794128  0.00578513  1
  O  O262  1  0.25685775  0.87417876  0.50510653  1
  O  O263  1  0.76017816  0.36574840  0.00346129  1
  O  O264  1  0.75704770  0.36726927  0.50874358  1
  O  O265  1  0.75569904  0.87974766  0.00668427  1
  O  O266  1  0.76055271  0.86729421  0.49969341  1
  O  O267  1  0.14389531  0.52059086  0.23393574  1
  O  O268  1  0.13826818  0.49853003  0.74618248  1
  O  O269  1  0.13942874  1.00606757  0.25186710  1
  O  O270  1  0.12147722  0.98803571  0.74300172  1
  O  O271  1  0.61642172  0.48393553  0.24377379  1
  O  O272  1  0.63427470  0.48976399  0.73989725  1
  O  O273  1  0.63166654  0.99774508  0.24558571  1
  O  O274  1  0.60811384  0.98025359  0.73267466  1
  O  O275  1  0.36885294  -0.00284662  0.26428080  1
  O  O276  1  0.37660180  0.00665172  0.75548035  1
  O  O277  1  0.36829763  0.50312374  0.26032499  1
  O  O278  1  0.36496700  0.50652120  0.75301080  1
  O  O279  1  0.85979558  0.01120152  0.24885329  1
  O  O280  1  0.87882239  0.01599897  0.74539326  1
  O  O281  1  0.87508647  0.51912448  0.24649881  1
  O  O282  1  0.86442149  0.49189358  0.75279260  1
  O  O283  1  0.14488848  0.35257825  0.37073612  1
  O  O284  1  0.12466060  0.36544083  0.87302212  1
  O  O285  1  0.10908278  0.87217763  0.37411246  1
  O  O286  1  0.11529949  0.87141515  0.86580106  1
  O  O287  1  0.62637564  0.36106389  0.37244478  1
  O  O288  1  0.61420145  0.38390263  0.86752236  1
  O  O289  1  0.62302980  0.86348918  0.36802646  1
  O  O290  1  0.61711776  0.86463476  0.86739483  1
  O  O291  1  0.38594342  0.12111522  0.11932575  1
  O  O292  1  0.38027787  0.12598358  0.63490723  1
  O  O293  1  0.38460853  0.63289932  0.12549041  1
  O  O294  1  0.38078440  0.62769820  0.62835060  1
  O  O295  1  0.88033073  0.12049019  0.13340531  1
  O  O296  1  0.88223942  0.13708433  0.62780907  1
  O  O297  1  0.88201599  0.62791067  0.13158140  1
  O  O298  1  0.89368143  0.61663736  0.62764027  1
  O  O299  1  0.25005904  0.25883284  0.13350261  1
  O  O300  1  0.25585072  0.25529039  0.62445863  1
  O  O301  1  0.25563419  0.75816284  0.12628567  1
  O  O302  1  0.25481014  0.75398683  0.62355259  1
  O  O303  1  0.74339046  0.25148182  0.10705761  1
  O  O304  1  0.75952976  0.25339090  0.61905864  1
  O  O305  1  0.73607675  0.76772687  0.12165176  1
  O  O306  1  0.74521701  0.75005042  0.61190068  1
  O  O307  1  0.25053496  0.24491037  0.38892967  1
  O  O308  1  0.23284738  0.23597107  0.86527418  1
  O  O309  1  0.23899031  0.74437105  0.37347955  1
  O  O310  1  0.24224738  0.74079297  0.87413719  1
  O  O311  1  0.74089293  0.24110301  0.38047489  1
  O  O312  1  0.74669898  0.25449361  0.89628850  1
  O  O313  1  0.74357998  0.74651810  0.38529167  1
  O  O314  1  0.74116484  0.74178640  0.87584742  1
  O  O315  1  0.00127544  0.12004429  0.00436680  1
  O  O316  1  0.00562325  0.11952925  0.50346273  1
  O  O317  1  -0.00359989  0.61774136  0.00817886  1
  O  O318  1  -0.00086013  0.63358933  0.51361851  1
  O  O319  1  0.50823497  0.12496586  0.01145029  1
  O  O320  1  0.50728129  0.11857066  0.50642177  1
  O  O321  1  0.50481804  0.63062977  0.01274399  1
  O  O322  1  0.50154029  0.62179277  0.51225117  1
  O  O323  1  0.48491957  0.37220264  0.50872783  1
  O  O324  1  0.49818808  0.37008029  0.98790808  1
  O  O325  1  0.49067416  0.88070830  0.49864038  1
  O  O326  1  0.48841352  0.87923332  0.99827758  1
  O  O327  1  0.98728169  0.37139259  0.50160841  1
  O  O328  1  0.99882811  0.38801389  1.00527149  1
  O  O329  1  0.99568381  0.88389222  0.49289890  1
  O  O330  1  0.99236113  0.88334040  0.99103345  1
  O  O331  1  0.48461187  0.50624185  0.37809645  1
  O  O332  1  0.49531154  0.49332358  0.86953793  1
  O  O333  1  0.48894966  0.99809572  0.37769179  1
  O  O334  1  0.49701097  0.99087506  0.88423758  1
  O  O335  1  1.05275709  0.47130283  0.34534889  1
  O  O336  1  0.99963581  0.50194696  0.88774268  1
  O  O337  1  1.00462517  0.99195390  0.38141740  1
  O  O338  1  1.00302570  0.99096785  0.88102521  1
  O  O339  1  0.00059124  0.01007874  0.11596145  1
  O  O340  1  0.00694986  0.00593058  0.61476459  1
  O  O341  1  0.00378925  0.51506832  0.11252263  1
  O  O342  1  0.01563159  0.51193890  0.63165213  1
  O  O343  1  0.50473432  0.00680320  0.12387775  1
  O  O344  1  0.50714101  0.00301378  0.61489078  1
  O  O345  1  0.50512606  0.50994848  0.13187800  1
  O  O346  1  0.50739882  0.50547156  0.62731204  1
  O  O347  1  0.24705173  0.39439422  0.24300395  1
  O  O348  1  0.25245725  0.38201278  0.73957902  1
  O  O349  1  0.25568321  0.88392768  0.24140223  1
  O  O350  1  0.24028978  0.87543577  0.74367718  1
  O  O351  1  0.73851230  0.37249598  0.24806079  1
  O  O352  1  0.74646480  0.37986773  0.74657281  1
  O  O353  1  0.74762199  0.88259926  0.24557899  1
  O  O354  1  0.74340214  0.87745577  0.74861513  1
  O  O355  1  0.25381986  0.11261848  0.24654698  1
  O  O356  1  0.25777868  0.11830070  0.76099300  1
  O  O357  1  0.25648419  0.62173529  0.25814911  1
  O  O358  1  0.25621559  0.61780015  0.75902257  1
  O  O359  1  0.75242960  0.12120636  0.25554387  1
  O  O360  1  0.76808381  0.12342331  0.74562550  1
  O  O361  1  0.76274767  0.62887633  0.24891541  1
  O  O362  1  0.74434380  0.61365430  0.75940281  1
  O  O363  1  0.37452973  0.10962965  0.38387532  1
  O  O364  1  0.36950072  0.11628124  0.87146556  1
  O  O365  1  0.36576477  0.61716062  0.37456616  1
  O  O366  1  0.37247514  0.61679680  0.86886856  1
  O  O367  1  0.86071141  0.12826819  0.36984921  1
  O  O368  1  0.87973309  0.12838059  0.86063796  1
  O  O369  1  0.88600450  0.62881857  0.35295765  1
  O  O370  1  0.86273456  0.62594635  0.87742987  1
  O  O371  1  0.13732448  0.37236363  0.14185636  1
  O  O372  1  0.13314823  0.38501165  0.62876189  1
  O  O373  1  0.13854221  0.87999598  0.11680492  1
  O  O374  1  0.12685198  0.87708520  0.63058706  1
  O  O375  1  0.62320349  0.37966712  0.13510107  1
  O  O376  1  0.63237561  0.37951710  0.63193803  1
  O  O377  1  0.62828656  0.88955326  0.12994159  1
  O  O378  1  0.62847543  0.87778432  0.63019730  1
  O  O379  1  0.11082920  0.23683139  0.25985993  1
  O  O380  1  0.11604271  0.24940165  0.75536986  1
  O  O381  1  0.11921263  0.75734158  0.26375165  1
  O  O382  1  0.11858644  0.76061691  0.75703340  1
  O  O383  1  0.61914267  0.25792062  0.25778145  1
  O  O384  1  0.63061541  0.26192525  0.74479642  1
  O  O385  1  0.62005568  0.75467429  0.25578724  1
  O  O386  1  0.62163810  0.75816383  0.75562983  1
  O  O387  1  0.38462489  0.25653021  0.26508435  1
  O  O388  1  0.37730969  0.23268291  0.75219052  1
  O  O389  1  0.38486646  0.75070311  0.24469986  1
  O  O390  1  0.37994333  0.74367476  0.74294114  1
  O  O391  1  0.87959326  0.23702834  0.25410779  1
  O  O392  1  0.88082158  0.24359197  0.74438006  1
  O  O393  1  0.87895116  0.74185098  0.24638371  1
  O  O394  1  0.88981401  0.75368066  0.74938296  1
  O  O395  1  0.37559191  0.49020510  0.49522351  1
  O  O396  1  0.37367034  0.48968798  0.98458407  1
  O  O397  1  0.37666941  0.99226608  0.49107100  1
  O  O398  1  0.37990879  0.99307515  0.99596404  1
  O  O399  1  0.87257491  0.48410146  0.50102171  1
  O  O400  1  0.88232331  0.49332401  0.99914894  1
  O  O401  1  0.88633012  0.99902985  0.50107461  1
  O  O402  1  0.88397297  0.99426240  0.99954299  1
  O  O403  1  0.11107720  0.01046840  -0.00122644  1
  O  O404  1  0.11934689  0.00697611  0.50244374  1
  O  O405  1  0.11398879  0.50122639  -0.00311074  1
  O  O406  1  0.13415485  0.49932265  0.51673110  1
  O  O407  1  0.61760683  0.01194596  0.01063951  1
  O  O408  1  0.62088715  0.00123788  0.50475368  1
  O  O409  1  0.62681857  0.49374399  0.01448655  1
  O  O410  1  0.62284759  0.49636312  0.51453124  1
  O  O411  1  0.35677816  0.37699952  0.12872935  1
  O  O412  1  0.36988474  0.36704832  0.62538547  1
  O  O413  1  0.36800390  0.87089807  0.11860588  1
  O  O414  1  0.37030677  0.87104301  0.61550609  1
  O  O415  1  0.87348946  0.37793380  0.11310051  1
  O  O416  1  0.87273808  0.36422007  0.62257185  1
  O  O417  1  0.86272485  0.88314536  0.11444540  1
  O  O418  1  0.87699434  0.88006405  0.60799266  1
  O  O419  1  0.12364067  0.13192252  0.38958385  1
  O  O420  1  0.13087661  0.12659244  0.87928040  1
  O  O421  1  0.12841831  0.63961753  0.37048976  1
  O  O422  1  0.13558543  0.63466896  0.86791366  1
  O  O423  1  0.63289692  0.13283782  0.38052778  1
  O  O424  1  0.60777595  0.13859819  0.89319185  1
  O  O425  1  0.61723438  0.63911572  0.37764724  1
  O  O426  1  0.63023712  0.63207973  0.87560650  1
