# generated using pymatgen
data_V85Zn86O256
_symmetry_space_group_name_H-M   'P 1'
_cell_length_a   16.91358491
_cell_length_b   16.90846724
_cell_length_c   16.91719221
_cell_angle_alpha   89.94866602
_cell_angle_beta   89.94375076
_cell_angle_gamma   90.06143000
_symmetry_Int_Tables_number   1
_chemical_formula_structural   V85Zn86O256
_chemical_formula_sum   'V85 Zn86 O256'
_cell_volume   4838.01887612
_cell_formula_units_Z   1
loop_
 _symmetry_equiv_pos_site_id
 _symmetry_equiv_pos_as_xyz
  1  'x, y, z'
loop_
 _atom_site_type_symbol
 _atom_site_label
 _atom_site_symmetry_multiplicity
 _atom_site_fract_x
 _atom_site_fract_y
 _atom_site_fract_z
 _atom_site_occupancy
  V  V0  1  0.87910035  0.37407441  0.49145591  1
  V  V1  1  0.74849058  0.62809090  0.87323269  1
  V  V2  1  0.61688640  0.00594683  0.11181061  1
  V  V3  1  0.49906635  0.38154627  0.88000350  1
  V  V4  1  -0.00751060  0.62177941  0.62580216  1
  V  V5  1  0.12347478  0.87209814  0.75089090  1
  V  V6  1  0.24835226  -0.00307776  0.75054878  1
  V  V7  1  0.50540392  0.24371025  0.24592005  1
  V  V8  1  0.62256185  0.24577114  0.87567018  1
  V  V9  1  0.77009879  0.49907435  0.26087957  1
  V  V10  1  0.00398719  0.36941182  0.36474648  1
  V  V11  1  -0.00216837  0.87446025  0.87737121  1
  V  V12  1  0.37128100  0.61855382  0.74378372  1
  V  V13  1  0.00116022  0.12653930  0.62241402  1
  V  V14  1  0.87353514  0.74586217  0.13233259  1
  V  V15  1  0.25113220  0.00255477  0.25732660  1
  V  V16  1  -0.00824342  0.74508343  0.75122264  1
  V  V17  1  0.86997675  0.87350260  0.00437272  1
  V  V18  1  0.13071290  0.37807480  0.75164515  1
  V  V19  1  0.24833597  0.86605910  0.61916224  1
  V  V20  1  0.74009508  -0.00667698  0.24910746  1
  V  V21  1  0.75087595  0.50891705  0.74131191  1
  V  V22  1  0.75016593  0.12461938  0.87581326  1
  V  V23  1  0.24720707  0.74323645  0.00021170  1
  V  V24  1  0.51089710  0.87622975  0.37260460  1
  V  V25  1  0.12669057  0.49944838  0.12718749  1
  V  V26  1  0.62674667  0.25061755  0.37376030  1
  V  V27  1  0.12476128  0.00051400  0.62351700  1
  V  V28  1  0.62285124  0.37918264  0.74296306  1
  V  V29  1  0.24595626  0.37377645  0.13211081  1
  V  V30  1  0.74888003  0.38359664  0.62252487  1
  V  V31  1  0.75381152  0.87844265  0.62646572  1
  V  V32  1  0.74955333  0.25130575  0.49918673  1
  V  V33  1  0.62743380  0.38694119  0.24894622  1
  V  V34  1  0.37194655  0.24786360  0.62187579  1
  V  V35  1  0.87500319  -0.00934200  0.37683176  1
  V  V36  1  0.37884870  0.24510150  0.12314722  1
  V  V37  1  0.37130579  0.37213218  0.49877793  1
  V  V38  1  0.88115117  0.24806593  0.12424155  1
  V  V39  1  0.24980878  0.64060286  0.37739389  1
  V  V40  1  0.50443586  0.60793107  0.11733490  1
  V  V41  1  0.37502588  0.50339783  0.37502006  1
  V  V42  1  0.48795468  0.00784584  -0.00280041  1
  V  V43  1  0.24768223  0.12395918  0.87564169  1
  V  V44  1  0.37369685  0.12571188  0.25701010  1
  V  V45  1  0.12532142  0.86943728  0.25816087  1
  V  V46  1  0.87623971  0.50422029  0.86665068  1
  V  V47  1  0.37357597  0.87216831  0.49481765  1
  V  V48  1  0.37186657  0.50338718  0.88201065  1
  V  V49  1  0.14013176  0.12945234  0.49508927  1
  V  V50  1  0.88361213  0.12324694  0.24619274  1
  V  V51  1  0.13997349  0.25176932  0.37093326  1
  V  V52  1  0.62300340  0.63061522  0.51485755  1
  V  V53  1  0.50441641  0.50469513  0.51483350  1
  V  V54  1  0.37637937  0.62622996  0.24655631  1
  V  V55  1  0.12391860  0.25083755  0.87565537  1
  V  V56  1  0.87526096  0.37952989  0.00383989  1
  V  V57  1  0.51123187  0.75433626  0.24540905  1
  V  V58  1  0.00581636  0.62747494  0.12652140  1
  V  V59  1  0.00120596  0.25081146  0.74971867  1
  V  V60  1  0.12061769  0.12457492  0.00361274  1
  V  V61  1  -0.00393153  -0.00245318  0.49922504  1
  V  V62  1  0.87556469  0.75430980  0.61567492  1
  V  V63  1  0.12025832  0.00308637  0.12910465  1
  V  V64  1  0.75256914  0.12494183  0.37522471  1
  V  V65  1  0.37617597  0.74584320  0.62122019  1
  V  V66  1  0.12958744  0.50268690  0.62645398  1
  V  V67  1  0.25316442  0.87611937  0.12007242  1
  V  V68  1  -0.00399661  0.00426101  0.00610413  1
  V  V69  1  0.38117282  0.75526894  0.11640815  1
  V  V70  1  0.50464786  0.75181962  0.74582225  1
  V  V71  1  0.37556500  0.12346210  0.75160928  1
  V  V72  1  0.74484471  0.24621703  0.00718846  1
  V  V73  1  0.87350142  0.24938623  0.62647725  1
  V  V74  1  0.00181309  0.74515017  0.25806344  1
  V  V75  1  0.61837255  -0.00460694  0.63408998  1
  V  V76  1  0.62394917  0.75971910  0.87658027  1
  V  V77  1  0.25052437  0.37704573  0.62362181  1
  V  V78  1  0.00409593  0.49916122  0.48975700  1
  V  V79  1  0.69474121  0.43616039  0.08120841  1
  V  V80  1  0.25029596  0.25116933  0.00118289  1
  V  V81  1  0.50107081  0.37663800  0.37484120  1
  V  V82  1  0.00668759  0.50770177  -0.00310263  1
  V  V83  1  0.12223711  0.74107769  0.88151844  1
  V  V84  1  0.13035467  0.63854698  0.49698574  1
  Zn  Zn85  1  0.49811318  0.25097778  0.75002084  1
  Zn  Zn86  1  0.50022886  0.00145696  0.49979021  1
  Zn  Zn87  1  0.00202782  0.86733691  0.38243866  1
  Zn  Zn88  1  0.50060124  0.12595891  0.62325008  1
  Zn  Zn89  1  0.74817335  -0.00547109  0.75617821  1
  Zn  Zn90  1  0.87269214  0.00012681  0.87540688  1
  Zn  Zn91  1  0.24452187  0.61868044  0.87437072  1
  Zn  Zn92  1  -0.00101986  0.37650641  0.87400617  1
  Zn  Zn93  1  0.75505917  0.62701547  0.37118584  1
  Zn  Zn94  1  0.37510157  0.00545676  0.37924240  1
  Zn  Zn95  1  0.24540372  0.49871964  0.25346056  1
  Zn  Zn96  1  0.48734752  0.87200339  0.88216913  1
  Zn  Zn97  1  0.36704040  -0.00976417  0.88137678  1
  Zn  Zn98  1  0.74555653  0.74757580  0.00483024  1
  Zn  Zn99  1  0.00875865  0.24740615  0.24387400  1
  Zn  Zn100  1  0.62878608  0.74639460  0.37400848  1
  Zn  Zn101  1  0.74119225  0.86816261  0.13223364  1
  Zn  Zn102  1  0.62169068  0.12363269  0.50267167  1
  Zn  Zn103  1  0.62329268  0.61730621  0.00011478  1
  Zn  Zn104  1  0.87449225  0.12209634  0.75157518  1
  Zn  Zn105  1  0.37868322  0.37900952  0.00430922  1
  Zn  Zn106  1  0.75310870  0.75471498  0.49531376  1
  Zn  Zn107  1  0.18945990  0.18455133  0.18916267  1
  Zn  Zn108  1  0.19050950  0.18979587  0.68484704  1
  Zn  Zn109  1  0.18761595  0.68634355  0.18710546  1
  Zn  Zn110  1  0.18708860  0.68645137  0.69060828  1
  Zn  Zn111  1  0.69146384  0.18515031  0.18843448  1
  Zn  Zn112  1  0.68557999  0.18635133  0.68958110  1
  Zn  Zn113  1  0.68815383  0.67610178  0.18740998  1
  Zn  Zn114  1  0.68532924  0.68852328  0.68181161  1
  Zn  Zn115  1  0.31517610  0.31313619  0.31056942  1
  Zn  Zn116  1  0.31212271  0.31386565  0.81185234  1
  Zn  Zn117  1  0.31892047  0.81450851  0.30533725  1
  Zn  Zn118  1  0.31310679  0.80919252  0.81177761  1
  Zn  Zn119  1  0.81232833  0.31641726  0.30609921  1
  Zn  Zn120  1  0.81063082  0.31397672  0.81296088  1
  Zn  Zn121  1  0.81333127  0.81000356  0.31420978  1
  Zn  Zn122  1  0.81162822  0.81368649  0.80919108  1
  Zn  Zn123  1  0.18875140  0.43856497  0.43680337  1
  Zn  Zn124  1  0.19086500  0.43768437  0.94129906  1
  Zn  Zn125  1  0.18775993  0.93661300  0.43893695  1
  Zn  Zn126  1  0.18601929  0.93290197  0.93929809  1
  Zn  Zn127  1  0.68443636  0.44130724  0.43919066  1
  Zn  Zn128  1  0.68918369  0.43588153  0.91814992  1
  Zn  Zn129  1  0.68683112  0.93813165  0.44564280  1
  Zn  Zn130  1  0.68462107  0.93750282  0.94157882  1
  Zn  Zn131  1  0.31017366  0.06609121  0.06884430  1
  Zn  Zn132  1  0.31437104  0.05636741  0.56485578  1
  Zn  Zn133  1  0.31329946  0.56430810  0.06187970  1
  Zn  Zn134  1  0.31151477  0.56180894  0.56025447  1
  Zn  Zn135  1  0.80876521  0.06443998  0.06457335  1
  Zn  Zn136  1  0.81032885  0.06103718  0.56255845  1
  Zn  Zn137  1  0.82027554  0.57115273  0.05777948  1
  Zn  Zn138  1  0.82757171  0.57403909  0.52716810  1
  Zn  Zn139  1  0.43463705  0.43223978  0.19054368  1
  Zn  Zn140  1  0.43488873  0.43726254  0.69228985  1
  Zn  Zn141  1  0.44139183  0.93858141  0.18505102  1
  Zn  Zn142  1  0.43555054  0.93165936  0.69206644  1
  Zn  Zn143  1  0.94024403  0.43563060  0.18339369  1
  Zn  Zn144  1  0.93918646  0.43632416  0.68378388  1
  Zn  Zn145  1  0.93606647  0.93361799  0.19085401  1
  Zn  Zn146  1  0.93415818  0.93820132  0.69020352  1
  Zn  Zn147  1  0.06421193  0.06431646  0.31633300  1
  Zn  Zn148  1  0.05915517  0.06178397  0.81382362  1
  Zn  Zn149  1  0.06578888  0.56453077  0.31132300  1
  Zn  Zn150  1  0.06238862  0.56255683  0.80812170  1
  Zn  Zn151  1  0.56185018  0.06359088  0.31496588  1
  Zn  Zn152  1  0.55981982  0.06173760  0.81531278  1
  Zn  Zn153  1  0.56358490  0.56866359  0.31778612  1
  Zn  Zn154  1  0.56029190  0.56588659  0.80669820  1
  Zn  Zn155  1  0.43924443  0.18790678  0.43788880  1
  Zn  Zn156  1  0.43929780  0.18324413  0.93724737  1
  Zn  Zn157  1  0.44228054  0.68877321  0.43655217  1
  Zn  Zn158  1  0.43879085  0.68599542  0.93728701  1
  Zn  Zn159  1  0.94146052  0.18569203  0.43500887  1
  Zn  Zn160  1  0.93511567  0.18831976  0.93838173  1
  Zn  Zn161  1  0.93578365  0.68224805  0.43441806  1
  Zn  Zn162  1  0.93197295  0.68617168  0.93960584  1
  Zn  Zn163  1  0.06123748  0.31781264  0.06127832  1
  Zn  Zn164  1  0.06585504  0.31071427  0.55806482  1
  Zn  Zn165  1  0.06250762  0.81571850  0.06623616  1
  Zn  Zn166  1  0.06019535  0.81282511  0.56347736  1
  Zn  Zn167  1  0.55772366  0.30613518  0.05850763  1
  Zn  Zn168  1  0.55983451  0.31222171  0.56232249  1
  Zn  Zn169  1  0.56468881  0.82116095  0.06000595  1
  Zn  Zn170  1  0.56171074  0.81698840  0.56455509  1
  O  O171  1  0.12846044  0.11147247  0.12051463  1
  O  O172  1  0.12222627  0.12310961  0.61465472  1
  O  O173  1  0.11437505  0.61959501  0.12308753  1
  O  O174  1  0.12145250  0.61806359  0.61967573  1
  O  O175  1  0.63017530  0.10412669  0.13714374  1
  O  O176  1  0.62405907  0.11375771  0.62502190  1
  O  O177  1  0.60851786  0.62232391  0.12253388  1
  O  O178  1  0.61400480  0.62561344  0.61467588  1
  O  O179  1  0.37914033  0.38168097  0.38198894  1
  O  O180  1  0.38089493  0.38665490  0.87191936  1
  O  O181  1  0.37932956  0.87123617  0.38639881  1
  O  O182  1  0.37148696  0.87709354  0.87589339  1
  O  O183  1  0.88584503  0.36533217  0.38355216  1
  O  O184  1  0.87304782  0.38363437  0.88576483  1
  O  O185  1  0.87966164  0.88772133  0.37252609  1
  O  O186  1  0.88047712  0.87308863  0.88572143  1
  O  O187  1  0.25435675  -0.00737169  0.36103621  1
  O  O188  1  0.24435932  0.00613123  0.86957188  1
  O  O189  1  0.26328489  0.50426827  0.37438174  1
  O  O190  1  0.26513463  0.49966786  0.87613590  1
  O  O191  1  0.75538485  0.00552469  0.37065884  1
  O  O192  1  0.74777185  0.01096629  0.87718495  1
  O  O193  1  0.75160996  0.49230816  0.36222020  1
  O  O194  1  0.75790942  0.50702444  0.86216089  1
  O  O195  1  0.24389553  0.49336039  0.12249875  1
  O  O196  1  0.24380398  0.48829310  0.62250143  1
  O  O197  1  0.24319864  0.99255621  0.13290151  1
  O  O198  1  0.24298818  0.98854351  0.63066799  1
  O  O199  1  0.75680518  0.50095671  0.13172317  1
  O  O200  1  0.76097686  0.48746504  0.62717802  1
  O  O201  1  0.74586461  0.99935625  0.13883790  1
  O  O202  1  0.74384376  0.99247152  0.62784637  1
  O  O203  1  -0.00191519  0.37184778  0.26132811  1
  O  O204  1  0.01266231  0.36921187  0.74885423  1
  O  O205  1  0.00914259  0.86559278  0.25211386  1
  O  O206  1  0.00483729  0.86739792  0.75583134  1
  O  O207  1  0.50673784  0.36536799  0.25499866  1
  O  O208  1  0.50759105  0.37447428  0.75676429  1
  O  O209  1  0.49239137  0.86523997  0.25898471  1
  O  O210  1  0.49358639  0.85600816  0.75726916  1
  O  O211  1  0.49546188  0.13787585  0.25400576  1
  O  O212  1  0.48525281  0.12634896  0.74858425  1
  O  O213  1  0.49195580  0.63082991  0.24135233  1
  O  O214  1  0.48321213  0.63725631  0.75442333  1
  O  O215  1  0.98752923  0.12588427  0.25414327  1
  O  O216  1  1.00036945  0.13334957  0.74151813  1
  O  O217  1  1.00430138  0.63340491  0.24196791  1
  O  O218  1  1.00375440  0.63238227  0.73775556  1
  O  O219  1  0.36948837  0.24857561  0.00729321  1
  O  O220  1  0.37984369  0.26234094  0.50661074  1
  O  O221  1  0.36810150  0.74603212  0.01054366  1
  O  O222  1  0.38223512  0.75272095  0.51410348  1
  O  O223  1  0.86735761  0.25983658  0.00382029  1
  O  O224  1  0.87178768  0.25602646  0.50606992  1
  O  O225  1  0.87429912  0.75751443  0.01195270  1
  O  O226  1  0.88107682  0.75408207  0.51296001  1
  O  O227  1  0.12502027  0.23664355  0.49152533  1
  O  O228  1  0.12777182  0.24543966  0.99572721  1
  O  O229  1  0.12141146  0.73772541  0.50317874  1
  O  O230  1  0.13031928  0.75541494  0.99222826  1
  O  O231  1  0.63267168  0.25085658  0.49290013  1
  O  O232  1  0.63488200  0.25612027  0.99077598  1
  O  O233  1  0.61694660  0.73839856  0.50032323  1
  O  O234  1  0.62613365  0.74620054  0.99066835  1
  O  O235  1  0.49164144  0.25265316  0.13320548  1
  O  O236  1  0.48561615  0.25127709  0.62885860  1
  O  O237  1  0.49481648  0.74979990  0.12792201  1
  O  O238  1  0.49243598  0.75472426  0.63758756  1
  O  O239  1  0.98754606  0.25445860  0.12448868  1
  O  O240  1  0.99374429  0.24695864  0.62789600  1
  O  O241  1  0.99651520  0.74406422  0.13198327  1
  O  O242  1  0.99508245  0.74386335  0.63207923  1
  O  O243  1  0.01076380  0.25569162  0.37270002  1
  O  O244  1  0.00597373  0.25320720  0.86959609  1
  O  O245  1  -0.00466422  0.74877053  0.36367889  1
  O  O246  1  0.00237198  0.75195528  0.87019245  1
  O  O247  1  0.50694951  0.25766741  0.36772105  1
  O  O248  1  0.50640665  0.25663733  0.87183259  1
  O  O249  1  0.50042080  0.75662984  0.36270596  1
  O  O250  1  0.50730267  0.74908333  0.86841730  1
  O  O251  1  0.23852775  0.11983896  0.50342889  1
  O  O252  1  0.24151762  0.13094892  0.99646249  1
  O  O253  1  0.24305785  0.62238135  0.49067637  1
  O  O254  1  0.25032958  0.63878397  0.99868398  1
  O  O255  1  0.75119616  0.13147263  0.48809598  1
  O  O256  1  0.75365072  0.13629159  0.98981890  1
  O  O257  1  0.72919807  0.63122744  0.51291306  1
  O  O258  1  0.74681732  0.62713236  0.98862563  1
  O  O259  1  0.25456379  0.36644732  0.00967133  1
  O  O260  1  0.26320136  0.38110857  0.50685380  1
  O  O261  1  0.24345165  0.86617476  0.01451136  1
  O  O262  1  0.25672204  0.87614823  0.50862677  1
  O  O263  1  0.75188354  0.37634081  0.00811656  1
  O  O264  1  0.75831322  0.37229529  0.50404825  1
  O  O265  1  0.76104745  0.87271024  0.00368861  1
  O  O266  1  0.74550321  0.87092449  0.51833192  1
  O  O267  1  0.12723236  0.50405523  0.23361373  1
  O  O268  1  0.12163724  0.49283775  0.73623600  1
  O  O269  1  0.13094433  0.99663409  0.24582787  1
  O  O270  1  0.12744175  0.99404870  0.74314204  1
  O  O271  1  0.62135541  0.48836411  0.25246936  1
  O  O272  1  0.63514089  0.48891855  0.75301624  1
  O  O273  1  0.63918680  1.00086047  0.25455434  1
  O  O274  1  0.62744907  1.00485873  0.73853859  1
  O  O275  1  0.36895125  0.00932712  0.24761424  1
  O  O276  1  0.36498936  0.00777364  0.74779077  1
  O  O277  1  0.37472113  0.50842472  0.25770875  1
  O  O278  1  0.37634433  0.51336881  0.75636177  1
  O  O279  1  0.86837841  0.00658912  0.25652267  1
  O  O280  1  0.87010828  0.00382015  0.75626782  1
  O  O281  1  0.86887614  0.49334287  0.25234227  1
  O  O282  1  0.86869897  0.49187376  0.75890766  1
  O  O283  1  0.12032647  0.35986249  0.38276270  1
  O  O284  1  0.12533950  0.37201622  0.86665819  1
  O  O285  1  0.12405380  0.87849888  0.36210028  1
  O  O286  1  0.11673587  0.86459992  0.87097936  1
  O  O287  1  0.62182243  0.36984187  0.36753223  1
  O  O288  1  0.61742257  0.36724638  0.86508346  1
  O  O289  1  0.61390021  0.87192942  0.38104792  1
  O  O290  1  0.62657702  0.86202567  0.87500613  1
  O  O291  1  0.36977253  0.13901776  0.13702859  1
  O  O292  1  0.37152981  0.13293713  0.63167499  1
  O  O293  1  0.38403249  0.63090334  0.12997955  1
  O  O294  1  0.36972260  0.62957635  0.63462984  1
  O  O295  1  0.87101810  0.13385131  0.13375752  1
  O  O296  1  0.87862748  0.13694319  0.62452934  1
  O  O297  1  0.89051771  0.63464360  0.12181833  1
  O  O298  1  0.88817025  0.63075957  0.61661730  1
  O  O299  1  0.25422524  0.25579447  0.12103800  1
  O  O300  1  0.26056111  0.26262831  0.62555381  1
  O  O301  1  0.25621351  0.75577861  0.11958490  1
  O  O302  1  0.25706147  0.75950037  0.63024275  1
  O  O303  1  0.75861909  0.24662183  0.11387746  1
  O  O304  1  0.75734386  0.25741857  0.62057548  1
  O  O305  1  0.75809393  0.74778323  0.12760128  1
  O  O306  1  0.75926117  0.75841440  0.62576557  1
  O  O307  1  0.23924744  0.25532267  0.37491590  1
  O  O308  1  0.24392329  0.24553769  0.88101519  1
  O  O309  1  0.25712380  0.73955591  0.36903551  1
  O  O310  1  0.23876825  0.74955516  0.88385004  1
  O  O311  1  0.74762644  0.24420892  0.37664570  1
  O  O312  1  0.74326133  0.24877361  0.88482792  1
  O  O313  1  0.74754230  0.74676872  0.37858610  1
  O  O314  1  0.74309414  0.74211550  0.87131917  1
  O  O315  1  0.00337367  0.11202971  -0.00350645  1
  O  O316  1  0.00845786  0.11709362  0.50559263  1
  O  O317  1  -0.00373976  0.61382694  0.00516246  1
  O  O318  1  0.01144699  0.61470615  0.50524545  1
  O  O319  1  0.50303445  0.10961225  -0.00365360  1
  O  O320  1  0.50154249  0.12124727  0.50437046  1
  O  O321  1  0.50064109  0.62244358  0.01316243  1
  O  O322  1  0.50498728  0.61123765  0.49689804  1
  O  O323  1  0.49396818  0.38580496  0.49489642  1
  O  O324  1  0.49773912  0.37247831  0.98485347  1
  O  O325  1  0.49107045  0.87556173  0.49120913  1
  O  O326  1  0.50736128  0.89757685  0.99689370  1
  O  O327  1  0.99716316  0.37769373  0.49073670  1
  O  O328  1  0.99159428  0.38800190  0.99607317  1
  O  O329  1  1.00855340  0.89188254  0.49917700  1
  O  O330  1  0.99046912  0.88284837  0.99852307  1
  O  O331  1  0.48905171  0.49538318  0.37841522  1
  O  O332  1  0.48757679  0.49357483  0.86803878  1
  O  O333  1  0.49536431  0.99033647  0.37393004  1
  O  O334  1  0.49426233  0.99930509  0.88509121  1
  O  O335  1  1.01207452  0.48978650  0.38463464  1
  O  O336  1  0.99329618  0.50121184  0.87861874  1
  O  O337  1  0.99233083  1.00079320  0.38261953  1
  O  O338  1  0.99946851  0.99134501  0.88591417  1
  O  O339  1  0.00778347  -0.00610405  0.11881746  1
  O  O340  1  0.00516833  0.00597064  0.61970062  1
  O  O341  1  0.00594145  0.50629157  0.11743532  1
  O  O342  1  0.00814283  0.50581689  0.61810648  1
  O  O343  1  0.50861680  0.00205890  0.11547655  1
  O  O344  1  0.50928744  -0.00292802  0.62814508  1
  O  O345  1  0.49272226  0.50984422  0.12694243  1
  O  O346  1  0.49506279  0.49588685  0.61269663  1
  O  O347  1  0.25568972  0.37887107  0.23675469  1
  O  O348  1  0.23790027  0.37195184  0.74190689  1
  O  O349  1  0.24403581  0.87905036  0.24016635  1
  O  O350  1  0.24172217  0.87725076  0.74202613  1
  O  O351  1  0.74257315  0.38722630  0.24375566  1
  O  O352  1  0.74430537  0.38357851  0.74198244  1
  O  O353  1  0.75540997  0.89060632  0.25155124  1
  O  O354  1  0.74976673  0.87522545  0.73467193  1
  O  O355  1  0.25916659  0.11415127  0.24733641  1
  O  O356  1  0.25495931  0.11933881  0.75404067  1
  O  O357  1  0.26211350  0.62328278  0.25379505  1
  O  O358  1  0.26616152  0.63189765  0.75550383  1
  O  O359  1  0.75927374  0.11665643  0.26056017  1
  O  O360  1  0.75301444  0.12949574  0.76482871  1
  O  O361  1  0.74812892  0.60327002  0.25262057  1
  O  O362  1  0.74568876  0.61326921  0.75003236  1
  O  O363  1  0.37629186  0.12678854  0.36227367  1
  O  O364  1  0.36442704  0.12234998  0.86675347  1
  O  O365  1  0.37244578  0.62026135  0.36782297  1
  O  O366  1  0.37301479  0.61503864  0.86874857  1
  O  O367  1  0.86881695  0.11928855  0.36812146  1
  O  O368  1  0.86505133  0.12455506  0.87437538  1
  O  O369  1  0.85809850  0.60641260  0.41824368  1
  O  O370  1  0.86248320  0.61680862  0.87525764  1
  O  O371  1  0.13400828  0.38335923  0.12169632  1
  O  O372  1  0.13208584  0.37949735  0.62802233  1
  O  O373  1  0.13100526  0.88559886  0.13457163  1
  O  O374  1  0.13135168  0.87817526  0.62911305  1
  O  O375  1  0.62542004  0.37453720  0.13002890  1
  O  O376  1  0.63551510  0.37034881  0.63093724  1
  O  O377  1  0.62856584  0.89582008  0.12468055  1
  O  O378  1  0.63216297  0.88790695  0.62675781  1
  O  O379  1  0.12536408  0.24178533  0.26555809  1
  O  O380  1  0.12103205  0.25677163  0.75428426  1
  O  O381  1  0.11647014  0.75875705  0.24328761  1
  O  O382  1  0.11424066  0.75402279  0.75652245  1
  O  O383  1  0.62182146  0.25759148  0.25241755  1
  O  O384  1  0.62479754  0.26245433  0.75617549  1
  O  O385  1  0.61402961  0.74453195  0.24802782  1
  O  O386  1  0.60985033  0.73934214  0.75604732  1
  O  O387  1  0.38412273  0.24598820  0.24461258  1
  O  O388  1  0.37231943  0.24110802  0.74269370  1
  O  O389  1  0.38245575  0.74172315  0.23707751  1
  O  O390  1  0.38043376  0.74116180  0.74014653  1
  O  O391  1  0.87454106  0.24266618  0.23962867  1
  O  O392  1  0.88200295  0.25258851  0.74217015  1
  O  O393  1  0.88516475  0.75498104  0.23969876  1
  O  O394  1  0.88758374  0.75289140  0.74180293  1
  O  O395  1  0.38488732  0.49530098  0.49425091  1
  O  O396  1  0.37528913  0.49972050  0.98638503  1
  O  O397  1  0.37724146  0.98765244  0.49888091  1
  O  O398  1  0.38313535  1.00694866  1.00311381  1
  O  O399  1  0.89298493  0.47978516  0.51321692  1
  O  O400  1  0.88074722  0.49556067  0.98954271  1
  O  O401  1  0.88424942  1.00812631  0.49031455  1
  O  O402  1  0.88058440  0.99283923  1.00282811  1
  O  O403  1  0.11655172  0.00201121  0.00917255  1
  O  O404  1  0.12073496  0.01130814  0.50313593  1
  O  O405  1  0.11615682  0.49672918  0.00822133  1
  O  O406  1  0.11991983  0.50176678  0.51103895  1
  O  O407  1  0.62310138  0.00860894  0.00859094  1
  O  O408  1  0.62256531  0.00342520  0.51570039  1
  O  O409  1  0.64272732  0.49088128  0.01165057  1
  O  O410  1  0.61106398  0.50650708  0.49991458  1
  O  O411  1  0.36910473  0.36323757  0.12368301  1
  O  O412  1  0.36844520  0.37102281  0.62057176  1
  O  O413  1  0.36592680  0.86660542  0.13012347  1
  O  O414  1  0.36780720  0.86682851  0.61688031  1
  O  O415  1  0.87705528  0.36942094  0.11116140  1
  O  O416  1  0.87098429  0.36343729  0.61842451  1
  O  O417  1  0.87217078  0.86592306  0.11956620  1
  O  O418  1  0.86540594  0.86935414  0.62635427  1
  O  O419  1  0.12517969  0.13501711  0.38692526  1
  O  O420  1  0.12883705  0.13035661  0.88156753  1
  O  O421  1  0.13771937  0.61896497  0.38460027  1
  O  O422  1  0.12532658  0.63639285  0.87024748  1
  O  O423  1  0.63528531  0.13257926  0.37548309  1
  O  O424  1  0.62999453  0.13996046  0.86806051  1
  O  O425  1  0.62944742  0.62601841  0.38940534  1
  O  O426  1  0.63497785  0.62649136  0.87659677  1
