# generated using pymatgen
data_V85Zn86O256
_symmetry_space_group_name_H-M   'P 1'
_cell_length_a   16.93652614
_cell_length_b   16.94539561
_cell_length_c   16.93455822
_cell_angle_alpha   90.02083215
_cell_angle_beta   89.95524613
_cell_angle_gamma   90.07731161
_symmetry_Int_Tables_number   1
_chemical_formula_structural   V85Zn86O256
_chemical_formula_sum   'V85 Zn86 O256'
_cell_volume   4860.14654263
_cell_formula_units_Z   1
loop_
 _symmetry_equiv_pos_site_id
 _symmetry_equiv_pos_as_xyz
  1  'x, y, z'
loop_
 _atom_site_type_symbol
 _atom_site_label
 _atom_site_symmetry_multiplicity
 _atom_site_fract_x
 _atom_site_fract_y
 _atom_site_fract_z
 _atom_site_occupancy
  V  V0  1  0.36970717  0.75154274  0.12584856  1
  V  V1  1  0.62261184  0.74584637  0.37384543  1
  V  V2  1  -0.00383763  0.87219045  0.37309376  1
  V  V3  1  0.88738093  0.62870538  0.24934432  1
  V  V4  1  0.37614188  0.49229638  0.36788624  1
  V  V5  1  0.24579660  0.38242416  0.13577060  1
  V  V6  1  0.38233540  0.00586648  0.87772252  1
  V  V7  1  0.61414329  0.37308354  0.26645462  1
  V  V8  1  0.12282945  -0.00606398  0.11940291  1
  V  V9  1  0.62591465  0.62564795  0.00155649  1
  V  V10  1  0.12032990  0.24634284  0.86803417  1
  V  V11  1  0.24660342  0.24971033  -0.00423789  1
  V  V12  1  0.75290200  0.50061382  0.25392093  1
  V  V13  1  0.37120019  0.37698503  -0.00051305  1
  V  V14  1  0.87512666  0.25069582  0.12778840  1
  V  V15  1  0.49935760  0.49579759  0.50010307  1
  V  V16  1  0.62585344  0.37835662  0.74328317  1
  V  V17  1  0.37231224  0.25546819  0.62445183  1
  V  V18  1  0.61925475  0.75025443  0.87190536  1
  V  V19  1  0.24877203  0.25899721  0.50218537  1
  V  V20  1  0.37125181  0.12854923  0.75336601  1
  V  V21  1  0.01069047  0.25295158  0.25101793  1
  V  V22  1  0.61369776  0.12306302  0.00398918  1
  V  V23  1  0.87152084  0.76542630  0.62353327  1
  V  V24  1  0.74972029  0.76299591  0.50642165  1
  V  V25  1  0.00774323  0.38163435  0.37580181  1
  V  V26  1  0.11415470  0.62167659  0.49855790  1
  V  V27  1  0.62394196  0.61960127  0.50699476  1
  V  V28  1  0.37909781  0.87533642  0.49834817  1
  V  V29  1  0.37680434  0.74448068  0.63869221  1
  V  V30  1  0.49429156  0.23926991  0.25491952  1
  V  V31  1  0.88599092  0.74604742  0.12689869  1
  V  V32  1  0.87631304  0.12535392  0.25286562  1
  V  V33  1  0.00182918  0.88132223  0.88116801  1
  V  V34  1  0.37570562  0.50283169  0.86647146  1
  V  V35  1  0.87567836  0.00085127  0.37692073  1
  V  V36  1  0.60892155  0.00248033  0.12048326  1
  V  V37  1  0.62278042  0.87021120  0.24363723  1
  V  V38  1  0.75102982  0.25078715  0.00382520  1
  V  V39  1  0.00156987  0.12221608  0.11851718  1
  V  V40  1  0.12586006  0.87257602  0.75001250  1
  V  V41  1  -0.00139544  -0.00381100  0.50116568  1
  V  V42  1  0.88118250  0.50219118  0.88242432  1
  V  V43  1  0.74852046  0.50018023  0.74443226  1
  V  V44  1  0.37550788  0.87750727  0.00147961  1
  V  V45  1  0.25355794  0.62347039  0.86904493  1
  V  V46  1  0.25043353  0.74704086  0.49947163  1
  V  V47  1  -0.00066245  0.75057383  0.74758515  1
  V  V48  1  0.11329603  0.61366740  0.00092455  1
  V  V49  1  0.49648141  0.62129862  0.63679520  1
  V  V50  1  0.87842929  0.38076623  0.49997695  1
  V  V51  1  0.12843310  0.37265375  0.74661497  1
  V  V52  1  0.11329502  0.49775400  0.13379911  1
  V  V53  1  0.75082567  0.00137219  0.24395762  1
  V  V54  1  0.12445808  0.49392071  0.61957527  1
  V  V55  1  0.75565516  -0.00406788  0.74900072  1
  V  V56  1  0.50145109  0.37462184  0.87780473  1
  V  V57  1  0.49990649  0.24927750  0.74801421  1
  V  V58  1  0.00401577  0.13114036  0.63137182  1
  V  V59  1  0.00200586  0.37687953  0.87702814  1
  V  V60  1  0.62690829  0.25179649  0.87835712  1
  V  V61  1  0.75046483  0.62622884  0.37659476  1
  V  V62  1  0.25208608  0.87316986  0.62600813  1
  V  V63  1  0.74179485  0.24847299  0.49196337  1
  V  V64  1  0.24843689  0.74979019  0.00301287  1
  V  V65  1  0.25173988  0.00275556  0.75559607  1
  V  V66  1  0.12772102  0.12067011  -0.00534325  1
  V  V67  1  0.62652682  0.87605967  0.74601613  1
  V  V68  1  0.12947694  -0.00121506  0.62430321  1
  V  V69  1  0.87602692  0.62553401  0.74733579  1
  V  V70  1  0.25333974  0.12479772  0.37165858  1
  V  V71  1  0.12428922  0.87091600  0.24538991  1
  V  V72  1  0.49699366  0.62392453  0.12640079  1
  V  V73  1  0.25121303  0.62059217  0.36736137  1
  V  V74  1  0.12999741  0.12524009  0.49672420  1
  V  V75  1  0.12403967  0.74650688  0.87589004  1
  V  V76  1  0.74827712  0.36997819  0.12879569  1
  V  V77  1  0.24830454  -0.00447545  0.24553103  1
  V  V78  1  0.12139301  0.74918711  0.36912196  1
  V  V79  1  0.87748632  0.88251837  0.00297528  1
  V  V80  1  0.75372727  0.12460883  0.87719116  1
  V  V81  1  0.87900914  0.25417411  0.63126505  1
  V  V82  1  0.62525427  0.49954615  0.12640775  1
  V  V83  1  0.49831856  0.87504927  0.87213072  1
  V  V84  1  0.74931640  0.62519818  0.87510045  1
  Zn  Zn85  1  0.37505118  0.11710008  0.23468427  1
  Zn  Zn86  1  0.69421927  0.09603828  0.41973836  1
  Zn  Zn87  1  0.74978156  0.87210137  0.12101446  1
  Zn  Zn88  1  0.53531355  0.12856063  0.60191844  1
  Zn  Zn89  1  0.75124825  0.75266134  0.00171739  1
  Zn  Zn90  1  0.49742967  0.87316804  0.37356520  1
  Zn  Zn91  1  0.37491002  0.37702962  0.50289043  1
  Zn  Zn92  1  0.38021381  0.24683036  0.12100467  1
  Zn  Zn93  1  0.75136578  0.37752354  0.62367640  1
  Zn  Zn94  1  0.50006701  0.49749864  0.00094022  1
  Zn  Zn95  1  -0.00297892  0.62220897  0.62002231  1
  Zn  Zn96  1  0.88318150  0.12969517  0.75714879  1
  Zn  Zn97  1  0.88173721  0.38241788  0.00639146  1
  Zn  Zn98  1  0.36894603  0.62121821  0.24602118  1
  Zn  Zn99  1  0.12858002  0.25337668  0.37007697  1
  Zn  Zn100  1  0.88100890  0.50476680  0.38111585  1
  Zn  Zn101  1  0.49581422  0.74737810  0.25100494  1
  Zn  Zn102  1  0.88185194  0.00518515  0.88178114  1
  Zn  Zn103  1  0.37690072  -0.00334695  0.37235109  1
  Zn  Zn104  1  0.52507438  0.00162867  0.49397933  1
  Zn  Zn105  1  0.25430481  0.50012842  0.74009001  1
  Zn  Zn106  1  0.67639081  0.95394668  0.58543550  1
  Zn  Zn107  1  0.19477874  0.18570562  0.17988635  1
  Zn  Zn108  1  0.19223864  0.18651770  0.68629991  1
  Zn  Zn109  1  0.18200542  0.68246665  0.18483502  1
  Zn  Zn110  1  0.18678857  0.68290452  0.68533687  1
  Zn  Zn111  1  0.66878666  0.17081395  0.22319214  1
  Zn  Zn112  1  0.69693577  0.19223327  0.68787159  1
  Zn  Zn113  1  0.69464429  0.68797812  0.18533806  1
  Zn  Zn114  1  0.68531451  0.68938054  0.68753104  1
  Zn  Zn115  1  0.31501837  0.31046937  0.31268232  1
  Zn  Zn116  1  0.30739605  0.31461932  0.81386722  1
  Zn  Zn117  1  0.30891473  0.81028624  0.31052900  1
  Zn  Zn118  1  0.31123166  0.81269185  0.81574464  1
  Zn  Zn119  1  0.81578573  0.31384375  0.31520561  1
  Zn  Zn120  1  0.81523213  0.31433721  0.81367137  1
  Zn  Zn121  1  0.81128286  0.81275709  0.30997268  1
  Zn  Zn122  1  0.81158128  0.81254966  0.81668663  1
  Zn  Zn123  1  0.18737894  0.44031583  0.43491603  1
  Zn  Zn124  1  0.18783899  0.43753180  0.93528487  1
  Zn  Zn125  1  0.19004406  0.93617872  0.43573458  1
  Zn  Zn126  1  0.19130076  0.93509617  0.93817799  1
  Zn  Zn127  1  0.69113461  0.43806615  0.44175143  1
  Zn  Zn128  1  0.69154821  0.43896776  0.93804750  1
  Zn  Zn129  1  0.69253024  0.92847779  0.42088080  1
  Zn  Zn130  1  0.68894133  0.93894055  0.93670317  1
  Zn  Zn131  1  0.30812399  0.06124113  0.06072431  1
  Zn  Zn132  1  0.38895301  0.06258773  0.56212997  1
  Zn  Zn133  1  0.30799165  0.56087941  0.05799385  1
  Zn  Zn134  1  0.31105088  0.56246913  0.55889620  1
  Zn  Zn135  1  0.81042812  0.06295693  0.06343851  1
  Zn  Zn136  1  0.82007771  0.06791321  0.56438006  1
  Zn  Zn137  1  0.81271256  0.56464513  0.06619484  1
  Zn  Zn138  1  0.81214656  0.56553809  0.56357287  1
  Zn  Zn139  1  0.43520412  0.43518775  0.18549220  1
  Zn  Zn140  1  0.44011989  0.43751935  0.68624971  1
  Zn  Zn141  1  0.43495374  0.93298537  0.18727860  1
  Zn  Zn142  1  0.44440842  0.93798453  0.68587335  1
  Zn  Zn143  1  0.93782685  0.43748016  0.19326628  1
  Zn  Zn144  1  0.94511929  0.43820158  0.69070986  1
  Zn  Zn145  1  0.94154478  0.93511981  0.18670492  1
  Zn  Zn146  1  0.93883142  0.94238880  0.69209883  1
  Zn  Zn147  1  0.06337570  0.06215178  0.31011076  1
  Zn  Zn148  1  0.06563017  0.06106463  0.81256316  1
  Zn  Zn149  1  0.06481263  0.56094341  0.31117715  1
  Zn  Zn150  1  0.06355535  0.55958417  0.80861958  1
  Zn  Zn151  1  0.55580010  0.05823523  0.31206090  1
  Zn  Zn152  1  0.57964153  0.07909209  0.77956783  1
  Zn  Zn153  1  0.56008272  0.55972360  0.31277022  1
  Zn  Zn154  1  0.56288377  0.55967301  0.81444125  1
  Zn  Zn155  1  0.43794262  0.19217114  0.43134938  1
  Zn  Zn156  1  0.43393548  0.18820149  0.93546422  1
  Zn  Zn157  1  0.43673594  0.68351557  0.44107144  1
  Zn  Zn158  1  0.43849989  0.68776043  0.93751662  1
  Zn  Zn159  1  0.93753321  0.19089490  0.44103027  1
  Zn  Zn160  1  0.94058772  0.19391969  0.94076618  1
  Zn  Zn161  1  0.93296781  0.69260803  0.43755389  1
  Zn  Zn162  1  0.93690632  0.69261104  0.93751273  1
  Zn  Zn163  1  0.06355317  0.31437519  0.06079847  1
  Zn  Zn164  1  0.06291176  0.31334808  0.55921494  1
  Zn  Zn165  1  0.06173481  0.80819694  0.06205341  1
  Zn  Zn166  1  0.06051703  0.81111065  0.56024536  1
  Zn  Zn167  1  0.56237202  0.31001844  0.06841514  1
  Zn  Zn168  1  0.56227151  0.31296575  0.56294899  1
  Zn  Zn169  1  0.55727505  0.81223285  0.05873814  1
  Zn  Zn170  1  0.55746618  0.80471802  0.56339303  1
  O  O171  1  0.11954152  0.11692922  0.11661123  1
  O  O172  1  0.12244439  0.11908745  0.61685661  1
  O  O173  1  0.12844121  0.61112773  0.11125339  1
  O  O174  1  0.12096531  0.61983316  0.61396923  1
  O  O175  1  0.62971490  0.10937336  0.12110102  1
  O  O176  1  0.61768399  0.11674986  0.67284697  1
  O  O177  1  0.62004095  0.62100453  0.11905865  1
  O  O178  1  0.61173078  0.63207697  0.61709437  1
  O  O179  1  0.36969193  0.38991228  0.37826520  1
  O  O180  1  0.38069925  0.38094710  0.88088066  1
  O  O181  1  0.37608866  0.86908059  0.38331410  1
  O  O182  1  0.38132899  0.87830191  0.88024432  1
  O  O183  1  0.88526779  0.37779890  0.38326977  1
  O  O184  1  0.88356817  0.38531980  0.87479701  1
  O  O185  1  0.88371668  0.88718690  0.36708438  1
  O  O186  1  0.88524394  0.87278588  0.88581268  1
  O  O187  1  0.24603137  0.00582524  0.36158869  1
  O  O188  1  0.26018800  -0.01193434  0.86099592  1
  O  O189  1  0.26319449  0.50889068  0.38152538  1
  O  O190  1  0.25868776  0.50763192  0.87473115  1
  O  O191  1  0.76039222  0.00134955  0.36105295  1
  O  O192  1  0.75531048  0.00968562  0.87117465  1
  O  O193  1  0.75338778  0.50444471  0.36565641  1
  O  O194  1  0.75836458  0.50691378  0.86671364  1
  O  O195  1  0.24261034  0.48737486  0.11975245  1
  O  O196  1  0.23308549  0.50897254  0.62471249  1
  O  O197  1  0.23528417  1.00034649  0.13613505  1
  O  O198  1  0.24457656  0.98902003  0.63917890  1
  O  O199  1  0.74696952  0.49455553  0.13703454  1
  O  O200  1  0.75431066  0.49948178  0.64036248  1
  O  O201  1  0.74943168  0.99389324  0.13524270  1
  O  O202  1  0.75990269  1.00565768  0.64223931  1
  O  O203  1  -0.00642020  0.36449624  0.26430909  1
  O  O204  1  0.01469687  0.37863230  0.76254493  1
  O  O205  1  0.01240134  0.87962141  0.26146948  1
  O  O206  1  0.00720453  0.86932620  0.75649237  1
  O  O207  1  0.51341847  0.38496586  0.25333470  1
  O  O208  1  0.50800177  0.37106361  0.75708066  1
  O  O209  1  0.51183960  0.86875713  0.24826619  1
  O  O210  1  0.50915918  0.87921940  0.76273546  1
  O  O211  1  0.49357925  0.13525148  0.24831255  1
  O  O212  1  0.48080063  0.13665954  0.76486505  1
  O  O213  1  0.50008025  0.62604379  0.23582734  1
  O  O214  1  0.50442506  0.61905060  0.73592673  1
  O  O215  1  0.99368197  0.12969888  0.23961958  1
  O  O216  1  1.00324911  0.11922226  0.73535366  1
  O  O217  1  0.98654108  0.62511750  0.25801581  1
  O  O218  1  0.99154821  0.63308671  0.75071365  1
  O  O219  1  0.36528077  0.26133662  -0.00372304  1
  O  O220  1  0.36674015  0.25311130  0.50695972  1
  O  O221  1  0.36749042  0.75478167  0.00484433  1
  O  O222  1  0.36597595  0.75552352  0.50539944  1
  O  O223  1  0.86833287  0.25401067  0.01101210  1
  O  O224  1  0.87124807  0.26110290  0.50969219  1
  O  O225  1  0.87459928  0.75541369  0.01163766  1
  O  O226  1  0.86227692  0.74757079  0.51056339  1
  O  O227  1  0.13149572  0.24160730  0.49775332  1
  O  O228  1  0.12853563  0.24218980  0.99255489  1
  O  O229  1  0.13019286  0.74348808  0.49042573  1
  O  O230  1  0.13190760  0.73986241  0.99768791  1
  O  O231  1  0.64139703  0.25158399  0.50736068  1
  O  O232  1  0.63231405  0.24415181  0.99927727  1
  O  O233  1  0.62965112  0.74066232  0.49292396  1
  O  O234  1  0.62549634  0.74250247  0.99177092  1
  O  O235  1  0.49459731  0.26533300  0.14597715  1
  O  O236  1  0.49411158  0.24517688  0.63165320  1
  O  O237  1  0.48773878  0.74117201  0.12302579  1
  O  O238  1  0.48814801  0.73434597  0.62207577  1
  O  O239  1  0.99513066  0.24606794  0.13154877  1
  O  O240  1  0.99475728  0.24086547  0.61832604  1
  O  O241  1  0.98576670  0.74950703  0.12623930  1
  O  O242  1  0.99168202  0.74713038  0.62982790  1
  O  O243  1  0.00273841  0.25618269  0.36702580  1
  O  O244  1  0.01222135  0.25738097  0.87450017  1
  O  O245  1  0.00606144  0.76362560  0.38230519  1
  O  O246  1  0.00597416  0.75784749  0.86752973  1
  O  O247  1  0.49428080  0.25648887  0.35593129  1
  O  O248  1  0.50432994  0.25922110  0.87000335  1
  O  O249  1  0.51225245  0.74572452  0.37361952  1
  O  O250  1  0.50842389  0.75726160  0.87659870  1
  O  O251  1  0.23747071  0.13178822  0.48989655  1
  O  O252  1  0.23501976  0.13470717  1.00117208  1
  O  O253  1  0.24145435  0.63483300  0.49140764  1
  O  O254  1  0.24255231  0.63299230  0.99001655  1
  O  O255  1  0.75808205  0.14146766  0.50153046  1
  O  O256  1  0.74443122  0.13043236  0.99328947  1
  O  O257  1  0.74132886  0.63007726  0.49596340  1
  O  O258  1  0.73799479  0.62450951  0.99605751  1
  O  O259  1  0.25587023  0.37018809  0.00249436  1
  O  O260  1  0.24827488  0.36181145  0.49443319  1
  O  O261  1  0.25739139  0.85711389  -0.00633861  1
  O  O262  1  0.25003721  0.86030635  0.50432366  1
  O  O263  1  0.75209036  0.36963075  0.01093669  1
  O  O264  1  0.75834275  0.36761624  0.50422228  1
  O  O265  1  0.76201792  0.87311260  -0.00107283  1
  O  O266  1  0.73891483  0.86490607  0.50595684  1
  O  O267  1  0.12607169  0.50536861  0.23279669  1
  O  O268  1  0.12905731  0.49400666  0.73820474  1
  O  O269  1  0.12809208  0.99118553  0.24208406  1
  O  O270  1  0.13300700  0.99320471  0.74625327  1
  O  O271  1  0.63251587  0.49285193  0.24667836  1
  O  O272  1  0.63640850  0.49046483  0.75992351  1
  O  O273  1  0.63104924  0.99022078  0.23595044  1
  O  O274  1  0.63938680  0.98345614  0.76273288  1
  O  O275  1  0.36295802  -0.00387571  0.25001539  1
  O  O276  1  0.37002795  0.00834426  0.75634898  1
  O  O277  1  0.37838108  0.50237584  0.26356436  1
  O  O278  1  0.37279098  0.49396864  0.76219898  1
  O  O279  1  0.87084293  0.00450734  0.25340399  1
  O  O280  1  0.87035080  0.00390756  0.75981676  1
  O  O281  1  0.86744259  0.50946196  0.25189664  1
  O  O282  1  0.87084828  0.50877761  0.75791668  1
  O  O283  1  0.11230758  0.37323793  0.37657895  1
  O  O284  1  0.11941381  0.36906657  0.86929008  1
  O  O285  1  0.11857550  0.86616716  0.36977245  1
  O  O286  1  0.11974012  0.86643700  0.87220614  1
  O  O287  1  0.62846223  0.37915432  0.36410608  1
  O  O288  1  0.61932543  0.37096598  0.87390940  1
  O  O289  1  0.62159320  0.86257386  0.36188530  1
  O  O290  1  0.61662352  0.86785638  0.87485636  1
  O  O291  1  0.36036336  0.13462460  0.12325924  1
  O  O292  1  0.36851491  0.14032253  0.64184385  1
  O  O293  1  0.38110559  0.62793934  0.12265913  1
  O  O294  1  0.38518383  0.63102523  0.62112018  1
  O  O295  1  0.88554760  0.12883064  0.12792395  1
  O  O296  1  0.88852662  0.13526846  0.62768631  1
  O  O297  1  0.87217319  0.63669736  0.13276627  1
  O  O298  1  0.87667553  0.62955773  0.63714819  1
  O  O299  1  0.24345219  0.26533105  0.11045559  1
  O  O300  1  0.25699518  0.24738511  0.61326472  1
  O  O301  1  0.25983562  0.74035895  0.11715574  1
  O  O302  1  0.25506091  0.75072475  0.61728161  1
  O  O303  1  0.75420653  0.25853076  0.12523063  1
  O  O304  1  0.76246737  0.25504143  0.61873742  1
  O  O305  1  0.76055765  0.75408818  0.12050648  1
  O  O306  1  0.75807994  0.74547141  0.61738455  1
  O  O307  1  0.24781960  0.24219574  0.37965307  1
  O  O308  1  0.23646410  0.25648791  0.88745889  1
  O  O309  1  0.24047370  0.74387765  0.38186328  1
  O  O310  1  0.24351447  0.74250849  0.88131879  1
  O  O311  1  0.75547990  0.25382118  0.39196376  1
  O  O312  1  0.74782813  0.24555825  0.88320059  1
  O  O313  1  0.74051814  0.74798334  0.38281890  1
  O  O314  1  0.74246896  0.74054674  0.87975326  1
  O  O315  1  0.00983908  0.13043196  0.01182691  1
  O  O316  1  0.01119666  0.11632236  0.50543538  1
  O  O317  1  0.01542975  0.62846651  -0.00630343  1
  O  O318  1  0.01073989  0.62899336  0.49634666  1
  O  O319  1  0.51489960  0.13258163  -0.00419262  1
  O  O320  1  0.48132620  0.11691386  0.50268189  1
  O  O321  1  0.51004520  0.62385913  0.00921642  1
  O  O322  1  0.50714871  0.61710161  0.50761434  1
  O  O323  1  0.50124506  0.39158388  0.50670679  1
  O  O324  1  0.49128500  0.37372917  0.99521938  1
  O  O325  1  0.49047309  0.87368984  0.49822200  1
  O  O326  1  0.48677343  0.87157235  0.98738569  1
  O  O327  1  0.99374400  0.36984997  0.48465430  1
  O  O328  1  0.99835108  0.37107312  0.98452521  1
  O  O329  1  1.00741032  0.88937564  0.49147357  1
  O  O330  1  0.99299533  0.86802974  0.99112627  1
  O  O331  1  0.48421255  0.50944650  0.38432602  1
  O  O332  1  0.49333892  0.49268348  0.87904176  1
  O  O333  1  0.49513069  0.99225159  0.37877695  1
  O  O334  1  0.48481685  0.99195664  0.87293704  1
  O  O335  1  0.99968389  0.48569641  0.37050396  1
  O  O336  1  0.99143774  0.49361548  0.87105708  1
  O  O337  1  0.99663919  0.99296038  0.38099304  1
  O  O338  1  1.00206627  0.98534543  0.87245331  1
  O  O339  1  0.01229055  0.00921177  0.12869464  1
  O  O340  1  0.00740220  0.00496528  0.61737740  1
  O  O341  1  0.01338621  0.49014432  0.12428789  1
  O  O342  1  0.01715812  0.50576555  0.62852214  1
  O  O343  1  0.51055565  -0.00191755  0.12576538  1
  O  O344  1  0.48529975  0.00842020  0.60914755  1
  O  O345  1  0.50492464  0.50671774  0.12170122  1
  O  O346  1  0.49370812  0.51347313  0.61739145  1
  O  O347  1  0.25076726  0.36946667  0.23379091  1
  O  O348  1  0.23397034  0.38073837  0.75568756  1
  O  O349  1  0.23388446  0.88053288  0.25463747  1
  O  O350  1  0.24358835  0.87756377  0.74569808  1
  O  O351  1  0.74367427  0.38054719  0.24681674  1
  O  O352  1  0.74366528  0.38355771  0.75165782  1
  O  O353  1  0.73823815  0.88178743  0.24811704  1
  O  O354  1  0.74331449  0.88415567  0.75782406  1
  O  O355  1  0.24575729  0.11544890  0.25618288  1
  O  O356  1  0.25761075  0.11492069  0.75202234  1
  O  O357  1  0.24794871  0.62877144  0.26368142  1
  O  O358  1  0.24458021  0.62328541  0.76517264  1
  O  O359  1  0.77062484  0.11635594  0.23726087  1
  O  O360  1  0.75691602  0.12035006  0.76659599  1
  O  O361  1  0.75425426  0.61629940  0.25708574  1
  O  O362  1  0.75546398  0.61983956  0.75530171  1
  O  O363  1  0.35961801  0.12094621  0.37085320  1
  O  O364  1  0.36967800  0.11533554  0.87299576  1
  O  O365  1  0.36588813  0.61926256  0.37382715  1
  O  O366  1  0.36780729  0.61483278  0.88250785  1
  O  O367  1  0.88705191  0.11267306  0.36525457  1
  O  O368  1  0.87058073  0.12654957  0.87866283  1
  O  O369  1  0.86755937  0.62576123  0.36940192  1
  O  O370  1  0.87135102  0.62214620  0.86652936  1
  O  O371  1  0.13483038  0.38746070  0.11729486  1
  O  O372  1  0.12068745  0.38525952  0.62931119  1
  O  O373  1  0.11734727  0.88064617  0.13235641  1
  O  O374  1  0.13052990  0.87761414  0.62950345  1
  O  O375  1  0.63596783  0.38247985  0.13033492  1
  O  O376  1  0.62704751  0.37348740  0.64029935  1
  O  O377  1  0.62472519  0.88255813  0.12594785  1
  O  O378  1  0.61858698  0.87051687  0.63853462  1
  O  O379  1  0.11307673  0.24269226  0.24682790  1
  O  O380  1  0.13166897  0.25576638  0.75769977  1
  O  O381  1  0.12706718  0.75385444  0.26053526  1
  O  O382  1  0.12004203  0.75298686  0.75431133  1
  O  O383  1  0.61058847  0.26767730  0.24494178  1
  O  O384  1  0.62316583  0.26184416  0.76132713  1
  O  O385  1  0.62608034  0.75394689  0.25509126  1
  O  O386  1  0.63236728  0.75943188  0.76415400  1
  O  O387  1  0.38398930  0.24868537  0.24633618  1
  O  O388  1  0.37525885  0.24679401  0.74775114  1
  O  O389  1  0.37491831  0.74624354  0.23977397  1
  O  O390  1  0.36835655  0.75124240  0.73771694  1
  O  O391  1  0.88231845  0.24175347  0.24657418  1
  O  O392  1  0.87314017  0.25054053  0.73652748  1
  O  O393  1  0.86915839  0.74303677  0.23805971  1
  O  O394  1  0.87757843  0.74347869  0.74529461  1
  O  O395  1  0.38158390  0.49854144  0.49251213  1
  O  O396  1  0.37482019  0.48892574  0.99090855  1
  O  O397  1  0.35350568  0.97799350  0.49446353  1
  O  O398  1  0.36100507  0.98607734  0.99090409  1
  O  O399  1  0.86924247  0.48640229  0.50126178  1
  O  O400  1  0.86843491  0.50225143  0.98684128  1
  O  O401  1  0.88572380  1.00539896  0.49011603  1
  O  O402  1  0.87574527  0.98706095  1.00264790  1
  O  O403  1  0.13208906  0.00628184  0.00665588  1
  O  O404  1  0.12242103  0.00616302  0.50446100  1
  O  O405  1  0.12676163  0.51054698  0.00278046  1
  O  O406  1  0.12747212  0.50782741  0.50854041  1
  O  O407  1  0.62989922  0.00673492  0.01315868  1
  O  O408  1  0.64261899  0.00777059  0.49012459  1
  O  O409  1  0.62488355  0.50846141  0.00652072  1
  O  O410  1  0.61887059  0.51217517  0.49490642  1
  O  O411  1  0.36217976  0.37596800  0.11617279  1
  O  O412  1  0.37821461  0.36102198  0.62642587  1
  O  O413  1  0.37767845  0.86443306  0.11391239  1
  O  O414  1  0.36978722  0.86450852  0.61925476  1
  O  O415  1  0.86424201  0.37206532  0.12794795  1
  O  O416  1  0.88070234  0.37069253  0.61979762  1
  O  O417  1  0.87739575  0.86557163  0.11986932  1
  O  O418  1  0.87972402  0.86441574  0.63071726  1
  O  O419  1  0.13108271  0.12578214  0.38070451  1
  O  O420  1  0.11843407  0.13244801  0.88303069  1
  O  O421  1  0.12941519  0.62986072  0.37998343  1
  O  O422  1  0.13068996  0.62660225  0.88363185  1
  O  O423  1  0.64073142  0.12742332  0.32966444  1
  O  O424  1  0.63437068  0.13245110  0.88092238  1
  O  O425  1  0.63010285  0.62991561  0.38031001  1
  O  O426  1  0.62639652  0.63102087  0.88233176  1
