# generated using pymatgen
data_V85Zn86O256
_symmetry_space_group_name_H-M   'P 1'
_cell_length_a   16.94191021
_cell_length_b   16.94534821
_cell_length_c   16.93881620
_cell_angle_alpha   89.99031935
_cell_angle_beta   89.91264806
_cell_angle_gamma   90.04682104
_symmetry_Int_Tables_number   1
_chemical_formula_structural   V85Zn86O256
_chemical_formula_sum   'V85 Zn86 O256'
_cell_volume   4862.89926160
_cell_formula_units_Z   1
loop_
 _symmetry_equiv_pos_site_id
 _symmetry_equiv_pos_as_xyz
  1  'x, y, z'
loop_
 _atom_site_type_symbol
 _atom_site_label
 _atom_site_symmetry_multiplicity
 _atom_site_fract_x
 _atom_site_fract_y
 _atom_site_fract_z
 _atom_site_occupancy
  V  V0  1  0.86852845  0.00072531  0.38117703  1
  V  V1  1  0.12316292  0.37016346  0.74985900  1
  V  V2  1  0.00091510  0.26269338  0.25115511  1
  V  V3  1  0.12619817  0.50072720  0.62431954  1
  V  V4  1  0.50129634  0.75317694  0.74910466  1
  V  V5  1  0.87514890  0.75163819  0.12588106  1
  V  V6  1  0.76755820  0.00310761  0.75108102  1
  V  V7  1  0.76577929  0.12060287  0.87806734  1
  V  V8  1  0.89036051  0.11805593  0.24354185  1
  V  V9  1  0.38158382  0.38016396  0.49874860  1
  V  V10  1  0.61942176  0.62299650  0.49501573  1
  V  V11  1  0.37687874  -0.00326326  0.89327544  1
  V  V12  1  0.86468376  0.37511034  0.00432714  1
  V  V13  1  0.75591096  0.50586777  0.74674851  1
  V  V14  1  0.12656125  0.12771065  0.01083900  1
  V  V15  1  0.74425520  0.87580791  0.13331880  1
  V  V16  1  0.49861283  0.37481447  0.88518674  1
  V  V17  1  0.50141718  0.62376684  0.62132219  1
  V  V18  1  0.00018024  0.49289545  0.49282483  1
  V  V19  1  0.25276093  0.00197716  0.75360579  1
  V  V20  1  0.37691300  0.62542815  0.74790541  1
  V  V21  1  0.25649932  0.75556092  0.00203250  1
  V  V22  1  -0.00306633  0.37187098  0.87358370  1
  V  V23  1  0.38042776  0.88384482  0.49671037  1
  V  V24  1  0.75448643  0.75623131  0.49761938  1
  V  V25  1  0.75314681  0.24363537  0.50268038  1
  V  V26  1  0.38188771  0.50230194  0.37482308  1
  V  V27  1  0.12996337  0.48988323  0.12485330  1
  V  V28  1  0.00202392  0.62598847  0.12649462  1
  V  V29  1  0.63920737  0.50442570  0.11977250  1
  V  V30  1  0.25143404  0.62565897  0.87479786  1
  V  V31  1  0.31456828  0.31835820  0.06601616  1
  V  V32  1  0.62019378  0.00043832  0.11969951  1
  V  V33  1  0.62526469  0.24429266  0.87756337  1
  V  V34  1  0.25234864  0.87810999  0.12553798  1
  V  V35  1  0.00078976  0.75111145  0.25206930  1
  V  V36  1  -0.00246205  0.49962938  0.00028667  1
  V  V37  1  0.74482703  0.01052033  0.24943922  1
  V  V38  1  0.74554301  0.74696771  0.00140159  1
  V  V39  1  0.87150811  0.24937242  0.12158047  1
  V  V40  1  0.12573677  0.62410650  0.49879421  1
  V  V41  1  0.37355804  0.12449882  0.75164248  1
  V  V42  1  0.25115547  0.75147084  0.49906050  1
  V  V43  1  0.25300532  0.49779871  0.74898272  1
  V  V44  1  0.26147401  0.00393609  0.25661389  1
  V  V45  1  -0.01061407  0.62442648  0.62905591  1
  V  V46  1  0.12493092  0.75094321  0.37558042  1
  V  V47  1  0.24995877  0.87741112  0.62347864  1
  V  V48  1  0.48781666  0.12489143  0.12129813  1
  V  V49  1  0.12396718  0.87239604  0.75100744  1
  V  V50  1  0.37669201  0.75155690  0.62313371  1
  V  V51  1  0.74800533  0.61805038  0.37146352  1
  V  V52  1  -0.00659292  0.87753607  0.38582598  1
  V  V53  1  0.38313475  0.75266166  0.12697469  1
  V  V54  1  0.12612493  0.62608984  0.00257366  1
  V  V55  1  0.62186710  0.49811632  0.61754037  1
  V  V56  1  0.49643998  0.87859095  0.88775499  1
  V  V57  1  0.61900491  0.75424687  0.36197446  1
  V  V58  1  0.37792725  0.49821212  0.88296168  1
  V  V59  1  0.37779926  0.25085539  0.62275293  1
  V  V60  1  0.11916676  0.00700637  0.62822150  1
  V  V61  1  0.12486537  0.75165018  0.87658150  1
  V  V62  1  0.62547570  0.37661360  0.74889001  1
  V  V63  1  0.25044757  0.25061375  0.50029081  1
  V  V64  1  0.64145038  0.37833064  0.24169049  1
  V  V65  1  0.62524133  0.88209646  0.74918636  1
  V  V66  1  0.63238277  0.23995943  0.36806903  1
  V  V67  1  0.87487732  0.48945803  0.37127576  1
  V  V68  1  0.13162905  0.25551658  0.88714401  1
  V  V69  1  0.62234127  0.74536256  0.87784869  1
  V  V70  1  0.50594884  0.37616018  0.37354960  1
  V  V71  1  0.25537455  0.49586533  0.24521731  1
  V  V72  1  0.49787516  0.87857411  0.35699127  1
  V  V73  1  0.12493015  0.87988494  0.25283845  1
  V  V74  1  0.50109397  0.24987959  0.74940391  1
  V  V75  1  0.87319660  0.61981073  0.25050449  1
  V  V76  1  0.48866540  0.24718910  0.24527416  1
  V  V77  1  0.25437308  0.13153704  0.88202429  1
  V  V78  1  -0.00390377  0.01136054  0.00390578  1
  V  V79  1  0.11387292  0.12610534  0.50001811  1
  V  V80  1  0.50479122  0.12172284  0.62161337  1
  V  V81  1  0.38522558  0.62910576  0.24843689  1
  V  V82  1  0.87638665  0.87828639  -0.00446139  1
  V  V83  1  0.75759477  0.62916910  0.87022870  1
  V  V84  1  0.26180263  0.12245730  0.37536870  1
  Zn  Zn85  1  0.50209673  0.00001252  0.49271730  1
  Zn  Zn86  1  0.86845366  0.75129832  0.63141565  1
  Zn  Zn87  1  -0.00432421  0.87646298  0.87723051  1
  Zn  Zn88  1  0.75529580  0.37344821  0.62255916  1
  Zn  Zn89  1  0.50554377  0.50579194  0.00475020  1
  Zn  Zn90  1  0.62420219  0.11877439  0.48961308  1
  Zn  Zn91  1  0.87669066  0.36905428  0.49929859  1
  Zn  Zn92  1  -0.00979395  0.74089427  0.75745233  1
  Zn  Zn93  1  0.89692715  0.24978348  0.64629022  1
  Zn  Zn94  1  -0.01321596  -0.00012262  0.51143513  1
  Zn  Zn95  1  0.62473365  -0.00228798  0.62064811  1
  Zn  Zn96  1  0.25233881  0.37510103  0.62257037  1
  Zn  Zn97  1  0.87723120  0.50487344  0.86966618  1
  Zn  Zn98  1  -0.06128035  0.08288061  0.68501886  1
  Zn  Zn99  1  0.11891016  0.25517125  0.37757827  1
  Zn  Zn100  1  0.12703745  0.37687800  0.25609430  1
  Zn  Zn101  1  0.62031313  0.11899245  -0.00189527  1
  Zn  Zn102  1  0.12171916  0.00918026  0.13281416  1
  Zn  Zn103  1  0.74738272  0.24970049  0.00495977  1
  Zn  Zn104  1  0.75523942  0.88305867  0.61598274  1
  Zn  Zn105  1  0.25371741  0.62580873  0.37317313  1
  Zn  Zn106  1  0.50841125  0.62640368  0.11914987  1
  Zn  Zn107  1  0.19418629  0.19375128  0.19086398  1
  Zn  Zn108  1  0.08000828  0.18941153  0.69393663  1
  Zn  Zn109  1  0.19299610  0.68452913  0.18965060  1
  Zn  Zn110  1  0.18618866  0.68703344  0.68590959  1
  Zn  Zn111  1  0.68637747  0.18413585  0.18506152  1
  Zn  Zn112  1  0.69433369  0.18392301  0.68922096  1
  Zn  Zn113  1  0.69072265  0.68423338  0.18750955  1
  Zn  Zn114  1  0.68649971  0.68921445  0.68608102  1
  Zn  Zn115  1  0.31008789  0.31404918  0.31364849  1
  Zn  Zn116  1  0.31371314  0.31276660  0.81484376  1
  Zn  Zn117  1  0.31436158  0.81375461  0.31206010  1
  Zn  Zn118  1  0.31341921  0.81515135  0.81309354  1
  Zn  Zn119  1  0.81392801  0.30400641  0.31106968  1
  Zn  Zn120  1  0.80774323  0.31726026  0.81720332  1
  Zn  Zn121  1  0.81125817  0.81230303  0.31444728  1
  Zn  Zn122  1  0.81261103  0.81383359  0.80924898  1
  Zn  Zn123  1  0.19170302  0.43526011  0.43097351  1
  Zn  Zn124  1  0.19165476  0.43744715  0.94098594  1
  Zn  Zn125  1  0.18504419  0.94185124  0.44015178  1
  Zn  Zn126  1  0.18657037  0.94091927  0.94155056  1
  Zn  Zn127  1  0.68976463  0.43313760  0.43590040  1
  Zn  Zn128  1  0.68608355  0.44060579  0.93352933  1
  Zn  Zn129  1  0.68166663  0.93816056  0.43072841  1
  Zn  Zn130  1  0.68838918  0.93548166  0.93769657  1
  Zn  Zn131  1  0.30771125  0.06498695  0.06707458  1
  Zn  Zn132  1  0.31058308  0.06519433  0.56296960  1
  Zn  Zn133  1  0.31514352  0.56406687  0.06385266  1
  Zn  Zn134  1  0.31385052  0.56153052  0.55970053  1
  Zn  Zn135  1  0.81242791  0.06439612  0.06284491  1
  Zn  Zn136  1  0.80531846  0.07051497  0.56284223  1
  Zn  Zn137  1  0.81034927  0.56480602  0.06123278  1
  Zn  Zn138  1  0.80865096  0.56018898  0.55545533  1
  Zn  Zn139  1  0.44618056  0.43771852  0.18580684  1
  Zn  Zn140  1  0.44130777  0.43761492  0.68853230  1
  Zn  Zn141  1  0.43435237  0.94123076  0.18174590  1
  Zn  Zn142  1  0.43839635  0.93889663  0.68946379  1
  Zn  Zn143  1  0.93347810  0.43793118  0.18334779  1
  Zn  Zn144  1  0.93702653  0.43146240  0.68341553  1
  Zn  Zn145  1  0.93824937  0.93697045  0.18388496  1
  Zn  Zn146  1  0.93634294  0.91449902  0.68461021  1
  Zn  Zn147  1  0.06405404  0.06283628  0.32023427  1
  Zn  Zn148  1  0.07238246  0.05425767  0.82979324  1
  Zn  Zn149  1  0.06344356  0.56007360  0.31185292  1
  Zn  Zn150  1  0.06489246  0.55972503  0.81250370  1
  Zn  Zn151  1  0.55780282  0.05918375  0.30219417  1
  Zn  Zn152  1  0.55875319  0.06151837  0.81333934  1
  Zn  Zn153  1  0.56436696  0.55927881  0.30408880  1
  Zn  Zn154  1  0.56537014  0.56369496  0.81222316  1
  Zn  Zn155  1  0.44194134  0.19066343  0.43527922  1
  Zn  Zn156  1  0.43418078  0.19171673  0.94450832  1
  Zn  Zn157  1  0.44024212  0.69204665  0.43609893  1
  Zn  Zn158  1  0.43989122  0.68637012  0.94097158  1
  Zn  Zn159  1  0.93260753  0.18212368  0.43036952  1
  Zn  Zn160  1  0.94196929  0.19168181  0.82582239  1
  Zn  Zn161  1  0.93765906  0.68181743  0.43668218  1
  Zn  Zn162  1  0.93571710  0.68951674  0.93882448  1
  Zn  Zn163  1  0.05443760  0.30937144  0.06603360  1
  Zn  Zn164  1  0.06427667  0.31543768  0.56025181  1
  Zn  Zn165  1  0.06414215  0.81637102  0.06468101  1
  Zn  Zn166  1  0.06069167  0.81110617  0.56510083  1
  Zn  Zn167  1  0.56208765  0.31302873  0.06558355  1
  Zn  Zn168  1  0.56678533  0.31001632  0.55758285  1
  Zn  Zn169  1  0.56531156  0.81514755  0.06387843  1
  Zn  Zn170  1  0.56789252  0.81333637  0.55858134  1
  O  O171  1  0.13400892  0.12922364  0.11413511  1
  O  O172  1  0.13017334  0.11184128  0.62028941  1
  O  O173  1  0.11968314  0.62105419  0.12025134  1
  O  O174  1  0.12079056  0.62024168  0.61377345  1
  O  O175  1  0.61681944  0.11742799  0.12117758  1
  O  O176  1  0.61146242  0.12620337  0.62823724  1
  O  O177  1  0.62680191  0.60900873  0.13371418  1
  O  O178  1  0.62115081  0.61890582  0.61471512  1
  O  O179  1  0.38407861  0.38196895  0.37971890  1
  O  O180  1  0.38750371  0.38709848  0.86301752  1
  O  O181  1  0.39045552  0.86500006  0.38266467  1
  O  O182  1  0.38371705  0.88489624  0.86996268  1
  O  O183  1  0.86931297  0.38698751  0.37205341  1
  O  O184  1  0.88424038  0.38270473  0.88357680  1
  O  O185  1  0.88456639  0.88439364  0.36779087  1
  O  O186  1  0.87332385  0.87101292  0.89191073  1
  O  O187  1  0.24616665  0.01344533  0.37239676  1
  O  O188  1  0.25730900  0.00460385  0.87200222  1
  O  O189  1  0.26693641  0.50375787  0.36924669  1
  O  O190  1  0.25765380  0.50413297  0.86742857  1
  O  O191  1  0.75726660  -0.01146258  0.35995852  1
  O  O192  1  0.74580571  0.01193851  0.86683766  1
  O  O193  1  0.75735397  0.51078821  0.37892053  1
  O  O194  1  0.74757662  0.51276359  0.86568305  1
  O  O195  1  0.24049929  0.50875845  0.13234687  1
  O  O196  1  0.24580594  0.49975830  0.63255845  1
  O  O197  1  0.24493325  0.99336001  0.13567764  1
  O  O198  1  0.24321727  0.99506013  0.63264283  1
  O  O199  1  0.73996810  0.50188032  0.12555777  1
  O  O200  1  0.73920051  0.49988278  0.62934788  1
  O  O201  1  0.74410996  0.99345214  0.13039983  1
  O  O202  1  0.74539775  1.00285212  0.64050475  1
  O  O203  1  -0.00377209  0.36450306  0.24952924  1
  O  O204  1  0.01344647  0.39153960  0.76171711  1
  O  O205  1  0.00794762  0.86966114  0.25620388  1
  O  O206  1  0.01435903  0.86996998  0.75664882  1
  O  O207  1  0.50861394  0.36338152  0.25707972  1
  O  O208  1  0.51124695  0.37002457  0.75499871  1
  O  O209  1  0.49196685  0.87382118  0.25870671  1
  O  O210  1  0.50729402  0.86901335  0.75459596  1
  O  O211  1  0.50242214  0.13973696  0.24068250  1
  O  O212  1  0.49254295  0.13151885  0.74370934  1
  O  O213  1  0.48874797  0.62458387  0.24490457  1
  O  O214  1  0.49665484  0.63286836  0.74388877  1
  O  O215  1  0.99217476  0.12277461  0.24709413  1
  O  O216  1  1.01191721  0.12301470  0.76263870  1
  O  O217  1  0.99487839  0.63265068  0.24695239  1
  O  O218  1  1.00798307  0.62138875  0.73288613  1
  O  O219  1  0.36925961  0.26505891  -0.00305025  1
  O  O220  1  0.37378574  0.26169457  0.50120917  1
  O  O221  1  0.36089779  0.74801617  0.00529149  1
  O  O222  1  0.37000857  0.75720811  0.50565932  1
  O  O223  1  0.87421339  0.26180118  0.00975062  1
  O  O224  1  0.85818252  0.24905405  0.48753399  1
  O  O225  1  0.86881870  0.75687597  0.00791589  1
  O  O226  1  0.85592916  0.74065306  0.49325944  1
  O  O227  1  0.13538684  0.24284430  0.50023897  1
  O  O228  1  0.11966489  0.24561455  0.99383934  1
  O  O229  1  0.12965401  0.74315507  0.49584084  1
  O  O230  1  0.13306320  0.74591966  0.99491032  1
  O  O231  1  0.63039372  0.24885393  0.48210200  1
  O  O232  1  0.62728616  0.25322646  0.98797104  1
  O  O233  1  0.63193357  0.74059590  0.48802594  1
  O  O234  1  0.63444519  0.75677816  0.99082317  1
  O  O235  1  0.50429643  0.24146161  0.13732704  1
  O  O236  1  0.49668115  0.24499972  0.62913129  1
  O  O237  1  0.48598477  0.75339841  0.11999056  1
  O  O238  1  0.49715197  0.74488556  0.62935108  1
  O  O239  1  0.98665881  0.25015988  0.13924762  1
  O  O240  1  1.01069883  0.24729706  0.62835423  1
  O  O241  1  0.99616139  0.74523939  0.13134600  1
  O  O242  1  1.00105274  0.73277761  0.62402592  1
  O  O243  1  -0.00162032  0.24219887  0.35533493  1
  O  O244  1  0.01330427  0.26712617  0.87843479  1
  O  O245  1  0.00415374  0.75692784  0.37245998  1
  O  O246  1  0.01420913  0.74979669  0.87700492  1
  O  O247  1  0.51135317  0.25509582  0.36414277  1
  O  O248  1  0.50501763  0.25680919  0.86900716  1
  O  O249  1  0.51256190  0.75742676  0.37438187  1
  O  O250  1  0.50493816  0.75601824  0.86845951  1
  O  O251  1  0.24361337  0.13027634  0.49289115  1
  O  O252  1  0.24261248  0.11993419  0.98973247  1
  O  O253  1  0.24250936  0.63100615  0.49837103  1
  O  O254  1  0.24516827  0.63306090  0.99366419  1
  O  O255  1  0.74027290  0.13931011  0.49579238  1
  O  O256  1  0.74527202  0.12402063  0.98724036  1
  O  O257  1  0.73880384  0.63050172  0.48910517  1
  O  O258  1  0.75396255  0.64039388  0.99232264  1
  O  O259  1  0.24933659  0.37831427  0.01411230  1
  O  O260  1  0.26201350  0.36812848  0.49932825  1
  O  O261  1  0.24054231  0.86713404  0.01317245  1
  O  O262  1  0.25584136  0.87118538  0.50393025  1
  O  O263  1  0.76265252  0.37376113  -0.01152511  1
  O  O264  1  0.75060719  0.36134219  0.50022303  1
  O  O265  1  0.75681852  0.86750975  0.00830017  1
  O  O266  1  0.74123402  0.85862996  0.49477331  1
  O  O267  1  0.13473420  0.50302702  0.24182023  1
  O  O268  1  0.13716093  0.49398302  0.74735499  1
  O  O269  1  0.13018450  0.99242838  0.25222716  1
  O  O270  1  0.13288658  0.99128091  0.74783836  1
  O  O271  1  0.62652663  0.48443295  0.24279904  1
  O  O272  1  0.63144561  0.49332580  0.74249973  1
  O  O273  1  0.63545768  1.00300587  0.23777713  1
  O  O274  1  0.62429176  0.98868756  0.75012951  1
  O  O275  1  0.36042022  -0.00339004  0.25157418  1
  O  O276  1  0.36796262  0.00664544  0.75441002  1
  O  O277  1  0.37292696  0.50727161  0.25469275  1
  O  O278  1  0.36896847  0.50614258  0.75335105  1
  O  O279  1  0.87194520  0.00736753  0.24971157  1
  O  O280  1  0.86904589  -0.00327191  0.74754414  1
  O  O281  1  0.88244758  0.51243649  0.25513723  1
  O  O282  1  0.85923599  0.49472249  0.74808769  1
  O  O283  1  0.12826574  0.36905211  0.37011459  1
  O  O284  1  0.12292393  0.37225156  0.87231998  1
  O  O285  1  0.11868595  0.87239368  0.36790588  1
  O  O286  1  0.12921574  0.86648206  0.86824173  1
  O  O287  1  0.62079023  0.36915153  0.36373030  1
  O  O288  1  0.61851044  0.36951770  0.86646636  1
  O  O289  1  0.61197867  0.86218976  0.37318617  1
  O  O290  1  0.61789518  0.86753188  0.86899738  1
  O  O291  1  0.38852334  0.12068268  0.12545879  1
  O  O292  1  0.38351887  0.13182378  0.62834986  1
  O  O293  1  0.37479015  0.63553089  0.13261819  1
  O  O294  1  0.38137882  0.62972320  0.62751181  1
  O  O295  1  0.87496257  0.12982584  0.13644278  1
  O  O296  1  0.86581892  0.13913832  0.62620115  1
  O  O297  1  0.88047494  0.63030532  0.13210930  1
  O  O298  1  0.88780748  0.62318554  0.61748808  1
  O  O299  1  0.26274278  0.25501017  0.12800605  1
  O  O300  1  0.26275730  0.25201915  0.60796931  1
  O  O301  1  0.25505519  0.75670169  0.11880465  1
  O  O302  1  0.25451401  0.75715042  0.61941325  1
  O  O303  1  0.76422539  0.24337236  0.12413428  1
  O  O304  1  0.73766649  0.25273149  0.60742285  1
  O  O305  1  0.75259223  0.75607392  0.11886476  1
  O  O306  1  0.74713718  0.74445693  0.60584060  1
  O  O307  1  0.25146530  0.24049664  0.38442650  1
  O  O308  1  0.24409770  0.24346040  0.87481449  1
  O  O309  1  0.24312823  0.74903411  0.38174283  1
  O  O310  1  0.24305880  0.74789225  0.88170817  1
  O  O311  1  0.73709634  0.25074178  0.37938803  1
  O  O312  1  0.74123294  0.23545436  0.87557959  1
  O  O313  1  0.73993732  0.74326983  0.38030605  1
  O  O314  1  0.74207678  0.74706753  0.88096067  1
  O  O315  1  0.00972228  0.11208403  0.00001839  1
  O  O316  1  0.01074212  0.12241214  0.49425786  1
  O  O317  1  0.00415328  0.61730111  0.00404655  1
  O  O318  1  0.00758225  0.61701872  0.50749160  1
  O  O319  1  0.50171906  0.13270873  0.01676313  1
  O  O320  1  0.50214755  0.12311437  0.50676314  1
  O  O321  1  0.49929105  0.62042742  0.00449630  1
  O  O322  1  0.51209932  0.62917102  0.50316941  1
  O  O323  1  0.49634538  0.36877624  0.48301624  1
  O  O324  1  0.50579610  0.37976121  0.98730808  1
  O  O325  1  0.49246770  0.87473713  0.49434271  1
  O  O326  1  0.50013984  0.87082023  0.98660959  1
  O  O327  1  1.00030645  0.38946064  0.49955000  1
  O  O328  1  0.99532071  0.38564737  0.99410399  1
  O  O329  1  1.00592961  0.87800924  0.48884521  1
  O  O330  1  0.99104799  0.87711195  1.00101265  1
  O  O331  1  0.49088922  0.49122594  0.36676456  1
  O  O332  1  0.49442713  0.49334042  0.87281746  1
  O  O333  1  0.50482242  0.98304946  0.37198859  1
  O  O334  1  0.48868652  0.99105257  0.87213751  1
  O  O335  1  0.98872699  0.50946515  0.38279458  1
  O  O336  1  1.00043868  0.49521555  0.88504792  1
  O  O337  1  0.98974108  0.99201556  0.37785835  1
  O  O338  1  1.00671364  0.99132662  0.89790533  1
  O  O339  1  0.00823952  -0.00902280  0.11038178  1
  O  O340  1  0.00485994  -0.00155270  0.62957063  1
  O  O341  1  0.00648570  0.50700684  0.11801875  1
  O  O342  1  0.00639333  0.50863481  0.61721462  1
  O  O343  1  0.50628458  0.01463809  0.13331676  1
  O  O344  1  0.50058939  0.00944367  0.62275665  1
  O  O345  1  0.51680025  0.50167159  0.12488273  1
  O  O346  1  0.51343006  0.50801549  0.62989549  1
  O  O347  1  0.25206979  0.39149913  0.25280117  1
  O  O348  1  0.24663910  0.38570211  0.74844834  1
  O  O349  1  0.24244547  0.88283370  0.24958746  1
  O  O350  1  0.24139494  0.87919045  0.74430194  1
  O  O351  1  0.73932524  0.37018328  0.25143391  1
  O  O352  1  0.73681183  0.38355893  0.75002195  1
  O  O353  1  0.75877557  0.88100192  0.23632199  1
  O  O354  1  0.74305375  0.89160322  0.75595394  1
  O  O355  1  0.24421826  0.11997759  0.26731022  1
  O  O356  1  0.25725570  0.11753474  0.76760958  1
  O  O357  1  0.26103227  0.61473278  0.25363215  1
  O  O358  1  0.25382655  0.61642572  0.75401596  1
  O  O359  1  0.76057000  0.11317940  0.24497441  1
  O  O360  1  0.74550413  0.11172967  0.76364266  1
  O  O361  1  0.76157367  0.62968855  0.26010156  1
  O  O362  1  0.74328183  0.61808186  0.75713435  1
  O  O363  1  0.36090440  0.12559565  0.38364067  1
  O  O364  1  0.37160814  0.11862730  0.87491121  1
  O  O365  1  0.37894700  0.61902251  0.36942536  1
  O  O366  1  0.36953451  0.61992566  0.86586275  1
  O  O367  1  0.87558940  0.11262424  0.35600932  1
  O  O368  1  0.86364241  0.12430702  0.88139879  1
  O  O369  1  0.86675809  0.61804474  0.36777423  1
  O  O370  1  0.86245478  0.62462672  0.87696706  1
  O  O371  1  0.11588468  0.38833474  0.13014455  1
  O  O372  1  0.12985270  0.38352748  0.63410228  1
  O  O373  1  0.13506703  0.87122024  0.14075845  1
  O  O374  1  0.12814382  0.88304607  0.63224054  1
  O  O375  1  0.62622156  0.38026902  0.13647043  1
  O  O376  1  0.62347347  0.38270013  0.63070486  1
  O  O377  1  0.63359858  0.88263633  0.12525852  1
  O  O378  1  0.63277587  0.87429902  0.63461052  1
  O  O379  1  0.10947476  0.25192232  0.24597850  1
  O  O380  1  0.13211547  0.26637867  0.76436620  1
  O  O381  1  0.12251254  0.75535590  0.25812269  1
  O  O382  1  0.12644212  0.75564793  0.75913129  1
  O  O383  1  0.62335689  0.25799295  0.25543395  1
  O  O384  1  0.62307069  0.25688899  0.75859708  1
  O  O385  1  0.62998172  0.74659174  0.26372071  1
  O  O386  1  0.62278597  0.76133855  0.75678882  1
  O  O387  1  0.39098249  0.25328381  0.25803899  1
  O  O388  1  0.37997161  0.24492195  0.74326718  1
  O  O389  1  0.36634717  0.74079717  0.23931833  1
  O  O390  1  0.37907411  0.74521555  0.74294664  1
  O  O391  1  0.88314417  0.23790765  0.24629301  1
  O  O392  1  0.87990161  0.25685751  0.76000022  1
  O  O393  1  0.88033752  0.74094638  0.24633674  1
  O  O394  1  0.87797477  0.75068941  0.74692001  1
  O  O395  1  0.37494497  0.48848615  0.49242989  1
  O  O396  1  0.37440293  0.50415761  0.98514593  1
  O  O397  1  0.37447521  0.98617281  0.50395659  1
  O  O398  1  0.36904663  0.99948282  0.99206083  1
  O  O399  1  0.88263587  0.49854913  0.48921350  1
  O  O400  1  0.88380202  0.49550643  1.00046129  1
  O  O401  1  0.86935667  1.00926112  0.48537757  1
  O  O402  1  0.88720524  0.99381731  1.00849226  1
  O  O403  1  0.12004157  0.01033640  0.00590004  1
  O  O404  1  0.12116310  0.00769321  0.51206416  1
  O  O405  1  0.11865659  0.50663884  0.00667041  1
  O  O406  1  0.12151158  0.50719330  0.50178671  1
  O  O407  1  0.62782862  -0.00229232  0.01418552  1
  O  O408  1  0.62231786  0.00239076  0.50208752  1
  O  O409  1  0.62835118  0.49309640  0.01594324  1
  O  O410  1  0.62954652  0.50753013  0.50658887  1
  O  O411  1  0.37687388  0.37676515  0.12195983  1
  O  O412  1  0.37927333  0.37086277  0.61590666  1
  O  O413  1  0.36034387  0.86827474  0.13059456  1
  O  O414  1  0.37050894  0.86979873  0.61880185  1
  O  O415  1  0.87686215  0.36735253  0.11515909  1
  O  O416  1  0.87293201  0.36533386  0.61855839  1
  O  O417  1  0.86769876  0.86819932  0.11767623  1
  O  O418  1  0.86741648  0.86558926  0.61543798  1
  O  O419  1  0.13306033  0.12976563  0.38696484  1
  O  O420  1  0.13557707  0.13681735  0.88634475  1
  O  O421  1  0.12542243  0.62930537  0.38630061  1
  O  O422  1  0.13213060  0.63151961  0.88004905  1
  O  O423  1  0.61898358  0.13814824  0.36739925  1
  O  O424  1  0.62170692  0.13377236  0.87760709  1
  O  O425  1  0.62850508  0.62940402  0.37631376  1
  O  O426  1  0.63247753  0.64024327  0.86961695  1
