# generated using pymatgen
data_V85Zn86O256
_symmetry_space_group_name_H-M   'P 1'
_cell_length_a   16.99641100
_cell_length_b   17.01308884
_cell_length_c   17.02637790
_cell_angle_alpha   90.00632041
_cell_angle_beta   90.02479110
_cell_angle_gamma   90.00914605
_symmetry_Int_Tables_number   1
_chemical_formula_structural   V85Zn86O256
_chemical_formula_sum   'V85 Zn86 O256'
_cell_volume   4923.37157222
_cell_formula_units_Z   1
loop_
 _symmetry_equiv_pos_site_id
 _symmetry_equiv_pos_as_xyz
  1  'x, y, z'
loop_
 _atom_site_type_symbol
 _atom_site_label
 _atom_site_symmetry_multiplicity
 _atom_site_fract_x
 _atom_site_fract_y
 _atom_site_fract_z
 _atom_site_occupancy
  V  V0  1  0.50309892  0.75101237  0.25103837  1
  V  V1  1  0.62962424  0.87510244  0.74285345  1
  V  V2  1  0.94406876  0.69299357  0.18599070  1
  V  V3  1  0.24775044  0.62789681  0.37611509  1
  V  V4  1  0.12899010  0.24720895  0.37424707  1
  V  V5  1  -0.00544597  0.00401016  0.00364276  1
  V  V6  1  0.36578797  0.63956924  0.24676617  1
  V  V7  1  0.12290724  0.37506946  0.75048327  1
  V  V8  1  0.00117648  0.37845337  0.88464028  1
  V  V9  1  0.62545699  0.75202639  0.37737012  1
  V  V10  1  0.82605328  0.21095572  0.08912809  1
  V  V11  1  -0.00905785  0.12307001  0.62599930  1
  V  V12  1  0.12053959  0.87613371  0.25422346  1
  V  V13  1  0.38079731  0.49661376  0.87972179  1
  V  V14  1  0.81549932  0.17243542  0.80946165  1
  V  V15  1  0.61823192  0.00093357  0.61955753  1
  V  V16  1  0.87296038  0.75504817  0.62595066  1
  V  V17  1  0.50117733  0.88376621  0.87517258  1
  V  V18  1  0.63279243  0.87491645  0.25170507  1
  V  V19  1  0.25003525  0.74400447  0.01274034  1
  V  V20  1  0.11166577  0.61689296  -0.00128795  1
  V  V21  1  0.62117105  0.36899653  0.74553446  1
  V  V22  1  0.86760059  0.38229088  0.01299907  1
  V  V23  1  0.12750270  0.74922013  0.87569623  1
  V  V24  1  0.62875116  0.25173885  0.36113938  1
  V  V25  1  0.49984016  0.50372461  0.50075649  1
  V  V26  1  -0.00863379  0.24916852  0.25136528  1
  V  V27  1  0.50234396  0.37777588  0.36786167  1
  V  V28  1  0.49199041  0.63064097  0.12309928  1
  V  V29  1  0.25281649  0.37095141  0.12541388  1
  V  V30  1  0.74686336  0.61848221  0.87562189  1
  V  V31  1  0.12518720  0.50060759  0.62580701  1
  V  V32  1  0.12643087  0.37496087  0.24951949  1
  V  V33  1  0.74848268  0.24640995  0.48919916  1
  V  V34  1  0.87807733  0.37362144  0.50059242  1
  V  V35  1  0.00674153  0.37538212  0.38000426  1
  V  V36  1  0.12546183  0.24910928  0.87650206  1
  V  V37  1  0.61750408  0.12449257  0.49256347  1
  V  V38  1  0.25228977  0.62286422  0.87888337  1
  V  V39  1  -0.00131585  0.87295462  0.37545874  1
  V  V40  1  0.00040389  0.75059515  0.75018140  1
  V  V41  1  0.48107515  0.24267545  0.74040928  1
  V  V42  1  0.36354386  -0.00189135  0.86473248  1
  V  V43  1  0.12419208  0.12375110  0.50292357  1
  V  V44  1  0.74897848  0.37523145  0.62039962  1
  V  V45  1  0.25117066  0.50573811  0.24529498  1
  V  V46  1  -0.00042356  0.24540268  0.75171631  1
  V  V47  1  0.75643885  -0.00560452  0.73908390  1
  V  V48  1  0.87392983  0.62316023  0.74867780  1
  V  V49  1  0.11887674  0.74935217  0.37489164  1
  V  V50  1  0.25209468  0.49763257  0.75242499  1
  V  V51  1  0.50181258  0.62255391  0.62888765  1
  V  V52  1  0.38044867  0.86564178  0.00037820  1
  V  V53  1  0.75088710  0.01836750  0.25323039  1
  V  V54  1  0.75763778  0.62503008  0.36614208  1
  V  V55  1  0.12894474  0.12406011  0.00145218  1
  V  V56  1  -0.00137972  0.87691709  0.87516828  1
  V  V57  1  0.88052115  0.50363350  0.87997343  1
  V  V58  1  0.25235346  0.87696482  0.12377298  1
  V  V59  1  -0.00028404  0.62422109  0.62477502  1
  V  V60  1  0.12680751  0.62903544  0.50057611  1
  V  V61  1  0.25281122  0.87983426  0.62712919  1
  V  V62  1  0.25559471  0.24579870  0.00030589  1
  V  V63  1  0.62415512  0.74917484  0.87409383  1
  V  V64  1  0.36705926  0.74406352  0.62246682  1
  V  V65  1  0.86815785  -0.00272997  0.87276080  1
  V  V66  1  0.75274088  0.74648647  0.50380843  1
  V  V67  1  0.37517635  0.37361598  0.50271052  1
  V  V68  1  0.51754315  0.47884496  0.02106603  1
  V  V69  1  0.37338234  0.37128898  0.00546153  1
  V  V70  1  0.50661009  0.36927798  0.87140088  1
  V  V71  1  0.62469386  0.62436102  0.01042134  1
  V  V72  1  0.85729204  0.48227593  0.35642374  1
  V  V73  1  0.11018435  0.49808958  0.12104396  1
  V  V74  1  0.25118937  0.37328107  0.62391801  1
  V  V75  1  0.86977379  0.01062316  0.37101196  1
  V  V76  1  0.75550665  0.75326220  0.00554909  1
  V  V77  1  0.12921667  -0.00004833  0.13228799  1
  V  V78  1  0.12950158  0.88445391  0.75287131  1
  V  V79  1  0.86956243  0.87671422  0.50106139  1
  V  V80  1  0.25676236  0.24623061  0.50304777  1
  V  V81  1  0.37191984  0.50479362  0.37273835  1
  V  V82  1  0.00144372  0.12970707  0.13567846  1
  V  V83  1  0.25728657  0.11673173  0.36488055  1
  V  V84  1  0.48096904  0.24672220  0.24606528  1
  Zn  Zn85  1  0.49297922  0.12567830  0.61611556  1
  Zn  Zn86  1  0.63340446  0.23370510  -0.12586277  1
  Zn  Zn87  1  0.62949492  0.62066591  0.50144409  1
  Zn  Zn88  1  0.74743627  0.49944357  0.74706276  1
  Zn  Zn89  1  0.35247672  0.10565773  0.72357127  1
  Zn  Zn90  1  0.37819714  0.62261719  0.75310198  1
  Zn  Zn91  1  -0.00036516  -0.00110215  0.50136407  1
  Zn  Zn92  1  0.29227678  0.79792253  0.45896250  1
  Zn  Zn93  1  0.87042260  0.24598025  0.62491530  1
  Zn  Zn94  1  0.12720663  0.00480386  0.63165213  1
  Zn  Zn95  1  0.39554487  0.97213264  0.38362613  1
  Zn  Zn96  1  0.60943698  0.12005400  -0.00500194  1
  Zn  Zn97  1  0.87798964  0.87151514  0.00810136  1
  Zn  Zn98  1  0.49352053  0.12543813  0.13411553  1
  Zn  Zn99  1  0.31746654  0.04928353  0.20683379  1
  Zn  Zn100  1  -0.00236656  0.49979760  0.50255983  1
  Zn  Zn101  1  0.49947635  0.74783338  0.75063727  1
  Zn  Zn102  1  0.24645976  0.11866136  0.86836689  1
  Zn  Zn103  1  0.62478365  0.49897079  0.62495004  1
  Zn  Zn104  1  0.76127369  0.87004816  0.13639324  1
  Zn  Zn105  1  0.61386245  -0.00335716  0.11465460  1
  Zn  Zn106  1  0.72696262  0.49704929  0.22684345  1
  Zn  Zn107  1  0.18796241  0.19127468  0.18673373  1
  Zn  Zn108  1  0.18722904  0.18741666  0.68559899  1
  Zn  Zn109  1  0.11346588  0.68993316  0.18230321  1
  Zn  Zn110  1  0.18775141  0.68695078  0.69296825  1
  Zn  Zn111  1  0.67462951  0.18522000  0.18042108  1
  Zn  Zn112  1  0.67933084  0.19069396  0.67845781  1
  Zn  Zn113  1  0.68946563  0.68409908  0.18764283  1
  Zn  Zn114  1  0.68806015  0.68593105  0.68769697  1
  Zn  Zn115  1  0.31072176  0.31685094  0.31766192  1
  Zn  Zn116  1  0.31145989  0.31033959  0.81456662  1
  Zn  Zn117  1  0.32930005  0.84616044  0.28402838  1
  Zn  Zn118  1  0.31427345  0.80649715  0.80891606  1
  Zn  Zn119  1  0.79233765  0.30717445  0.27271454  1
  Zn  Zn120  1  0.80904139  0.33566892  0.81741023  1
  Zn  Zn121  1  0.81862175  0.80944272  0.31468200  1
  Zn  Zn122  1  0.81042426  0.81212558  0.81480430  1
  Zn  Zn123  1  0.18576497  0.44093397  0.43889807  1
  Zn  Zn124  1  0.18688690  0.43727510  0.93951984  1
  Zn  Zn125  1  0.21394490  0.95305732  0.45432512  1
  Zn  Zn126  1  0.18864061  0.93730648  0.94277821  1
  Zn  Zn127  1  0.68313600  0.43610633  0.43486551  1
  Zn  Zn128  1  0.69164658  0.43969792  1.05012616  1
  Zn  Zn129  1  0.57264282  0.93802046  0.44123922  1
  Zn  Zn130  1  0.68556478  0.93975472  0.93031986  1
  Zn  Zn131  1  0.41042104  0.04663356  0.04816739  1
  Zn  Zn132  1  0.32716024  0.05466145  0.54743406  1
  Zn  Zn133  1  0.31511548  0.55751319  0.06477100  1
  Zn  Zn134  1  0.31266059  0.56348711  0.56116963  1
  Zn  Zn135  1  0.77781786  0.03823521  0.04535455  1
  Zn  Zn136  1  0.80634229  0.06210672  0.55652190  1
  Zn  Zn137  1  0.82200788  0.57003733  0.06401345  1
  Zn  Zn138  1  0.81538874  0.55933423  0.55678690  1
  Zn  Zn139  1  0.55401972  0.43711360  0.19184602  1
  Zn  Zn140  1  0.43531584  0.43621908  0.68669531  1
  Zn  Zn141  1  0.44592702  0.93458181  0.19144706  1
  Zn  Zn142  1  0.44049133  0.92987360  0.68528658  1
  Zn  Zn143  1  0.92504845  0.43936163  0.20199308  1
  Zn  Zn144  1  0.93646003  0.43602158  0.69037363  1
  Zn  Zn145  1  0.93409018  0.93595514  0.18796445  1
  Zn  Zn146  1  0.93965608  0.93821858  0.68650220  1
  Zn  Zn147  1  0.06309335  0.05874745  0.31660388  1
  Zn  Zn148  1  0.05810186  0.06385659  0.81453857  1
  Zn  Zn149  1  0.05019686  0.55699379  0.30856643  1
  Zn  Zn150  1  0.06301727  0.56221055  0.81294426  1
  Zn  Zn151  1  0.56310035  0.06604927  0.31131427  1
  Zn  Zn152  1  0.56198225  0.06383770  0.80846936  1
  Zn  Zn153  1  0.56250807  0.57100358  0.31616235  1
  Zn  Zn154  1  0.56488521  0.55545913  0.81509574  1
  Zn  Zn155  1  0.43660061  0.18645922  0.42837820  1
  Zn  Zn156  1  0.44236411  0.18523296  0.93154452  1
  Zn  Zn157  1  0.45367042  0.79751121  0.43953561  1
  Zn  Zn158  1  0.43996908  0.68733799  0.93894848  1
  Zn  Zn159  1  0.93986183  0.19008787  0.43813966  1
  Zn  Zn160  1  0.94279003  0.19179439  0.94584782  1
  Zn  Zn161  1  0.93775839  0.68504278  0.43673974  1
  Zn  Zn162  1  0.93691828  0.68895103  0.93630010  1
  Zn  Zn163  1  0.06210608  0.31288257  0.06409839  1
  Zn  Zn164  1  0.06405195  0.30680917  0.56630965  1
  Zn  Zn165  1  0.06411975  0.81601235  0.05672153  1
  Zn  Zn166  1  0.06404100  0.81489718  0.56199079  1
  Zn  Zn167  1  0.56006178  0.29536584  0.05642947  1
  Zn  Zn168  1  0.56188018  0.31111620  0.55805823  1
  Zn  Zn169  1  0.56648030  0.81420154  0.06617001  1
  Zn  Zn170  1  0.56965294  0.80322385  0.57213273  1
  O  O171  1  0.12205111  0.11850567  0.12038069  1
  O  O172  1  0.11388437  0.12769854  0.61767258  1
  O  O173  1  0.13360353  0.60908853  0.10895210  1
  O  O174  1  0.12055616  0.62267745  0.61990145  1
  O  O175  1  0.61152804  0.11654918  0.12211835  1
  O  O176  1  0.61942409  0.11814547  0.61333870  1
  O  O177  1  0.61720348  0.62781617  0.11410967  1
  O  O178  1  0.61696368  0.62109012  0.62329808  1
  O  O179  1  0.37902475  0.38479571  0.38495126  1
  O  O180  1  0.37699569  0.38436437  0.88067549  1
  O  O181  1  0.36603573  0.84988671  0.38829256  1
  O  O182  1  0.38411133  0.87285994  0.87396993  1
  O  O183  1  0.89272563  0.37782029  0.38572314  1
  O  O184  1  0.88301021  0.38500704  0.88488847  1
  O  O185  1  0.88301289  0.88005996  0.38241502  1
  O  O186  1  0.88404270  0.88113128  0.87628582  1
  O  O187  1  0.22634317  0.02207302  0.36242457  1
  O  O188  1  0.26007949  -0.00622469  0.87228331  1
  O  O189  1  0.24712287  0.50921208  0.36593934  1
  O  O190  1  0.25851704  0.50451890  0.87469859  1
  O  O191  1  0.76672533  -0.00064191  0.36378256  1
  O  O192  1  0.76346656  -0.00271973  0.86052750  1
  O  O193  1  0.75174261  0.51336462  0.38302772  1
  O  O194  1  0.75975491  0.51468813  0.87314626  1
  O  O195  1  0.24567769  0.48825081  0.13021639  1
  O  O196  1  0.24532259  0.49455953  0.63237167  1
  O  O197  1  0.23893439  0.98880920  0.12682809  1
  O  O198  1  0.24660690  0.98106366  0.62815277  1
  O  O199  1  0.74910782  0.50710927  0.11793351  1
  O  O200  1  0.75019753  0.48681495  0.62205342  1
  O  O201  1  0.75925863  0.99355942  0.15073686  1
  O  O202  1  0.74158980  1.00564361  0.63465739  1
  O  O203  1  0.00874676  0.36793172  0.26190128  1
  O  O204  1  0.00019008  0.36299817  0.75907733  1
  O  O205  1  0.01229896  0.88022403  0.25931320  1
  O  O206  1  0.00631112  0.87089047  0.76047515  1
  O  O207  1  0.49307536  0.36919607  0.26446342  1
  O  O208  1  0.50274577  0.36684524  0.75161552  1
  O  O209  1  0.51515913  0.85705548  0.24647684  1
  O  O210  1  0.51173840  0.86913302  0.75762230  1
  O  O211  1  0.50052296  0.14460146  0.25533057  1
  O  O212  1  0.49214083  0.13740260  0.74532412  1
  O  O213  1  0.49001691  0.63224941  0.24297219  1
  O  O214  1  0.50081768  0.61885208  0.73991166  1
  O  O215  1  1.01079281  0.13252577  0.24253951  1
  O  O216  1  1.00324036  0.13745537  0.74331042  1
  O  O217  1  1.01662541  0.63849002  0.23866599  1
  O  O218  1  0.99430303  0.63139604  0.74619177  1
  O  O219  1  0.36066057  0.25598900  -0.01214687  1
  O  O220  1  0.36580492  0.26001277  0.49015524  1
  O  O221  1  0.36344615  0.75653592  -0.00805281  1
  O  O222  1  0.37668034  0.74392228  0.51967223  1
  O  O223  1  0.88047104  0.26321773  0.01383944  1
  O  O224  1  0.86718654  0.26034367  0.49614904  1
  O  O225  1  0.85857950  0.75028028  -0.00998453  1
  O  O226  1  0.87352092  0.75210068  0.50937840  1
  O  O227  1  0.13146374  0.24218798  0.49355018  1
  O  O228  1  0.13097303  0.24368844  0.99618717  1
  O  O229  1  0.11620645  0.73603519  0.49281552  1
  O  O230  1  0.13159946  0.73976360  0.99187723  1
  O  O231  1  0.63180750  0.24676345  0.48907883  1
  O  O232  1  0.61789584  0.23784111  0.98627691  1
  O  O233  1  0.63840864  0.74527223  0.49569293  1
  O  O234  1  0.63224165  0.74219119  0.99159666  1
  O  O235  1  0.49795367  0.25584198  0.14524151  1
  O  O236  1  0.50452445  0.25155990  0.63904023  1
  O  O237  1  0.50583757  0.73760211  0.13329147  1
  O  O238  1  0.49189668  0.73662014  0.62983971  1
  O  O239  1  1.01141287  0.24287240  0.13919408  1
  O  O240  1  0.99324676  0.24536917  0.63635110  1
  O  O241  1  1.01555753  0.74694110  0.13059850  1
  O  O242  1  0.99153559  0.74404713  0.63075128  1
  O  O243  1  0.01148976  0.25773166  0.37405819  1
  O  O244  1  0.00473426  0.25608950  0.87008264  1
  O  O245  1  0.00382812  0.76326586  0.38191572  1
  O  O246  1  0.00520497  0.75977490  0.87136521  1
  O  O247  1  0.50618494  0.25931719  0.36694619  1
  O  O248  1  0.49049032  0.25734462  0.85552770  1
  O  O249  1  0.51462682  0.73648783  0.36383887  1
  O  O250  1  0.51416838  0.74991260  0.87194953  1
  O  O251  1  0.24144280  0.13393344  0.49054075  1
  O  O252  1  0.23596791  0.13319592  0.99360002  1
  O  O253  1  0.23888040  0.61805020  0.48992724  1
  O  O254  1  0.24879521  0.62668061  0.99127129  1
  O  O255  1  0.74319295  0.14306036  0.50094674  1
  O  O256  1  0.76669808  0.15379238  1.03483663  1
  O  O257  1  0.75160316  0.63371780  0.49483974  1
  O  O258  1  0.74357232  0.63465501  0.99224041  1
  O  O259  1  0.25306862  0.36726822  0.00543713  1
  O  O260  1  0.25632430  0.36906777  0.50179412  1
  O  O261  1  0.25188190  0.86343757  0.00707788  1
  O  O262  1  0.22447457  0.85943220  0.52633605  1
  O  O263  1  0.76905380  0.37217860  -0.00141876  1
  O  O264  1  0.75666523  0.36767101  0.50272256  1
  O  O265  1  0.74875850  0.85708096  -0.00695344  1
  O  O266  1  0.76756723  0.85549570  0.49653277  1
  O  O267  1  0.13457429  0.49419797  0.24316355  1
  O  O268  1  0.13134513  0.49397990  0.74598088  1
  O  O269  1  0.11974341  0.99298312  0.23914477  1
  O  O270  1  0.11944867  0.98735600  0.75338120  1
  O  O271  1  0.62040540  0.49246395  0.26138501  1
  O  O272  1  0.62633924  0.48322947  0.74779434  1
  O  O273  1  0.64138528  0.99076059  0.25787564  1
  O  O274  1  0.63377044  0.99275571  0.74232887  1
  O  O275  1  0.36460447  -0.03796992  0.26531892  1
  O  O276  1  0.37714031  -0.00708094  0.76088847  1
  O  O277  1  0.35799260  0.51068245  0.25590064  1
  O  O278  1  0.36909274  0.49899597  0.76100837  1
  O  O279  1  0.86879296  -0.00185203  0.26396363  1
  O  O280  1  0.86778548  -0.00382425  0.75483724  1
  O  O281  1  0.92510801  0.51739325  0.28779516  1
  O  O282  1  0.87158740  0.50281626  0.76170658  1
  O  O283  1  0.12863385  0.36111046  0.37311454  1
  O  O284  1  0.11743425  0.37147376  0.87017523  1
  O  O285  1  0.12000067  0.86902487  0.37003839  1
  O  O286  1  0.11962978  0.87075941  0.87133619  1
  O  O287  1  0.61163986  0.36285997  0.38375914  1
  O  O288  1  0.60942800  0.36835494  0.86450843  1
  O  O289  1  0.62913498  0.85755592  0.36945035  1
  O  O290  1  0.61949909  0.86833951  0.86808704  1
  O  O291  1  0.37625399  0.10950721  0.13401495  1
  O  O292  1  0.37994385  0.11730749  0.61634080  1
  O  O293  1  0.37906901  0.62405689  0.13450205  1
  O  O294  1  0.37996209  0.62969303  0.62893241  1
  O  O295  1  0.88980721  0.13958857  0.12733063  1
  O  O296  1  0.88728093  0.12715469  0.61532180  1
  O  O297  1  0.89099734  0.63446609  0.12418730  1
  O  O298  1  0.88114598  0.62784547  0.63018104  1
  O  O299  1  0.24329098  0.26270775  0.11516907  1
  O  O300  1  0.24178045  0.25815843  0.60886266  1
  O  O301  1  0.23739965  0.75379807  0.11185408  1
  O  O302  1  0.26260325  0.74775312  0.63120249  1
  O  O303  1  0.76517972  0.25873467  0.16059560  1
  O  O304  1  0.75115138  0.26047545  0.61339339  1
  O  O305  1  0.74485104  0.74775550  0.10808875  1
  O  O306  1  0.76462357  0.74224071  0.61894817  1
  O  O307  1  0.24440345  0.24270171  0.38248637  1
  O  O308  1  0.23982202  0.25220601  0.88457253  1
  O  O309  1  0.23548550  0.73482454  0.37995173  1
  O  O310  1  0.24538171  0.73919755  0.88070403  1
  O  O311  1  0.73598614  0.26545813  0.37238187  1
  O  O312  1  0.75999317  0.23897982  0.86176852  1
  O  O313  1  0.75004073  0.73812489  0.38189490  1
  O  O314  1  0.74059206  0.74006892  0.87925883  1
  O  O315  1  0.01004611  0.12319348  0.01168931  1
  O  O316  1  0.00831237  0.12677155  0.50841697  1
  O  O317  1  0.01287959  0.62475783  -0.01042727  1
  O  O318  1  0.00652680  0.61973281  0.50650625  1
  O  O319  1  0.48963435  0.12134716  0.00717015  1
  O  O320  1  0.51426408  0.13656062  0.49751225  1
  O  O321  1  0.50630198  0.62270827  0.00866069  1
  O  O322  1  0.50034901  0.60937887  0.51428372  1
  O  O323  1  0.49130936  0.38212835  0.49412838  1
  O  O324  1  0.48733638  0.37076530  0.98644063  1
  O  O325  1  0.51140782  0.86761102  0.50389095  1
  O  O326  1  0.49234263  0.85990020  0.98849431  1
  O  O327  1  0.99360778  0.37058966  0.49910215  1
  O  O328  1  0.99451118  0.37002731  0.98792382  1
  O  O329  1  0.99134788  0.87744234  0.49422724  1
  O  O330  1  1.00106279  0.88378869  0.98787111  1
  O  O331  1  0.49306283  0.49598869  0.38341391  1
  O  O332  1  0.49471106  0.48837498  0.88256130  1
  O  O333  1  0.50430061  0.99994604  0.37742745  1
  O  O334  1  0.49277845  0.98535229  0.86853623  1
  O  O335  1  1.03058129  0.47712404  0.38937180  1
  O  O336  1  0.99277027  0.48982497  0.86814662  1
  O  O337  1  0.99294166  0.98886489  0.37892227  1
  O  O338  1  0.98880741  0.99562586  0.88016059  1
  O  O339  1  0.00510385  0.01057403  0.12075975  1
  O  O340  1  0.00464179  0.00943769  0.62307189  1
  O  O341  1  0.01288640  0.48951843  0.13432077  1
  O  O342  1  0.00612644  0.50514317  0.62634615  1
  O  O343  1  0.49787955  -0.00352505  0.11779745  1
  O  O344  1  0.51533564  -0.00098167  0.63082679  1
  O  O345  1  0.49403480  0.51479646  0.11805551  1
  O  O346  1  0.49902166  0.50342319  0.61842058  1
  O  O347  1  0.24692575  0.38108559  0.24216565  1
  O  O348  1  0.24407186  0.37857557  0.74525970  1
  O  O349  1  0.23165506  0.86241770  0.23010873  1
  O  O350  1  0.23839954  0.86342433  0.73954559  1
  O  O351  1  0.80912411  0.42213861  0.26809106  1
  O  O352  1  0.74066276  0.37581923  0.73822103  1
  O  O353  1  0.73968871  0.86656466  0.25466104  1
  O  O354  1  0.74276742  0.88370909  0.75418952  1
  O  O355  1  0.24984519  0.13205631  0.26106088  1
  O  O356  1  0.24997531  0.13397169  0.75717488  1
  O  O357  1  0.25202073  0.62056987  0.25488383  1
  O  O358  1  0.25062495  0.61687092  0.76522689  1
  O  O359  1  0.74448927  0.11579257  0.25150613  1
  O  O360  1  0.75501643  0.12189348  0.74407763  1
  O  O361  1  0.74823825  0.61970758  0.26357400  1
  O  O362  1  0.75635283  0.62229110  0.75716419  1
  O  O363  1  0.35832770  0.11761615  0.37947106  1
  O  O364  1  0.37196896  0.10138371  0.87602968  1
  O  O365  1  0.35953170  0.62003547  0.36400034  1
  O  O366  1  0.37146654  0.61139857  0.87811374  1
  O  O367  1  0.88373578  0.10833161  0.38254754  1
  O  O368  1  0.87680801  0.12058495  0.87538049  1
  O  O369  1  0.86001521  0.61690245  0.38278502  1
  O  O370  1  0.87058865  0.61991256  0.86919538  1
  O  O371  1  0.13327762  0.38049381  0.12866362  1
  O  O372  1  0.12965594  0.37980105  0.63167296  1
  O  O373  1  0.12673602  0.88437233  0.12846875  1
  O  O374  1  0.12778050  0.87393385  0.63959905  1
  O  O375  1  0.59077507  0.40160063  0.09018683  1
  O  O376  1  0.63222671  0.37405092  0.62866203  1
  O  O377  1  0.63336949  0.87817046  0.13608367  1
  O  O378  1  0.62794419  0.87978128  0.63793221  1
  O  O379  1  0.12213278  0.25705273  0.25968105  1
  O  O380  1  0.11478294  0.25733266  0.75545093  1
  O  O381  1  0.12460825  0.75976404  0.26857286  1
  O  O382  1  0.11746640  0.75495066  0.75833585  1
  O  O383  1  0.62109066  0.25637663  0.26016855  1
  O  O384  1  0.62070764  0.25894276  0.75290173  1
  O  O385  1  0.62201951  0.75088361  0.25716730  1
  O  O386  1  0.62803053  0.75736578  0.75716114  1
  O  O387  1  0.38294035  0.25332231  0.25789745  1
  O  O388  1  0.38100940  0.25315513  0.74289868  1
  O  O389  1  0.38341828  0.74287810  0.25077661  1
  O  O390  1  0.37990124  0.74138553  0.74030802  1
  O  O391  1  0.89330693  0.25284468  0.26355133  1
  O  O392  1  0.87502010  0.24276083  0.75599204  1
  O  O393  1  0.88502739  0.74459066  0.24900829  1
  O  O394  1  0.87949940  0.74604336  0.74403190  1
  O  O395  1  0.37945573  0.49464408  0.49273319  1
  O  O396  1  0.38550208  0.49000984  0.99562522  1
  O  O397  1  0.32668466  0.97576711  0.47510312  1
  O  O398  1  0.37093694  0.97228558  0.97731565  1
  O  O399  1  0.87682052  0.48577557  0.48594115  1
  O  O400  1  0.87583142  0.49459792  0.98800017  1
  O  O401  1  0.87198090  0.99100313  0.49112573  1
  O  O402  1  0.87389211  0.99808444  0.98917542  1
  O  O403  1  0.11935914  0.00802934  0.00885884  1
  O  O404  1  0.12549655  0.01570508  0.50414894  1
  O  O405  1  0.12605477  0.50519217  0.00756092  1
  O  O406  1  0.12625164  0.50989563  0.51211426  1
  O  O407  1  0.66834797  0.01292192  0.01133554  1
  O  O408  1  0.63439421  0.01315500  0.50723488  1
  O  O409  1  0.61665330  0.51417507  -0.01151091  1
  O  O410  1  0.61371245  0.49944890  0.50263830  1
  O  O411  1  0.36509563  0.37691154  0.10727309  1
  O  O412  1  0.36713187  0.38104833  0.60983782  1
  O  O413  1  0.36254811  0.87404132  0.11259276  1
  O  O414  1  0.35986619  0.86246691  0.63218901  1
  O  O415  1  0.88323739  0.38693391  0.11102199  1
  O  O416  1  0.86850844  0.37209370  0.61759552  1
  O  O417  1  0.87474149  0.87201457  0.12046947  1
  O  O418  1  0.88299591  0.86429981  0.61663538  1
  O  O419  1  0.12485062  0.13639412  0.38221146  1
  O  O420  1  0.12111779  0.13000657  0.88561624  1
  O  O421  1  0.12370822  0.62990377  0.38209480  1
  O  O422  1  0.13480318  0.62556385  0.88075743  1
  O  O423  1  0.62536429  0.14429591  0.37882722  1
  O  O424  1  0.62402565  0.12013270  0.87869143  1
  O  O425  1  0.63842940  0.63450086  0.38047962  1
  O  O426  1  0.63130005  0.63096918  0.87874462  1
