# generated using pymatgen
data_V85Zn86O256
_symmetry_space_group_name_H-M   'P 1'
_cell_length_a   16.92990487
_cell_length_b   16.92302103
_cell_length_c   16.93385750
_cell_angle_alpha   90.01339371
_cell_angle_beta   89.99215285
_cell_angle_gamma   89.95443938
_symmetry_Int_Tables_number   1
_chemical_formula_structural   V85Zn86O256
_chemical_formula_sum   'V85 Zn86 O256'
_cell_volume   4851.63543609
_cell_formula_units_Z   1
loop_
 _symmetry_equiv_pos_site_id
 _symmetry_equiv_pos_as_xyz
  1  'x, y, z'
loop_
 _atom_site_type_symbol
 _atom_site_label
 _atom_site_symmetry_multiplicity
 _atom_site_fract_x
 _atom_site_fract_y
 _atom_site_fract_z
 _atom_site_occupancy
  V  V0  1  0.50355303  0.12409016  0.62521995  1
  V  V1  1  0.50560508  0.62128308  0.61388149  1
  V  V2  1  0.25131147  0.25160020  0.50209485  1
  V  V3  1  0.63086767  0.12573079  0.49391173  1
  V  V4  1  0.75218098  0.37471094  0.62042162  1
  V  V5  1  0.50166118  0.38027978  0.37817198  1
  V  V6  1  0.50400995  0.25133349  0.75499910  1
  V  V7  1  -0.00611569  0.37699923  0.37174732  1
  V  V8  1  0.62426904  0.87944629  0.26150300  1
  V  V9  1  0.00299877  0.23950383  0.74635872  1
  V  V10  1  -0.00171030  0.12723668  0.13840927  1
  V  V11  1  0.87695026  0.50198363  0.87649096  1
  V  V12  1  0.38145538  0.62373158  0.25012442  1
  V  V13  1  0.75240611  0.24776415  0.49039884  1
  V  V14  1  0.12081990  -0.00270529  0.63279794  1
  V  V15  1  0.75523878  0.49931216  0.25197258  1
  V  V16  1  0.49640107  0.75761644  0.25840304  1
  V  V17  1  -0.00220627  0.00156962  0.00115638  1
  V  V18  1  0.62467311  0.37357685  0.74612646  1
  V  V19  1  0.24974014  -0.00108067  0.25252530  1
  V  V20  1  0.37658526  0.74990727  0.62489337  1
  V  V21  1  0.51833667  0.39206571  0.89431636  1
  V  V22  1  0.24977694  0.87587780  0.12283732  1
  V  V23  1  0.62776018  0.77377338  0.87193811  1
  V  V24  1  0.50119979  0.24545591  0.25153057  1
  V  V25  1  0.87037298  0.75689047  0.62493868  1
  V  V26  1  0.36879716  0.36262163  -0.00857014  1
  V  V27  1  0.00318623  0.61862850  0.62799403  1
  V  V28  1  0.50154019  -0.00267071  0.49419381  1
  V  V29  1  0.37692357  0.12345231  0.75149490  1
  V  V30  1  0.87597789  0.62541339  0.25594286  1
  V  V31  1  -0.00263801  0.00344089  0.50640807  1
  V  V32  1  0.62323355  0.50169219  0.60929913  1
  V  V33  1  0.75073451  0.37845916  0.12108262  1
  V  V34  1  0.12361162  0.63179893  -0.00107643  1
  V  V35  1  0.74915316  -0.01369449  0.75277090  1
  V  V36  1  0.12085931  0.24932332  0.37287535  1
  V  V37  1  0.25600074  0.12969186  0.88035344  1
  V  V38  1  0.62229403  0.74875988  0.38436476  1
  V  V39  1  0.12286375  0.74757421  0.37755386  1
  V  V40  1  0.13015165  0.25085893  0.87672837  1
  V  V41  1  0.24496118  0.87521010  0.63008838  1
  V  V42  1  0.75253370  0.01526449  0.25458548  1
  V  V43  1  0.60374667  0.39964849  0.22963364  1
  V  V44  1  0.73650687  0.62530122  0.87695499  1
  V  V45  1  0.25071958  0.12333278  0.37807694  1
  V  V46  1  0.63339630  0.23615832  0.87707390  1
  V  V47  1  0.01334367  0.87409364  0.87439344  1
  V  V48  1  0.37440018  0.74663099  0.12354006  1
  V  V49  1  0.75133116  0.23249092  -0.00548665  1
  V  V50  1  0.38102305  -0.00871655  0.87412727  1
  V  V51  1  0.37836361  0.38192442  0.50133313  1
  V  V52  1  0.12715667  0.37968115  0.74382844  1
  V  V53  1  0.75019304  0.49977708  0.74685241  1
  V  V54  1  0.87978721  0.24606961  0.62187951  1
  V  V55  1  0.50684388  0.75743370  0.75188986  1
  V  V56  1  0.12769843  0.12883442  0.00197164  1
  V  V57  1  0.63333247  -0.01248629  0.62482639  1
  V  V58  1  -0.00589641  0.87602422  0.37715334  1
  V  V59  1  0.36976421  0.24522089  0.12181157  1
  V  V60  1  0.86314279  0.12785647  0.75472900  1
  V  V61  1  0.50509651  -0.01468720  -0.00187376  1
  V  V62  1  0.24632828  0.37077118  0.11640110  1
  V  V63  1  0.50209063  0.12539264  0.11417084  1
  V  V64  1  0.24950660  0.50031403  0.24920775  1
  V  V65  1  0.12351270  0.87430278  0.25147203  1
  V  V66  1  0.38729278  0.52219752  0.90152236  1
  V  V67  1  0.37710508  0.25136912  0.62608997  1
  V  V68  1  0.12203272  0.12638837  0.51027758  1
  V  V69  1  0.37463722  0.12299130  0.25125675  1
  V  V70  1  0.62623755  0.00039941  0.12280684  1
  V  V71  1  0.24593495  0.63425458  0.87176677  1
  V  V72  1  0.00266263  0.37487952  0.87364344  1
  V  V73  1  0.37560497  0.87550572  0.49515316  1
  V  V74  1  0.12617903  0.61772802  0.50293499  1
  V  V75  1  0.74724810  0.62264511  0.38439113  1
  V  V76  1  0.12081085  0.37193916  0.24880805  1
  V  V77  1  0.87637977  0.24511684  0.13602196  1
  V  V78  1  0.87413542  0.74931259  0.12331205  1
  V  V79  1  0.01323770  0.75503048  0.75270376  1
  V  V80  1  0.87226157  0.01622428  0.37281360  1
  V  V81  1  0.87697990  0.62704175  0.75134254  1
  V  V82  1  0.25335792  0.50119993  0.74746481  1
  V  V83  1  0.86777009  0.87124533  -0.00230625  1
  V  V84  1  -0.00526245  0.49964604  0.49740601  1
  Zn  Zn85  1  0.12313656  0.50031159  0.12243705  1
  Zn  Zn86  1  0.12318904  0.00117375  0.12708784  1
  Zn  Zn87  1  0.24490714  -0.00178558  0.75406908  1
  Zn  Zn88  1  0.87324179  0.37872343  0.49455676  1
  Zn  Zn89  1  0.74963819  0.87317589  0.12789366  1
  Zn  Zn90  1  0.74319359  0.75430188  0.50619751  1
  Zn  Zn91  1  0.37769875  0.87121522  -0.00363756  1
  Zn  Zn92  1  0.69811518  0.69806634  0.03661434  1
  Zn  Zn93  1  0.87772761  0.37051589  -0.00124620  1
  Zn  Zn94  1  0.37915918  -0.00478765  0.37372575  1
  Zn  Zn95  1  0.24914656  0.38033988  0.62335952  1
  Zn  Zn96  1  0.24838286  0.75545196  -0.00711484  1
  Zn  Zn97  1  0.87060125  0.00475763  0.87784526  1
  Zn  Zn98  1  0.00045567  0.62193715  0.12641694  1
  Zn  Zn99  1  0.00473034  0.49930186  0.00057684  1
  Zn  Zn100  1  0.62945837  0.25064964  0.36667411  1
  Zn  Zn101  1  0.86754371  0.88056231  0.50426355  1
  Zn  Zn102  1  -0.00075746  0.74914035  0.24881727  1
  Zn  Zn103  1  0.24773482  0.74839448  0.50225207  1
  Zn  Zn104  1  0.37837538  0.62156778  0.74469491  1
  Zn  Zn105  1  0.24947318  0.62369136  0.37527805  1
  Zn  Zn106  1  0.37687243  0.50270950  0.37899685  1
  Zn  Zn107  1  0.18558445  0.18698690  0.18911164  1
  Zn  Zn108  1  0.19154055  0.18747604  0.69017851  1
  Zn  Zn109  1  0.18859286  0.68692316  0.18622357  1
  Zn  Zn110  1  0.18766018  0.68593345  0.68459449  1
  Zn  Zn111  1  0.68326693  0.19188547  0.17936908  1
  Zn  Zn112  1  0.68901331  0.18631838  0.68007440  1
  Zn  Zn113  1  0.68380086  0.68741555  0.20006365  1
  Zn  Zn114  1  0.68613767  0.68605766  0.68915736  1
  Zn  Zn115  1  0.31073569  0.31307139  0.31283678  1
  Zn  Zn116  1  0.31659053  0.31472056  0.81332877  1
  Zn  Zn117  1  0.30820965  0.81053635  0.31458057  1
  Zn  Zn118  1  0.31332177  0.81201234  0.80651989  1
  Zn  Zn119  1  0.80894832  0.31541930  0.30832414  1
  Zn  Zn120  1  0.81369470  0.31225653  0.81162455  1
  Zn  Zn121  1  0.80864690  0.81347754  0.31372442  1
  Zn  Zn122  1  0.81772347  0.81113895  0.81546020  1
  Zn  Zn123  1  0.18668067  0.43818019  0.43649210  1
  Zn  Zn124  1  0.19207889  0.44490581  0.93568528  1
  Zn  Zn125  1  0.18639808  0.93620396  0.44208553  1
  Zn  Zn126  1  0.18966645  0.94437298  0.93982138  1
  Zn  Zn127  1  0.68780227  0.43430321  0.42812462  1
  Zn  Zn128  1  0.69629134  0.42952787  0.93243380  1
  Zn  Zn129  1  0.69289156  0.93576429  0.43842784  1
  Zn  Zn130  1  0.68979055  0.94300254  0.93753574  1
  Zn  Zn131  1  0.31371441  0.05804762  0.06020262  1
  Zn  Zn132  1  0.31183477  0.06100301  0.56507188  1
  Zn  Zn133  1  0.32182972  0.56583742  0.05776449  1
  Zn  Zn134  1  0.31165918  0.56326044  0.56476680  1
  Zn  Zn135  1  0.81468125  0.06016894  0.06813170  1
  Zn  Zn136  1  0.81336344  0.06558070  0.56573726  1
  Zn  Zn137  1  0.81808212  0.55870897  0.06386751  1
  Zn  Zn138  1  0.81500500  0.56512482  0.56274959  1
  Zn  Zn139  1  0.42831554  0.43226844  0.18847996  1
  Zn  Zn140  1  0.43842293  0.43968600  0.69259395  1
  Zn  Zn141  1  0.43834445  0.93510977  0.18678268  1
  Zn  Zn142  1  0.43848697  0.93780461  0.68288017  1
  Zn  Zn143  1  0.93702385  0.43859199  0.18592563  1
  Zn  Zn144  1  0.93882043  0.43552899  0.68706114  1
  Zn  Zn145  1  0.93493025  0.93831339  0.18783144  1
  Zn  Zn146  1  0.93764676  0.93819558  0.69260071  1
  Zn  Zn147  1  0.06384807  0.06046748  0.31837295  1
  Zn  Zn148  1  0.05991705  0.06338272  0.81718230  1
  Zn  Zn149  1  0.06182203  0.55976258  0.31211484  1
  Zn  Zn150  1  0.06613047  0.56356904  0.81367957  1
  Zn  Zn151  1  0.56414508  0.06403573  0.31306931  1
  Zn  Zn152  1  0.56466178  0.05472751  0.81062420  1
  Zn  Zn153  1  0.56124161  0.56572749  0.31441769  1
  Zn  Zn154  1  0.56141492  0.56498594  0.80235420  1
  Zn  Zn155  1  0.43904109  0.18845821  0.43796420  1
  Zn  Zn156  1  0.44445506  0.19084928  0.93694410  1
  Zn  Zn157  1  0.43555563  0.68693251  0.43681596  1
  Zn  Zn158  1  0.43951127  0.68885239  0.93473477  1
  Zn  Zn159  1  0.94144331  0.18916249  0.43807110  1
  Zn  Zn160  1  0.93771140  0.18760811  0.93858501  1
  Zn  Zn161  1  0.93631545  0.68642839  0.43848795  1
  Zn  Zn162  1  0.93947473  0.69033208  0.93600383  1
  Zn  Zn163  1  0.05972027  0.30993880  0.06183653  1
  Zn  Zn164  1  0.06204709  0.31483797  0.56246728  1
  Zn  Zn165  1  0.05972473  0.81110910  0.06265538  1
  Zn  Zn166  1  0.05781797  0.81082005  0.56340264  1
  Zn  Zn167  1  0.56230646  0.42195357  0.06083353  1
  Zn  Zn168  1  0.56342424  0.31078902  0.56077738  1
  Zn  Zn169  1  0.56938276  0.79501768  0.07871366  1
  Zn  Zn170  1  0.55929985  0.81363157  0.56301003  1
  O  O171  1  0.11809160  0.12676246  0.11762825  1
  O  O172  1  0.13102563  0.11970687  0.61494291  1
  O  O173  1  0.12554919  0.62361486  0.11286749  1
  O  O174  1  0.11534172  0.62865878  0.61522085  1
  O  O175  1  0.61389778  0.11201760  0.13084521  1
  O  O176  1  0.61963756  0.11885278  0.61408905  1
  O  O177  1  0.61590543  0.68862089  0.11225859  1
  O  O178  1  0.61544595  0.61702339  0.62506192  1
  O  O179  1  0.38197263  0.37322498  0.38418828  1
  O  O180  1  0.38648896  0.37717525  0.88237324  1
  O  O181  1  0.36730937  0.87511762  0.39073029  1
  O  O182  1  0.37050931  0.88773718  0.87391531  1
  O  O183  1  0.89045473  0.36722458  0.37284664  1
  O  O184  1  0.88533365  0.38318465  0.87071612  1
  O  O185  1  0.88643729  0.88154601  0.37310645  1
  O  O186  1  0.88291424  0.87821212  0.88477396  1
  O  O187  1  0.25033716  0.00535595  0.37093018  1
  O  O188  1  0.26004248  0.01151582  0.87353498  1
  O  O189  1  0.25243643  0.49721076  0.36082475  1
  O  O190  1  0.26309079  0.51364535  0.86980452  1
  O  O191  1  0.75755203  0.00226438  0.36397298  1
  O  O192  1  0.75054633  0.00116999  0.85759706  1
  O  O193  1  0.75014753  0.50943187  0.36732157  1
  O  O194  1  0.75839735  0.50491743  0.86760195  1
  O  O195  1  0.25067610  0.48773401  0.13451259  1
  O  O196  1  0.25406905  0.49865305  0.64136450  1
  O  O197  1  0.24725874  0.99339623  0.13306753  1
  O  O198  1  0.23935381  0.99349625  0.62642121  1
  O  O199  1  0.75445083  0.48917820  0.13156896  1
  O  O200  1  0.74434549  0.49589410  0.62715029  1
  O  O201  1  0.74318640  0.99968035  0.13681775  1
  O  O202  1  0.73946055  1.00332116  0.63155187  1
  O  O203  1  0.01266813  0.38050030  0.25643369  1
  O  O204  1  0.00837025  0.36912667  0.75783653  1
  O  O205  1  0.00711782  0.87694741  0.25858196  1
  O  O206  1  -0.00304309  0.86800096  0.76141537  1
  O  O207  1  0.49553402  0.36086078  0.26074550  1
  O  O208  1  0.51092777  0.37108324  0.75773468  1
  O  O209  1  0.50731901  0.87028300  0.25310736  1
  O  O210  1  0.49786920  0.85658441  0.73940214  1
  O  O211  1  0.49376434  0.12784512  0.24399670  1
  O  O212  1  0.49652576  0.12915786  0.74403155  1
  O  O213  1  0.48726983  0.63305137  0.25293552  1
  O  O214  1  0.49850510  0.63709684  0.73726432  1
  O  O215  1  1.00902834  0.12013251  0.23747431  1
  O  O216  1  0.99581569  0.13673309  0.75075600  1
  O  O217  1  0.98972756  0.62558784  0.25118049  1
  O  O218  1  0.99712219  0.62995067  0.74502474  1
  O  O219  1  0.37139317  0.25163931  0.00774850  1
  O  O220  1  0.36954612  0.25709541  0.50563103  1
  O  O221  1  0.37434470  0.75291654  0.00870019  1
  O  O222  1  0.37490306  0.75706719  0.51009328  1
  O  O223  1  0.86580172  0.25061995  0.00424065  1
  O  O224  1  0.87080823  0.25116817  0.50604095  1
  O  O225  1  0.88039002  0.75957201  0.00756802  1
  O  O226  1  0.87931756  0.74813576  0.51804456  1
  O  O227  1  0.13112278  0.24394399  0.49755154  1
  O  O228  1  0.11848554  0.23671044  0.99219785  1
  O  O229  1  0.12158782  0.73870088  0.49433914  1
  O  O230  1  0.12832576  0.73716864  1.00349429  1
  O  O231  1  0.63514214  0.24303039  0.49921942  1
  O  O232  1  0.64670849  0.25016826  0.98855615  1
  O  O233  1  0.62119881  0.75333834  0.48854688  1
  O  O234  1  0.62180261  0.76444848  0.97494504  1
  O  O235  1  0.48432022  0.23867613  0.13468946  1
  O  O236  1  0.49694687  0.24368985  0.63228979  1
  O  O237  1  0.47832123  0.76262562  0.14297379  1
  O  O238  1  0.49732719  0.74077395  0.62985280  1
  O  O239  1  0.98506484  0.24330959  0.12142527  1
  O  O240  1  0.99243334  0.25682386  0.63418278  1
  O  O241  1  0.98924656  0.74620017  0.12863108  1
  O  O242  1  0.99168569  0.74034705  0.63249056  1
  O  O243  1  0.01459005  0.25832029  0.38173756  1
  O  O244  1  0.00642261  0.25677010  0.86622355  1
  O  O245  1  0.00726470  0.75813349  0.37576899  1
  O  O246  1  -0.00233434  0.76050390  0.86479900  1
  O  O247  1  0.50206124  0.25463773  0.36635086  1
  O  O248  1  0.51416856  0.26144141  0.87380099  1
  O  O249  1  0.50397018  0.74725580  0.36624234  1
  O  O250  1  0.51141011  0.74647763  0.86117214  1
  O  O251  1  0.24455994  0.13063968  0.49669111  1
  O  O252  1  0.24116160  0.11993494  0.99286047  1
  O  O253  1  0.24077336  0.62552265  0.49820125  1
  O  O254  1  0.24226882  0.62887138  0.99062489  1
  O  O255  1  0.74268099  0.13439764  0.50457811  1
  O  O256  1  0.75464748  0.13331613  1.00081244  1
  O  O257  1  0.75557041  0.62929699  0.48763093  1
  O  O258  1  0.75968194  0.62137963  0.98472749  1
  O  O259  1  0.24322048  0.36510132  0.01198250  1
  O  O260  1  0.25607648  0.36868815  0.50191489  1
  O  O261  1  0.25178827  0.87535425  0.00896622  1
  O  O262  1  0.25656367  0.87380629  0.51163274  1
  O  O263  1  0.75720497  0.36905711  0.00763261  1
  O  O264  1  0.75277881  0.36845616  0.50275185  1
  O  O265  1  0.76389305  0.88281175  0.00384812  1
  O  O266  1  0.75635217  0.86723914  0.49715425  1
  O  O267  1  0.13284165  0.49143402  0.24691377  1
  O  O268  1  0.13745395  0.48982824  0.75976815  1
  O  O269  1  0.13304925  0.99291634  0.25098334  1
  O  O270  1  0.12189048  1.00876436  0.73591962  1
  O  O271  1  0.63899735  0.49737873  0.25708649  1
  O  O272  1  0.63192086  0.49019288  0.74169463  1
  O  O273  1  0.63284954  0.99628865  0.24888722  1
  O  O274  1  0.63769131  1.00336568  0.73644529  1
  O  O275  1  0.36787587  0.00419147  0.25282686  1
  O  O276  1  0.37949709  0.00750571  0.75674276  1
  O  O277  1  0.36785869  0.50727083  0.24996231  1
  O  O278  1  0.36486084  0.50077991  0.75740508  1
  O  O279  1  0.86047729  -0.00094643  0.25599890  1
  O  O280  1  0.86273235  0.00941779  0.74542531  1
  O  O281  1  0.86410493  0.50841042  0.24753807  1
  O  O282  1  0.87164283  0.50520028  0.75733246  1
  O  O283  1  0.11983779  0.36753226  0.36836518  1
  O  O284  1  0.12185614  0.37019111  0.86857021  1
  O  O285  1  0.11396497  0.86957880  0.37442629  1
  O  O286  1  0.11303782  0.88231289  0.88080036  1
  O  O287  1  0.61492648  0.37319482  0.35847988  1
  O  O288  1  0.63026801  0.36042034  0.85613489  1
  O  O289  1  0.62614535  0.87010353  0.36732416  1
  O  O290  1  0.63065415  0.87203319  0.86431194  1
  O  O291  1  0.37827675  0.12741280  0.13080919  1
  O  O292  1  0.38248471  0.12954026  0.63093342  1
  O  O293  1  0.36799989  0.63526404  0.13633305  1
  O  O294  1  0.38433458  0.63258885  0.62453303  1
  O  O295  1  0.88352898  0.13590157  0.12331102  1
  O  O296  1  0.87440586  0.13931453  0.63384000  1
  O  O297  1  0.87535298  0.63182008  0.13531304  1
  O  O298  1  0.88340206  0.63029489  0.63384694  1
  O  O299  1  0.26206740  0.25482199  0.13407863  1
  O  O300  1  0.25887939  0.25300655  0.62029144  1
  O  O301  1  0.25858696  0.75933044  0.12576908  1
  O  O302  1  0.25925349  0.75574375  0.62421546  1
  O  O303  1  0.75949810  0.25142510  0.11409779  1
  O  O304  1  0.75799920  0.25666865  0.61402531  1
  O  O305  1  0.76432048  0.75268684  0.12535320  1
  O  O306  1  0.76625252  0.74034176  0.62670265  1
  O  O307  1  0.24084163  0.24559066  0.38251723  1
  O  O308  1  0.24775258  0.23748656  0.87022983  1
  O  O309  1  0.23390077  0.75029868  0.38028531  1
  O  O310  1  0.25326311  0.73940520  0.87177542  1
  O  O311  1  0.74880583  0.25572674  0.38586713  1
  O  O312  1  0.74952974  0.25035492  0.88451385  1
  O  O313  1  0.73921040  0.74138882  0.37457884  1
  O  O314  1  0.73448062  0.74314004  0.86361855  1
  O  O315  1  0.00554755  0.11692553  0.00542209  1
  O  O316  1  0.01074669  0.11683450  0.49809324  1
  O  O317  1  0.01319537  0.62411432  -0.00266543  1
  O  O318  1  0.00437858  0.61807396  0.50670130  1
  O  O319  1  0.49569522  0.11793394  0.01197850  1
  O  O320  1  0.50543387  0.11950940  0.50838882  1
  O  O321  1  0.43153659  0.58314204  -0.01956492  1
  O  O322  1  0.49668534  0.62671062  0.51470785  1
  O  O323  1  0.49163629  0.36650293  0.49014221  1
  O  O324  1  0.48147520  0.36519787  0.99553554  1
  O  O325  1  0.48911170  0.88590769  0.50735564  1
  O  O326  1  0.49988734  0.88392864  1.01060250  1
  O  O327  1  1.00153820  0.38319636  0.49192200  1
  O  O328  1  1.00020572  0.37416709  0.98466256  1
  O  O329  1  0.99480892  0.88399441  0.49320487  1
  O  O330  1  0.99478722  0.88453324  0.99647627  1
  O  O331  1  0.49656591  0.48537564  0.36899195  1
  O  O332  1  0.48541758  0.49302560  0.85696987  1
  O  O333  1  0.49964214  1.00474237  0.39021492  1
  O  O334  1  0.49433064  1.00374823  0.88550820  1
  O  O335  1  1.00487180  0.48921952  0.38434730  1
  O  O336  1  0.99359607  0.49231727  0.87260896  1
  O  O337  1  0.99472615  0.99414492  0.38515138  1
  O  O338  1  0.99620877  0.99502240  0.88504606  1
  O  O339  1  0.00024468  0.00774541  0.11781596  1
  O  O340  1  0.00435743  -0.00526155  0.61450932  1
  O  O341  1  0.00267956  0.50217872  0.11892254  1
  O  O342  1  -0.00189390  0.51147405  0.62094341  1
  O  O343  1  0.50592600  0.00589793  0.11938708  1
  O  O344  1  0.51250337  0.00573723  0.61918904  1
  O  O345  1  0.53365929  0.46138729  0.16090774  1
  O  O346  1  0.50770003  0.51272795  0.63048591  1
  O  O347  1  0.24147794  0.37881974  0.24235143  1
  O  O348  1  0.24392827  0.38214309  0.75226788  1
  O  O349  1  0.24359212  0.88052636  0.24563905  1
  O  O350  1  0.25324849  0.87989128  0.73540709  1
  O  O351  1  0.74214093  0.38405933  0.24248630  1
  O  O352  1  0.74528098  0.37881956  0.74071776  1
  O  O353  1  0.73951002  0.88442760  0.24978154  1
  O  O354  1  0.75914611  0.88814356  0.74780425  1
  O  O355  1  0.25354208  0.11772784  0.25649261  1
  O  O356  1  0.26047222  0.12155006  0.75797378  1
  O  O357  1  0.25644326  0.61584461  0.25144467  1
  O  O358  1  0.24717486  0.61760528  0.75498133  1
  O  O359  1  0.74131067  0.11374859  0.24799784  1
  O  O360  1  0.75961041  0.12136159  0.74413699  1
  O  O361  1  0.75531130  0.61898895  0.25714626  1
  O  O362  1  0.75691877  0.61783004  0.75682992  1
  O  O363  1  0.36817097  0.12336435  0.36974933  1
  O  O364  1  0.37223792  0.12064496  0.87185368  1
  O  O365  1  0.36979363  0.62229443  0.36760083  1
  O  O366  1  0.36457328  0.62691112  0.86090849  1
  O  O367  1  0.88340026  0.11527815  0.37321679  1
  O  O368  1  0.88249051  0.12351088  0.85976827  1
  O  O369  1  0.86564386  0.63324938  0.36309590  1
  O  O370  1  0.87218106  0.61913085  0.86724005  1
  O  O371  1  0.12941698  0.37066338  0.13224430  1
  O  O372  1  0.12740025  0.37122498  0.64004665  1
  O  O373  1  0.13388644  0.87481748  0.13106773  1
  O  O374  1  0.13169282  0.88459272  0.61707834  1
  O  O375  1  0.64235172  0.36386666  0.12918127  1
  O  O376  1  0.62935156  0.37864777  0.63119633  1
  O  O377  1  0.62566291  0.88636542  0.13835693  1
  O  O378  1  0.62487828  0.88917859  0.62146827  1
  O  O379  1  0.13016014  0.25823512  0.26158265  1
  O  O380  1  0.11958421  0.25445111  0.75597354  1
  O  O381  1  0.12289502  0.75551356  0.25903469  1
  O  O382  1  0.11229530  0.74935130  0.74357307  1
  O  O383  1  0.61005170  0.25617109  0.24452237  1
  O  O384  1  0.62280763  0.25467579  0.75025219  1
  O  O385  1  0.61452045  0.76159297  0.26331996  1
  O  O386  1  0.61494434  0.74879217  0.75558814  1
  O  O387  1  0.38064038  0.24276732  0.24602697  1
  O  O388  1  0.38467296  0.24443394  0.74727114  1
  O  O389  1  0.37752993  0.74387972  0.25013728  1
  O  O390  1  0.38490710  0.74947997  0.73717417  1
  O  O391  1  0.86746318  0.24866063  0.23466912  1
  O  O392  1  0.88191271  0.24511239  0.74372773  1
  O  O393  1  0.87566165  0.74372464  0.24369159  1
  O  O394  1  0.88233520  0.74363165  0.74209014  1
  O  O395  1  0.36978168  0.48565021  0.50021405  1
  O  O396  1  0.34588699  0.47094986  0.99369083  1
  O  O397  1  0.38415394  0.99390078  0.50212153  1
  O  O398  1  0.38531320  0.99663933  0.99152266  1
  O  O399  1  0.88949273  0.49829749  0.50377767  1
  O  O400  1  0.87959748  0.49616636  0.98530359  1
  O  O401  1  0.88156407  1.00307239  0.49444609  1
  O  O402  1  0.88304178  0.99485773  1.00015830  1
  O  O403  1  0.11660078  0.01211355  0.00328990  1
  O  O404  1  0.11756625  0.00800903  0.50817371  1
  O  O405  1  0.12652413  0.51290374  0.00124476  1
  O  O406  1  0.11628857  0.51068183  0.49669615  1
  O  O407  1  0.61978547  -0.00340435  0.01091736  1
  O  O408  1  0.62198807  0.00546833  0.50778602  1
  O  O409  1  0.58936254  0.45623572  -0.04181605  1
  O  O410  1  0.62693473  0.48997629  0.51080417  1
  O  O411  1  0.36583678  0.36352234  0.11736812  1
  O  O412  1  0.37820999  0.36886523  0.61880645  1
  O  O413  1  0.36108119  0.87117797  0.12606920  1
  O  O414  1  0.36812512  0.86941324  0.61678304  1
  O  O415  1  0.86846654  0.36283683  0.12427188  1
  O  O416  1  0.87006387  0.36502577  0.62331651  1
  O  O417  1  0.87545248  0.86774046  0.11788940  1
  O  O418  1  0.88186137  0.85927349  0.62659139  1
  O  O419  1  0.12998468  0.13172228  0.38569253  1
  O  O420  1  0.13441462  0.12904810  0.88136128  1
  O  O421  1  0.12408940  0.63224843  0.38183759  1
  O  O422  1  0.13304919  0.62307543  0.88640781  1
  O  O423  1  0.62013185  0.12946932  0.38964214  1
  O  O424  1  0.62130703  0.13754680  0.86732072  1
  O  O425  1  0.63374561  0.63555428  0.37036665  1
  O  O426  1  0.63443387  0.62193633  0.87180833  1
