# generated using pymatgen
data_V85Zn86O256
_symmetry_space_group_name_H-M   'P 1'
_cell_length_a   16.94163964
_cell_length_b   16.93812538
_cell_length_c   16.94513104
_cell_angle_alpha   90.02331539
_cell_angle_beta   90.05805270
_cell_angle_gamma   89.99741673
_symmetry_Int_Tables_number   1
_chemical_formula_structural   V85Zn86O256
_chemical_formula_sum   'V85 Zn86 O256'
_cell_volume   4862.56539618
_cell_formula_units_Z   1
loop_
 _symmetry_equiv_pos_site_id
 _symmetry_equiv_pos_as_xyz
  1  'x, y, z'
loop_
 _atom_site_type_symbol
 _atom_site_label
 _atom_site_symmetry_multiplicity
 _atom_site_fract_x
 _atom_site_fract_y
 _atom_site_fract_z
 _atom_site_occupancy
  V  V0  1  -0.00173960  0.38852041  0.37813026  1
  V  V1  1  0.62572677  0.49840397  0.13662655  1
  V  V2  1  0.75550059  0.25137431  0.49722920  1
  V  V3  1  0.87855461  0.39199596  0.49607682  1
  V  V4  1  0.75074989  0.62633378  0.87834189  1
  V  V5  1  0.62767642  0.12677915  0.49690383  1
  V  V6  1  0.24489239  0.12420711  0.88021879  1
  V  V7  1  0.79712094  -0.05997378  0.19110569  1
  V  V8  1  0.00419790  0.37271852  0.86505412  1
  V  V9  1  0.37780453  0.87664106  0.50213066  1
  V  V10  1  0.61389056  0.86802534  0.24261965  1
  V  V11  1  0.13358296  0.00080479  0.11548907  1
  V  V12  1  0.25340454  0.60342462  0.36464292  1
  V  V13  1  0.87955083  0.61526513  0.24153903  1
  V  V14  1  0.25149884  -0.00405293  0.24591213  1
  V  V15  1  0.24936606  0.75806647  0.01049212  1
  V  V16  1  0.12417368  0.24885410  0.37941932  1
  V  V17  1  0.75034759  0.37403737  0.62360501  1
  V  V18  1  0.87259520  -0.00250976  0.37631299  1
  V  V19  1  -0.00483071  -0.00169397  -0.00027872  1
  V  V20  1  -0.00119672  0.74599142  0.24258013  1
  V  V21  1  0.87515773  0.25048774  0.11764353  1
  V  V22  1  0.12267010  0.25108639  0.86380395  1
  V  V23  1  0.62425225  0.00068756  0.62457936  1
  V  V24  1  0.00400697  -0.00422114  0.50936014  1
  V  V25  1  0.62161927  0.37611069  0.75381786  1
  V  V26  1  0.47772633  0.49563949  0.50018433  1
  V  V27  1  0.50128552  0.49183025  -0.00124552  1
  V  V28  1  0.13206108  0.37648658  0.24963379  1
  V  V29  1  0.24540594  0.38281213  0.62184678  1
  V  V30  1  0.00309766  0.24850268  0.25047535  1
  V  V31  1  0.49789989  0.25688240  0.75423925  1
  V  V32  1  0.25989933  0.37305667  0.12626464  1
  V  V33  1  0.62022892  0.87728514  0.75296499  1
  V  V34  1  -0.01043383  0.87449901  0.87977881  1
  V  V35  1  0.62129327  0.75742494  0.87821683  1
  V  V36  1  0.74948797  0.00260832  0.75076394  1
  V  V37  1  0.74534614  0.36858527  0.12632478  1
  V  V38  1  0.62315192  0.25802547  0.88059676  1
  V  V39  1  0.75112236  0.13316151  0.87666893  1
  V  V40  1  0.38131144  -0.00514240  0.87186068  1
  V  V41  1  0.74606401  0.49984776  0.75405055  1
  V  V42  1  0.12254366  0.62686624  0.00650796  1
  V  V43  1  0.49187355  0.12916809  0.12355526  1
  V  V44  1  0.87937023  0.13045969  0.74923061  1
  V  V45  1  0.50135457  0.00263580  0.49824573  1
  V  V46  1  0.62091714  0.49969915  0.62410364  1
  V  V47  1  0.13121896  0.87092261  0.24778077  1
  V  V48  1  0.62395305  0.62393661  0.00294666  1
  V  V49  1  0.24152524  0.00157603  0.74499001  1
  V  V50  1  0.37854035  0.00106342  0.37118961  1
  V  V51  1  0.25875013  0.25341847  0.50098699  1
  V  V52  1  0.00238698  0.13345893  0.62703326  1
  V  V53  1  0.62161801  0.62363311  0.49685230  1
  V  V54  1  0.87674678  0.62633296  0.74508997  1
  V  V55  1  0.75669205  0.76541651  0.00430118  1
  V  V56  1  0.74924031  0.87140294  0.62395347  1
  V  V57  1  0.62452881  0.00069993  0.12808078  1
  V  V58  1  0.12746560  0.11928325  0.50539820  1
  V  V59  1  0.50010790  0.26080318  0.24545829  1
  V  V60  1  0.50019033  0.12951508  0.62391132  1
  V  V61  1  0.62806743  0.13061531  0.00227217  1
  V  V62  1  0.24997589  0.12340786  0.37467027  1
  V  V63  1  0.37990504  0.49072007  0.87516062  1
  V  V64  1  0.25340633  0.74231118  0.48786612  1
  V  V65  1  -0.00173650  0.75018317  0.74681061  1
  V  V66  1  0.00104746  0.87441108  0.37643953  1
  V  V67  1  0.38341701  0.61833369  0.25063545  1
  V  V68  1  0.12518976  0.75324808  0.87695860  1
  V  V69  1  0.38171969  0.87335056  0.00225286  1
  V  V70  1  0.37457281  0.62226719  0.75403178  1
  V  V71  1  0.00991824  0.12820128  0.11883688  1
  V  V72  1  0.23348212  0.49580854  0.75361899  1
  V  V73  1  0.37345044  0.12661229  0.74986017  1
  V  V74  1  0.87566805  0.49796394  0.87917523  1
  V  V75  1  0.49326981  0.37731838  0.38000772  1
  V  V76  1  0.13082885  0.50241940  0.12925702  1
  V  V77  1  0.74936645  0.12305351  0.36824469  1
  V  V78  1  0.75768938  0.61770007  0.37605313  1
  V  V79  1  0.23916796  0.87685122  0.62325092  1
  V  V80  1  0.49622361  0.75562305  0.75728128  1
  V  V81  1  0.00189940  0.49888177  0.00555576  1
  V  V82  1  0.87500533  0.12442751  0.24785748  1
  V  V83  1  0.24804860  0.24836828  0.00352113  1
  V  V84  1  0.37391163  0.74938288  0.62860662  1
  Zn  Zn85  1  0.62946485  0.26172499  0.36769194  1
  Zn  Zn86  1  0.25209584  0.62564002  0.87977110  1
  Zn  Zn87  1  0.11923114  0.87878769  0.74585830  1
  Zn  Zn88  1  0.87594128  0.36996942  -0.00038559  1
  Zn  Zn89  1  0.37965936  0.36599651  0.00031438  1
  Zn  Zn90  1  0.87673633  0.74789940  0.61879500  1
  Zn  Zn91  1  0.74601027  0.75176345  0.49505841  1
  Zn  Zn92  1  0.87441808  0.75384944  0.12232566  1
  Zn  Zn93  1  0.61787511  0.74087841  0.36124850  1
  Zn  Zn94  1  0.49681259  0.62413020  0.62518181  1
  Zn  Zn95  1  0.38189114  0.75532809  0.13514670  1
  Zn  Zn96  1  0.75305869  0.49152385  0.25505435  1
  Zn  Zn97  1  0.37438726  0.12896676  0.24348721  1
  Zn  Zn98  1  0.87153898  -0.00037694  0.87887227  1
  Zn  Zn99  1  0.49987751  0.86821117  0.36935071  1
  Zn  Zn100  1  0.50335349  0.63056979  0.13303300  1
  Zn  Zn101  1  0.03282185  0.57249115  0.56075584  1
  Zn  Zn102  1  0.88140065  0.25492077  0.62685846  1
  Zn  Zn103  1  0.50425298  -0.00119363  -0.00682715  1
  Zn  Zn104  1  0.87238057  0.87298811  0.50118345  1
  Zn  Zn105  1  0.37767184  0.25637092  0.62107438  1
  Zn  Zn106  1  0.11696476  0.73738555  0.37994087  1
  Zn  Zn107  1  0.19135594  0.18742723  0.18791884  1
  Zn  Zn108  1  0.18649914  0.19111476  0.68353842  1
  Zn  Zn109  1  0.19383364  0.68544185  0.19084334  1
  Zn  Zn110  1  0.19077947  0.68872396  0.69502196  1
  Zn  Zn111  1  0.68514330  0.19075444  0.18887849  1
  Zn  Zn112  1  0.68807249  0.19051140  0.68749057  1
  Zn  Zn113  1  0.69462526  0.68619671  0.18596452  1
  Zn  Zn114  1  0.68394051  0.68704951  0.68952947  1
  Zn  Zn115  1  0.31689783  0.31233149  0.31145404  1
  Zn  Zn116  1  0.30893387  0.31383957  0.81134335  1
  Zn  Zn117  1  0.32171549  0.81329048  0.30756522  1
  Zn  Zn118  1  0.30775033  0.81598731  0.81629352  1
  Zn  Zn119  1  0.81709037  0.31256488  0.30990970  1
  Zn  Zn120  1  0.81387608  0.31256243  0.81316086  1
  Zn  Zn121  1  0.81269404  0.80072211  0.31723199  1
  Zn  Zn122  1  0.81007401  0.81302308  0.81235677  1
  Zn  Zn123  1  0.18709464  0.43522285  0.43839674  1
  Zn  Zn124  1  0.18881402  0.43469609  0.93795029  1
  Zn  Zn125  1  0.18831278  0.93310567  0.43533195  1
  Zn  Zn126  1  0.18912243  0.93526802  0.93507417  1
  Zn  Zn127  1  0.68271015  0.43756787  0.43541166  1
  Zn  Zn128  1  0.69070172  0.43494621  0.94608710  1
  Zn  Zn129  1  0.68553154  0.93624440  0.43130133  1
  Zn  Zn130  1  0.68703410  0.94238331  0.93791598  1
  Zn  Zn131  1  0.31294302  0.05954874  0.05699560  1
  Zn  Zn132  1  0.31369688  0.06323846  0.56420385  1
  Zn  Zn133  1  0.31225499  0.56361344  0.06554617  1
  Zn  Zn134  1  0.19953496  0.56747209  0.56276310  1
  Zn  Zn135  1  0.81575609  0.07188857  0.05634139  1
  Zn  Zn136  1  0.81463325  0.06065421  0.56172116  1
  Zn  Zn137  1  0.81043130  0.55912213  0.06511895  1
  Zn  Zn138  1  0.80798025  0.56255935  0.56400259  1
  Zn  Zn139  1  0.43887536  0.44364039  0.18943280  1
  Zn  Zn140  1  0.43082501  0.43638345  0.68349734  1
  Zn  Zn141  1  0.43858272  0.94124448  0.18020679  1
  Zn  Zn142  1  0.43521104  0.93862188  0.68748228  1
  Zn  Zn143  1  0.94304144  0.43414706  0.18677096  1
  Zn  Zn144  1  0.93136502  0.43916476  0.68983917  1
  Zn  Zn145  1  0.95865741  0.93770897  0.18693463  1
  Zn  Zn146  1  0.93441856  0.93821841  0.69057278  1
  Zn  Zn147  1  0.06401476  0.06051192  0.31109594  1
  Zn  Zn148  1  0.06312168  0.06487705  0.81469545  1
  Zn  Zn149  1  0.06718948  0.56424612  0.31369371  1
  Zn  Zn150  1  0.05851730  0.56788754  0.81903652  1
  Zn  Zn151  1  0.56407622  0.06283025  0.30663076  1
  Zn  Zn152  1  0.56298453  0.06965270  0.81211488  1
  Zn  Zn153  1  0.55710023  0.55778565  0.31796220  1
  Zn  Zn154  1  0.55880640  0.56656290  0.81596790  1
  Zn  Zn155  1  0.43985877  0.18914768  0.42975810  1
  Zn  Zn156  1  0.43588723  0.18686955  0.93649465  1
  Zn  Zn157  1  0.43755467  0.68408913  0.43163318  1
  Zn  Zn158  1  0.44035292  0.68786044  0.94579452  1
  Zn  Zn159  1  0.93971113  0.18858533  0.44006363  1
  Zn  Zn160  1  0.94373157  0.18512790  0.93700437  1
  Zn  Zn161  1  0.93070859  0.69144031  0.43488733  1
  Zn  Zn162  1  0.93814187  0.68568485  0.93902856  1
  Zn  Zn163  1  0.06893265  0.31371428  0.05631270  1
  Zn  Zn164  1  0.06606205  0.41129815  0.56984461  1
  Zn  Zn165  1  0.06311644  0.81688337  0.06453030  1
  Zn  Zn166  1  0.07351599  0.73301127  0.56552506  1
  Zn  Zn167  1  0.56353346  0.31241300  0.06539487  1
  Zn  Zn168  1  0.56384112  0.31401881  0.55804679  1
  Zn  Zn169  1  0.56119647  0.81383289  0.06264530  1
  Zn  Zn170  1  0.56025102  0.81001937  0.56141149  1
  O  O171  1  0.11897323  0.11532931  0.13136078  1
  O  O172  1  0.12056754  0.12520935  0.61258997  1
  O  O173  1  0.13003304  0.61533624  0.12008416  1
  O  O174  1  0.12817363  0.64142930  0.61544179  1
  O  O175  1  0.62164884  0.12070176  0.11799121  1
  O  O176  1  0.62130722  0.12068040  0.61797540  1
  O  O177  1  0.62879316  0.61669419  0.11750790  1
  O  O178  1  0.62184727  0.61246388  0.62399704  1
  O  O179  1  0.39168055  0.37012291  0.37427521  1
  O  O180  1  0.37141507  0.38778415  0.87694989  1
  O  O181  1  0.37779159  0.88635277  0.38238544  1
  O  O182  1  0.37027479  0.88715971  0.88178330  1
  O  O183  1  0.88673616  0.36941233  0.38291797  1
  O  O184  1  0.87979138  0.37997925  0.88016661  1
  O  O185  1  0.88089733  0.88159072  0.37207177  1
  O  O186  1  0.88535707  0.87878722  0.87173874  1
  O  O187  1  0.25784914  0.00392757  0.36767184  1
  O  O188  1  0.25533623  0.00786666  0.86806134  1
  O  O189  1  0.25222421  0.50551165  0.37510594  1
  O  O190  1  0.25617743  0.50184869  0.86667552  1
  O  O191  1  0.76400282  0.00768988  0.37982635  1
  O  O192  1  0.74891827  0.01386683  0.86967989  1
  O  O193  1  0.74504839  0.51245767  0.37149254  1
  O  O194  1  0.75261776  0.50691537  0.87335386  1
  O  O195  1  0.23743796  0.48886442  0.11732109  1
  O  O196  1  0.24847620  0.49229843  0.63974682  1
  O  O197  1  0.24430401  1.00601253  0.13260843  1
  O  O198  1  0.25589420  0.99110280  0.63367698  1
  O  O199  1  0.74296945  0.48999488  0.12942958  1
  O  O200  1  0.74032397  0.49496620  0.63415719  1
  O  O201  1  0.74701044  1.00224547  0.12444663  1
  O  O202  1  0.74328498  0.99300918  0.62983801  1
  O  O203  1  0.01107318  0.36668207  0.25639674  1
  O  O204  1  -0.00925819  0.37567881  0.76637734  1
  O  O205  1  0.00993424  0.86915883  0.25921581  1
  O  O206  1  0.00065369  0.87140869  0.76097532  1
  O  O207  1  0.49828061  0.36603401  0.25410944  1
  O  O208  1  0.50452369  0.36373683  0.74435617  1
  O  O209  1  0.51040689  0.87676393  0.24599099  1
  O  O210  1  0.50316774  0.86380285  0.74721469  1
  O  O211  1  0.49800387  0.13028279  0.23874590  1
  O  O212  1  0.49636237  0.13720635  0.74302278  1
  O  O213  1  0.48997025  0.62434671  0.25268207  1
  O  O214  1  0.49397534  0.63850256  0.74946176  1
  O  O215  1  0.99604474  0.12685542  0.23919490  1
  O  O216  1  0.99122758  0.11445715  0.73986746  1
  O  O217  1  0.98793358  0.63182281  0.25744391  1
  O  O218  1  0.98737562  0.63551611  0.75911410  1
  O  O219  1  0.35761907  0.25131287  -0.01112705  1
  O  O220  1  0.36168932  0.24044923  0.49756921  1
  O  O221  1  0.36528752  0.76308854  -0.00906220  1
  O  O222  1  0.36959772  0.75711357  0.50835524  1
  O  O223  1  0.88080896  0.24565278  0.01417223  1
  O  O224  1  0.86379070  0.25120950  0.50175467  1
  O  O225  1  0.86140706  0.74569932  0.00099847  1
  O  O226  1  0.86351880  0.75568947  0.50279630  1
  O  O227  1  0.13756194  0.23686486  0.48607960  1
  O  O228  1  0.14041396  0.25131536  0.98919160  1
  O  O229  1  0.15179699  0.76917538  0.49039873  1
  O  O230  1  0.12969949  0.74687338  0.99899216  1
  O  O231  1  0.63870630  0.24412591  0.49702114  1
  O  O232  1  0.62160704  0.24408030  0.99200353  1
  O  O233  1  0.62691717  0.73030429  0.51197780  1
  O  O234  1  0.63576957  0.74457601  0.99372040  1
  O  O235  1  0.50241362  0.24508713  0.13535253  1
  O  O236  1  0.49984763  0.24540103  0.63005625  1
  O  O237  1  0.49017467  0.73812148  0.09935975  1
  O  O238  1  0.48732735  0.75015668  0.63275129  1
  O  O239  1  0.99951162  0.24397952  0.12796666  1
  O  O240  1  0.99864613  0.23238843  0.62050211  1
  O  O241  1  0.99482192  0.75937507  0.13799384  1
  O  O242  1  0.99423529  0.76308919  0.64393941  1
  O  O243  1  0.00986178  0.25038433  0.37018590  1
  O  O244  1  0.01460952  0.25578260  0.88115523  1
  O  O245  1  0.00039435  0.76025347  0.36116495  1
  O  O246  1  0.00375930  0.75772077  0.87154564  1
  O  O247  1  0.50551829  0.25730544  0.36656841  1
  O  O248  1  0.51052439  0.24469860  0.86566370  1
  O  O249  1  0.50981677  0.75715828  0.39031623  1
  O  O250  1  0.51044396  0.74655072  0.87020714  1
  O  O251  1  0.24333571  0.12638924  0.49478417  1
  O  O252  1  0.25274207  0.12895440  0.98681235  1
  O  O253  1  0.25679298  0.63759577  0.48595864  1
  O  O254  1  0.23898586  0.63253146  0.99876336  1
  O  O255  1  0.74962285  0.13097209  0.48989760  1
  O  O256  1  0.73834947  0.12520098  0.99144066  1
  O  O257  1  0.74318796  0.62326481  0.48945918  1
  O  O258  1  0.74139029  0.62549529  0.99143753  1
  O  O259  1  0.25230204  0.36725791  0.00941426  1
  O  O260  1  0.24858162  0.36630651  0.51083393  1
  O  O261  1  0.26043812  0.86800045  -0.00445053  1
  O  O262  1  0.26431984  0.87471468  0.50505196  1
  O  O263  1  0.75875407  0.37801686  0.01943714  1
  O  O264  1  0.75669259  0.36870233  0.50098339  1
  O  O265  1  0.75086333  0.86375687  -0.00576552  1
  O  O266  1  0.74441391  0.87452893  0.50971636  1
  O  O267  1  0.12046114  0.48876043  0.24048008  1
  O  O268  1  0.13568458  0.50627228  0.75923409  1
  O  O269  1  0.13380615  0.99395588  0.24271759  1
  O  O270  1  0.13789714  0.99821700  0.75459094  1
  O  O271  1  0.62490362  0.50464123  0.23878186  1
  O  O272  1  0.62510483  0.49549705  0.74646587  1
  O  O273  1  0.62669155  0.99262282  0.23524070  1
  O  O274  1  0.62887019  0.99811372  0.74575338  1
  O  O275  1  0.36957637  -0.00015817  0.25495462  1
  O  O276  1  0.36678626  0.00549991  0.75568369  1
  O  O277  1  0.37592300  0.51649042  0.24958579  1
  O  O278  1  0.37499471  0.50825735  0.75829485  1
  O  O279  1  0.86796402  -0.00118962  0.24959254  1
  O  O280  1  0.86517037  0.01072299  0.75372620  1
  O  O281  1  0.87889046  0.51193156  0.24560822  1
  O  O282  1  0.86545270  0.50803286  0.75937153  1
  O  O283  1  0.12059692  0.36558351  0.36893660  1
  O  O284  1  0.11935528  0.36227445  0.87690857  1
  O  O285  1  0.11843261  0.87584608  0.36200406  1
  O  O286  1  0.11569554  0.86498765  0.87513532  1
  O  O287  1  0.60729661  0.37502808  0.38007594  1
  O  O288  1  0.63206458  0.36428730  0.87358525  1
  O  O289  1  0.62354485  0.87897794  0.35300907  1
  O  O290  1  0.62928858  0.86528427  0.87009295  1
  O  O291  1  0.38883967  0.12010414  0.12031288  1
  O  O292  1  0.38268056  0.12839393  0.63260059  1
  O  O293  1  0.37531322  0.62511029  0.13818272  1
  O  O294  1  0.37601451  0.63682891  0.64369621  1
  O  O295  1  0.88326318  0.13074637  0.13072527  1
  O  O296  1  0.88303695  0.12348508  0.63190503  1
  O  O297  1  0.87107394  0.62712101  0.13904916  1
  O  O298  1  0.86376899  0.62771881  0.64098574  1
  O  O299  1  0.24638706  0.25768559  0.11633386  1
  O  O300  1  0.25444860  0.25362758  0.61533046  1
  O  O301  1  0.25355874  0.74920111  0.11267344  1
  O  O302  1  0.26176946  0.75672030  0.61796248  1
  O  O303  1  0.75866848  0.25894683  0.12931210  1
  O  O304  1  0.75046906  0.25728990  0.61573160  1
  O  O305  1  0.75185731  0.74997339  0.10778322  1
  O  O306  1  0.74712458  0.76417525  0.63151383  1
  O  O307  1  0.24507006  0.24353228  0.37845649  1
  O  O308  1  0.24068623  0.24370502  0.87694453  1
  O  O309  1  0.25774490  0.75428086  0.38593385  1
  O  O310  1  0.23895416  0.74945085  0.88238089  1
  O  O311  1  0.75017658  0.24280913  0.37964422  1
  O  O312  1  0.74117828  0.23967711  0.86965002  1
  O  O313  1  0.73836566  0.73397468  0.37468360  1
  O  O314  1  0.74413228  0.74364396  0.88324454  1
  O  O315  1  0.00246510  0.11772742  0.01191063  1
  O  O316  1  0.00783980  0.11588350  0.50469353  1
  O  O317  1  0.01366942  0.61754328  -0.00340399  1
  O  O318  1  0.01651126  0.65923540  0.49593013  1
  O  O319  1  0.51129500  0.12605203  0.00525461  1
  O  O320  1  0.50671396  0.12239651  0.50317089  1
  O  O321  1  0.51616830  0.61430080  -0.00503108  1
  O  O322  1  0.50439832  0.61163920  0.50338166  1
  O  O323  1  0.49771826  0.38659806  0.49763290  1
  O  O324  1  0.49802967  0.38687015  1.00548849  1
  O  O325  1  0.48950610  0.88424248  0.50504119  1
  O  O326  1  0.48614086  0.87859428  0.99436577  1
  O  O327  1  0.98965907  0.36932099  0.48953272  1
  O  O328  1  0.99917348  0.38343076  0.99221438  1
  O  O329  1  1.00023256  0.88248687  0.48350993  1
  O  O330  1  1.00204584  0.88454175  0.99333838  1
  O  O331  1  0.49822146  0.49294086  0.39227520  1
  O  O332  1  0.49222062  0.50222173  0.88370126  1
  O  O333  1  0.49346285  0.99843949  0.37849647  1
  O  O334  1  0.48612789  1.00982492  0.87325978  1
  O  O335  1  1.00540902  0.48745078  0.37238250  1
  O  O336  1  0.99703596  0.49282888  0.88500622  1
  O  O337  1  0.98928508  0.99560995  0.37618876  1
  O  O338  1  1.00179023  0.99334513  0.88427391  1
  O  O339  1  0.01087293  0.00844338  0.11749888  1
  O  O340  1  -0.00328175  0.00156120  0.61161412  1
  O  O341  1  0.01302058  0.49180356  0.11239821  1
  O  O342  1  0.00201057  0.48961425  0.62316305  1
  O  O343  1  0.50942453  0.01076938  0.11916170  1
  O  O344  1  0.50474591  0.00917391  0.62066016  1
  O  O345  1  0.50968501  0.50522594  0.11725971  1
  O  O346  1  0.50452916  0.49900266  0.61699301  1
  O  O347  1  0.23923860  0.36600176  0.24353491  1
  O  O348  1  0.25018917  0.39115676  0.74723155  1
  O  O349  1  0.24565494  0.88688037  0.25461282  1
  O  O350  1  0.24877256  0.88372125  0.74131263  1
  O  O351  1  0.75810550  0.37613111  0.23466191  1
  O  O352  1  0.74284252  0.38039091  0.74545265  1
  O  O353  1  0.74406975  0.87649976  0.25053928  1
  O  O354  1  0.74193360  0.88345944  0.74582594  1
  O  O355  1  0.25368294  0.11479481  0.25636210  1
  O  O356  1  0.25405817  0.11918472  0.75479763  1
  O  O357  1  0.25855925  0.62065684  0.26028027  1
  O  O358  1  0.25717931  0.61377587  0.75516696  1
  O  O359  1  0.75647556  0.13004710  0.26120324  1
  O  O360  1  0.75373899  0.12049247  0.75574332  1
  O  O361  1  0.76183386  0.62092439  0.25718878  1
  O  O362  1  0.75179198  0.62211029  0.76298311  1
  O  O363  1  0.37049971  0.11215897  0.37391344  1
  O  O364  1  0.36552416  0.11736592  0.86787245  1
  O  O365  1  0.36327331  0.62626497  0.36538147  1
  O  O366  1  0.37476634  0.62114411  0.86711779  1
  O  O367  1  0.87268134  0.11684744  0.36746271  1
  O  O368  1  0.86827440  0.12607441  0.86946857  1
  O  O369  1  0.86213898  0.62761537  0.36548124  1
  O  O370  1  0.86643776  0.61961415  0.86998077  1
  O  O371  1  0.13248431  0.37898106  0.13319719  1
  O  O372  1  0.14693939  0.36008094  0.63256418  1
  O  O373  1  0.12085128  0.88591173  0.13940819  1
  O  O374  1  0.13983149  0.86597663  0.62580431  1
  O  O375  1  0.63787379  0.38079903  0.12259248  1
  O  O376  1  0.62928748  0.38486935  0.62932077  1
  O  O377  1  0.62383081  0.88409408  0.13204963  1
  O  O378  1  0.62778366  0.88143665  0.63222564  1
  O  O379  1  0.12251921  0.25308592  0.26026146  1
  O  O380  1  0.12767014  0.24691301  0.76471788  1
  O  O381  1  0.12064156  0.75610737  0.25059290  1
  O  O382  1  0.11665699  0.75218225  0.76144707  1
  O  O383  1  0.60696277  0.24354298  0.25284721  1
  O  O384  1  0.61831332  0.25644809  0.75722688  1
  O  O385  1  0.62831347  0.76454903  0.24129507  1
  O  O386  1  0.61607106  0.75464388  0.75891231  1
  O  O387  1  0.39323613  0.24407692  0.25463488  1
  O  O388  1  0.38269061  0.24427550  0.75332926  1
  O  O389  1  0.36946068  0.73399856  0.24717762  1
  O  O390  1  0.37853225  0.74844832  0.74905077  1
  O  O391  1  0.88544050  0.24351857  0.24007702  1
  O  O392  1  0.86906085  0.23517306  0.74635446  1
  O  O393  1  0.88154535  0.74009521  0.24576169  1
  O  O394  1  0.88023609  0.74216884  0.75318767  1
  O  O395  1  0.38350934  0.50316188  0.50886785  1
  O  O396  1  0.38437691  0.50280603  0.99207622  1
  O  O397  1  0.38037409  0.99500374  0.49303338  1
  O  O398  1  0.37628015  0.98946170  0.99022260  1
  O  O399  1  0.87105396  0.49156112  0.50050663  1
  O  O400  1  0.88566553  0.50316268  0.99638420  1
  O  O401  1  0.88420646  0.99664048  0.49088725  1
  O  O402  1  0.88982232  1.00540781  0.99876569  1
  O  O403  1  0.12104820  -0.00592958  0.01160073  1
  O  O404  1  0.11643654  0.00824080  0.48949523  1
  O  O405  1  0.12108365  0.50814209  0.00383165  1
  O  O406  1  0.12569299  0.49563810  0.51101063  1
  O  O407  1  0.62445214  0.00814086  0.00916866  1
  O  O408  1  0.61968035  0.00590414  0.50362982  1
  O  O409  1  0.62061115  0.50646319  0.00662988  1
  O  O410  1  0.62424206  0.50853987  0.51112837  1
  O  O411  1  0.36261643  0.38168069  0.12528535  1
  O  O412  1  0.35440683  0.36951778  0.63324069  1
  O  O413  1  0.37644873  0.87608666  0.10732078  1
  O  O414  1  0.36958896  0.86965307  0.61863611  1
  O  O415  1  0.87189629  0.36543188  0.12387754  1
  O  O416  1  0.86637708  0.37297538  0.61621433  1
  O  O417  1  0.86433536  0.88385699  0.13931901  1
  O  O418  1  0.86205115  0.87616782  0.62467731  1
  O  O419  1  0.13000763  0.12930931  0.37965919  1
  O  O420  1  0.13263355  0.13600759  0.87369902  1
  O  O421  1  0.14668675  0.62653815  0.36770586  1
  O  O422  1  0.12487461  0.63920139  0.88521392  1
  O  O423  1  0.63619300  0.12165728  0.37926712  1
  O  O424  1  0.63162478  0.13463465  0.88194664  1
  O  O425  1  0.63112602  0.62170878  0.38289201  1
  O  O426  1  0.63286878  0.63473955  0.88053596  1
