# generated using pymatgen
data_V85Zn86O256
_symmetry_space_group_name_H-M   'P 1'
_cell_length_a   16.92570903
_cell_length_b   16.91967238
_cell_length_c   16.92343677
_cell_angle_alpha   89.91071728
_cell_angle_beta   90.00010074
_cell_angle_gamma   90.02794662
_symmetry_Int_Tables_number   1
_chemical_formula_structural   V85Zn86O256
_chemical_formula_sum   'V85 Zn86 O256'
_cell_volume   4846.48423223
_cell_formula_units_Z   1
loop_
 _symmetry_equiv_pos_site_id
 _symmetry_equiv_pos_as_xyz
  1  'x, y, z'
loop_
 _atom_site_type_symbol
 _atom_site_label
 _atom_site_symmetry_multiplicity
 _atom_site_fract_x
 _atom_site_fract_y
 _atom_site_fract_z
 _atom_site_occupancy
  V  V0  1  0.13036853  0.87592587  0.23880740  1
  V  V1  1  0.13301600  0.12291553  0.00147973  1
  V  V2  1  0.37811718  0.77339745  0.11129330  1
  V  V3  1  0.74439573  0.87470488  0.62870706  1
  V  V4  1  0.50356291  0.12981231  0.62229783  1
  V  V5  1  0.87273787  0.87349132  -0.00000830  1
  V  V6  1  0.50282875  0.87519811  0.37562649  1
  V  V7  1  0.63707909  0.38268392  0.75127806  1
  V  V8  1  0.62464273  0.12636499  0.00114210  1
  V  V9  1  -0.00701435  0.49523035  0.50124944  1
  V  V10  1  0.50270316  0.25073952  0.25134286  1
  V  V11  1  0.74863569  0.12623925  0.87587067  1
  V  V12  1  0.25060330  0.61969103  0.88711575  1
  V  V13  1  0.62439102  0.24428108  0.39253584  1
  V  V14  1  0.24865840  0.87653839  0.62611176  1
  V  V15  1  0.37305521  0.25009828  0.12092573  1
  V  V16  1  0.37490896  0.26008771  0.62009869  1
  V  V17  1  0.62045240  0.25331453  0.87659191  1
  V  V18  1  0.13321079  0.24375280  0.87010700  1
  V  V19  1  0.50108836  0.62546011  0.62660253  1
  V  V20  1  0.74931974  0.62214094  0.88027875  1
  V  V21  1  0.12511251  0.74381095  0.87934095  1
  V  V22  1  0.50549898  0.75703208  0.75189210  1
  V  V23  1  0.62655153  0.62297602  0.49959935  1
  V  V24  1  0.63331422  0.75595045  0.87816292  1
  V  V25  1  0.62642667  0.00565483  0.62189863  1
  V  V26  1  0.87498108  -0.00048462  0.87430218  1
  V  V27  1  0.48681830  0.49851384  0.49591815  1
  V  V28  1  0.46184689  0.73029900  0.27266706  1
  V  V29  1  0.12522710  0.00365372  0.61783620  1
  V  V30  1  0.49973523  0.87545886  0.88106625  1
  V  V31  1  0.37435236  0.12813292  0.75282326  1
  V  V32  1  0.74833993  0.87037207  0.12172768  1
  V  V33  1  0.00038442  0.74805320  0.74942992  1
  V  V34  1  0.87493366  0.12887653  0.74659308  1
  V  V35  1  0.76209100  0.25732328  0.00434524  1
  V  V36  1  0.49883406  0.39379672  0.87686834  1
  V  V37  1  0.76317612  0.37580120  0.13044819  1
  V  V38  1  0.87369521  0.74988158  0.62612353  1
  V  V39  1  0.75840169  0.00172034  0.25112441  1
  V  V40  1  -0.00328641  0.00104508  0.49547625  1
  V  V41  1  -0.00017293  0.37196019  0.87977724  1
  V  V42  1  0.12680892  0.74738275  0.37451657  1
  V  V43  1  0.75725307  0.37569630  0.60647276  1
  V  V44  1  0.00595302  0.62417350  0.11328416  1
  V  V45  1  0.24721756  0.25028192  0.49794401  1
  V  V46  1  0.25024171  0.76620055  0.00004409  1
  V  V47  1  0.12419425  0.61980248  0.49866935  1
  V  V48  1  -0.00639591  0.37230585  0.37894395  1
  V  V49  1  0.37178956  0.12312063  0.25195522  1
  V  V50  1  0.75132767  0.75099750  0.50076728  1
  V  V51  1  0.00423847  -0.00007423  0.00777176  1
  V  V52  1  0.24824163  -0.00530691  0.23892802  1
  V  V53  1  0.25770406  0.51631344  0.26296568  1
  V  V54  1  0.24931359  0.49835903  0.75277083  1
  V  V55  1  0.24692514  0.74391741  0.50255668  1
  V  V56  1  -0.00287450  0.13011254  0.12320232  1
  V  V57  1  0.87112645  0.74595450  0.11977523  1
  V  V58  1  0.48862377  0.62059417  0.12029209  1
  V  V59  1  0.37343904  0.87505866  0.50193683  1
  V  V60  1  0.00248151  0.12885928  0.61859317  1
  V  V61  1  0.37571020  0.62038648  0.75818937  1
  V  V62  1  0.48954425  0.37739810  0.37668232  1
  V  V63  1  0.37847154  0.39044836  -0.00277861  1
  V  V64  1  -0.00044219  0.87478285  0.87444400  1
  V  V65  1  0.62355772  0.62063343  0.00223616  1
  V  V66  1  0.86858683  0.61679246  0.75067813  1
  V  V67  1  0.12967761  0.37373693  0.24936938  1
  V  V68  1  0.62459213  -0.00063269  0.12606348  1
  V  V69  1  -0.00976832  0.25181586  0.24502034  1
  V  V70  1  0.37156972  -0.00218607  0.37563365  1
  V  V71  1  0.24860766  0.00556445  0.75236828  1
  V  V72  1  0.12396922  0.24072941  0.37475502  1
  V  V73  1  0.49953488  0.12341294  0.12571944  1
  V  V74  1  0.37335177  -0.00129087  0.87854145  1
  V  V75  1  0.50193202  0.00277930  0.50106060  1
  V  V76  1  0.75555493  0.62215219  0.37158440  1
  V  V77  1  0.74333402  -0.00204166  0.75159922  1
  V  V78  1  -0.00571944  0.87768192  0.37336401  1
  V  V79  1  0.00129592  0.74532757  0.24786542  1
  V  V80  1  0.87267963  0.49369204  0.88296890  1
  V  V81  1  0.12895326  0.50245359  0.11997006  1
  V  V82  1  0.37503584  0.75137715  0.63006058  1
  V  V83  1  0.75265106  0.12331554  0.38570245  1
  V  V84  1  0.62987866  0.75025179  0.36760170  1
  Zn  Zn85  1  0.87131203  0.12794174  0.24658488  1
  Zn  Zn86  1  0.12384953  0.49584917  0.62527087  1
  Zn  Zn87  1  0.87198899  0.49163610  0.37336572  1
  Zn  Zn88  1  0.62084100  0.87198040  0.24698462  1
  Zn  Zn89  1  0.12463347  0.87489730  0.74923005  1
  Zn  Zn90  1  0.25298592  0.37807024  0.12480816  1
  Zn  Zn91  1  0.49402681  -0.00519760  0.00453789  1
  Zn  Zn92  1  0.25491650  0.24782544  -0.00428142  1
  Zn  Zn93  1  0.00310002  0.49460590  0.00139879  1
  Zn  Zn94  1  0.62577247  0.37523475  0.24679422  1
  Zn  Zn95  1  0.24362734  0.11706113  0.38089278  1
  Zn  Zn96  1  0.49936506  0.25586118  0.74985740  1
  Zn  Zn97  1  -0.00026217  0.25317888  0.74683994  1
  Zn  Zn98  1  0.62933529  0.50131978  0.62712856  1
  Zn  Zn99  1  0.87315596  0.25258762  0.61053858  1
  Zn  Zn100  1  -0.00051814  0.62174916  0.62565255  1
  Zn  Zn101  1  0.25150924  0.38111172  0.61681090  1
  Zn  Zn102  1  0.87581048  0.61949594  0.24677475  1
  Zn  Zn103  1  0.62063653  0.49485581  0.12484708  1
  Zn  Zn104  1  0.87222786  0.87697299  0.49505352  1
  Zn  Zn105  1  0.12436268  0.37609431  0.74861171  1
  Zn  Zn106  1  0.75014417  0.49798653  0.24809258  1
  Zn  Zn107  1  0.18515583  0.18366934  0.18621352  1
  Zn  Zn108  1  0.18862081  0.18743471  0.68381469  1
  Zn  Zn109  1  0.19400857  0.68857333  0.18126354  1
  Zn  Zn110  1  0.18619167  0.68222035  0.68934853  1
  Zn  Zn111  1  0.69029644  0.19110559  0.18807654  1
  Zn  Zn112  1  0.68792807  0.19392449  0.68577784  1
  Zn  Zn113  1  0.68578663  0.68413658  0.18544439  1
  Zn  Zn114  1  0.68736337  0.68625919  0.69215003  1
  Zn  Zn115  1  0.31095552  0.31258007  0.31269643  1
  Zn  Zn116  1  0.31558123  0.31416267  0.81473117  1
  Zn  Zn117  1  0.31175847  0.80031869  0.31655474  1
  Zn  Zn118  1  0.31305423  0.81436552  0.81444051  1
  Zn  Zn119  1  0.81081741  0.30599298  0.43266451  1
  Zn  Zn120  1  0.81279375  0.31153324  0.81549844  1
  Zn  Zn121  1  0.81318351  0.81137464  0.30587353  1
  Zn  Zn122  1  0.81140091  0.81127901  0.81062074  1
  Zn  Zn123  1  0.18602647  0.43187652  0.43568979  1
  Zn  Zn124  1  0.18989166  0.43224132  0.93745371  1
  Zn  Zn125  1  0.18339516  0.93342808  0.43453136  1
  Zn  Zn126  1  0.18412723  0.93880071  0.93210779  1
  Zn  Zn127  1  0.67494709  0.44003883  0.42958622  1
  Zn  Zn128  1  0.68895602  0.43932729  0.94140988  1
  Zn  Zn129  1  0.68823186  0.94082307  0.43904215  1
  Zn  Zn130  1  0.68437715  0.93570613  0.93983838  1
  Zn  Zn131  1  0.31224890  0.05945775  0.06338953  1
  Zn  Zn132  1  0.31364068  0.06920351  0.56302024  1
  Zn  Zn133  1  0.30924016  0.56609690  0.06816447  1
  Zn  Zn134  1  0.31189098  0.56516244  0.56723584  1
  Zn  Zn135  1  0.81347144  0.06335472  0.06259332  1
  Zn  Zn136  1  0.81716723  0.06317917  0.56134005  1
  Zn  Zn137  1  0.81129782  0.56123316  0.06025581  1
  Zn  Zn138  1  0.81196878  0.55825679  0.56296701  1
  Zn  Zn139  1  0.43319882  0.43814838  0.19124161  1
  Zn  Zn140  1  0.44180147  0.44037140  0.69008551  1
  Zn  Zn141  1  0.43794393  0.93274576  0.19222453  1
  Zn  Zn142  1  0.43885448  0.93874350  0.69172859  1
  Zn  Zn143  1  0.93669285  0.43784460  0.19026613  1
  Zn  Zn144  1  0.93763912  0.43535683  0.69025542  1
  Zn  Zn145  1  0.93858350  0.93509528  0.18653024  1
  Zn  Zn146  1  0.93413291  0.93818772  0.68516369  1
  Zn  Zn147  1  0.06172498  0.06027640  0.30740897  1
  Zn  Zn148  1  0.06207348  0.06404610  0.81033439  1
  Zn  Zn149  1  0.06754079  0.55936642  0.31213121  1
  Zn  Zn150  1  0.06232269  0.56144699  0.81460479  1
  Zn  Zn151  1  0.56611519  0.06372254  0.31119203  1
  Zn  Zn152  1  0.56085135  0.06336364  0.80946398  1
  Zn  Zn153  1  0.56408517  0.56004550  0.30872477  1
  Zn  Zn154  1  0.56612087  0.56559392  0.81165447  1
  Zn  Zn155  1  0.43401824  0.18766647  0.43907366  1
  Zn  Zn156  1  0.43937670  0.18622657  0.93734851  1
  Zn  Zn157  1  0.43658142  0.68704706  0.44288379  1
  Zn  Zn158  1  0.43774807  0.68695998  0.93862493  1
  Zn  Zn159  1  0.93866449  0.18072473  0.43252868  1
  Zn  Zn160  1  0.94212268  0.18624792  0.93427803  1
  Zn  Zn161  1  0.93975525  0.68669481  0.43912459  1
  Zn  Zn162  1  0.93550923  0.68548104  0.93758217  1
  Zn  Zn163  1  0.06543982  0.31127932  0.06077119  1
  Zn  Zn164  1  0.06742067  0.31262323  0.56291818  1
  Zn  Zn165  1  0.06314001  0.80975623  0.05923365  1
  Zn  Zn166  1  0.06149865  0.81472138  0.56306464  1
  Zn  Zn167  1  0.56215738  0.31558343  0.06257832  1
  Zn  Zn168  1  0.56246283  0.31875160  0.56580909  1
  Zn  Zn169  1  0.56205877  0.80643009  0.06085701  1
  Zn  Zn170  1  0.56643090  0.81309607  0.56244764  1
  O  O171  1  0.11311700  0.12654347  0.11328098  1
  O  O172  1  0.11546942  0.11493039  0.62876505  1
  O  O173  1  0.11712045  0.61691338  0.13013165  1
  O  O174  1  0.12216863  0.62505806  0.61120732  1
  O  O175  1  0.62024449  0.11777330  0.12231109  1
  O  O176  1  0.61751201  0.11867312  0.63001674  1
  O  O177  1  0.61358221  0.62834697  0.11661806  1
  O  O178  1  0.62024645  0.62533362  0.61741785  1
  O  O179  1  0.39053332  0.36548188  0.37584700  1
  O  O180  1  0.38489927  0.37204303  0.88799930  1
  O  O181  1  0.38204385  0.87785503  0.38284313  1
  O  O182  1  0.38585823  0.88642108  0.86786883  1
  O  O183  1  0.88947361  0.37141004  0.37457301  1
  O  O184  1  0.88287375  0.38395595  0.86951366  1
  O  O185  1  0.88951926  0.86732751  0.37244930  1
  O  O186  1  0.87866108  0.87844769  0.88030498  1
  O  O187  1  0.25582077  -0.00254464  0.37009586  1
  O  O188  1  0.25800669  -0.00436842  0.86252600  1
  O  O189  1  0.24086601  0.49911123  0.36176388  1
  O  O190  1  0.24362192  0.51094399  0.87015462  1
  O  O191  1  0.73638713  0.01299237  0.36350123  1
  O  O192  1  0.75235153  0.00377040  0.86837546  1
  O  O193  1  0.75071128  0.50936467  0.37597758  1
  O  O194  1  0.75887320  0.50819584  0.87823548  1
  O  O195  1  0.24312865  0.49999484  0.13535152  1
  O  O196  1  0.24927265  0.50010321  0.63555776  1
  O  O197  1  0.25626053  0.99521891  0.13917598  1
  O  O198  1  0.24309165  0.99711859  0.62745247  1
  O  O199  1  0.74846314  0.48653150  0.12070928  1
  O  O200  1  0.74625280  0.48344922  0.62075064  1
  O  O201  1  0.74284766  0.99468754  0.13084044  1
  O  O202  1  0.74472109  0.99608987  0.63007037  1
  O  O203  1  0.01032570  0.36909207  0.25532543  1
  O  O204  1  0.00318772  0.37249080  0.76165067  1
  O  O205  1  0.00843302  0.86566015  0.25291919  1
  O  O206  1  -0.00422189  0.86340211  0.75493089  1
  O  O207  1  0.49995530  0.36702863  0.25738792  1
  O  O208  1  0.50847430  0.37482635  0.76018237  1
  O  O209  1  0.49665386  0.85905982  0.26533917  1
  O  O210  1  0.49832713  0.86265870  0.75656235  1
  O  O211  1  0.49228824  0.12958887  0.24519749  1
  O  O212  1  0.49401955  0.12896561  0.73840127  1
  O  O213  1  0.50452903  0.63848952  0.24006976  1
  O  O214  1  0.49371051  0.63388140  0.74820308  1
  O  O215  1  1.00043938  0.13102715  0.24009111  1
  O  O216  1  0.99056066  0.12288022  0.73809028  1
  O  O217  1  1.00182100  0.63636602  0.24529654  1
  O  O218  1  0.99222350  0.63556977  0.75042785  1
  O  O219  1  0.37436714  0.24957265  0.00813717  1
  O  O220  1  0.36581351  0.24773505  0.50941052  1
  O  O221  1  0.36785450  0.75242728  0.00485360  1
  O  O222  1  0.36608623  0.75467024  0.51001470  1
  O  O223  1  0.85943327  0.24411873  -0.00835792  1
  O  O224  1  0.87446276  0.24299040  0.49823831  1
  O  O225  1  0.88123734  0.75718161  0.01186700  1
  O  O226  1  0.86938222  0.75078279  0.50937293  1
  O  O227  1  0.13648666  0.24946970  0.49042558  1
  O  O228  1  0.12910781  0.24155647  0.98886872  1
  O  O229  1  0.12845755  0.74512261  0.49475911  1
  O  O230  1  0.13420439  0.75232971  0.99019477  1
  O  O231  1  0.61728750  0.24808421  0.49086896  1
  O  O232  1  0.63024595  0.24384757  0.99335798  1
  O  O233  1  0.62999069  0.74089277  0.49219879  1
  O  O234  1  0.62004986  0.73829574  0.98710762  1
  O  O235  1  0.49072470  0.24527736  0.13202840  1
  O  O236  1  0.49388489  0.24556486  0.62524782  1
  O  O237  1  0.48646630  0.74572280  0.12723912  1
  O  O238  1  0.49840569  0.74653437  0.63286517  1
  O  O239  1  1.00586635  0.24248774  0.13180576  1
  O  O240  1  0.99852882  0.24158612  0.62670169  1
  O  O241  1  0.99596143  0.74336393  0.13010164  1
  O  O242  1  0.99311798  0.74934748  0.63330399  1
  O  O243  1  0.00792111  0.25261202  0.36718747  1
  O  O244  1  0.00913028  0.25482046  0.87071470  1
  O  O245  1  0.00738533  0.75406157  0.36685062  1
  O  O246  1  0.00610070  0.75209082  0.86988540  1
  O  O247  1  0.50697518  0.25132240  0.37072482  1
  O  O248  1  0.51246950  0.25450682  0.87494738  1
  O  O249  1  0.51463565  0.75675884  0.37725006  1
  O  O250  1  0.50563614  0.75680349  0.86946597  1
  O  O251  1  0.25356876  0.14037086  0.49709575  1
  O  O252  1  0.23680597  0.12424213  1.00435413  1
  O  O253  1  0.24454486  0.63744031  0.50404603  1
  O  O254  1  0.25482019  0.63369774  0.98952041  1
  O  O255  1  0.74867779  0.11345736  0.48479633  1
  O  O256  1  0.74394703  0.13257378  0.99560214  1
  O  O257  1  0.74310578  0.63030673  0.49538949  1
  O  O258  1  0.74314404  0.62693952  0.98890566  1
  O  O259  1  0.26592731  0.37007082  0.00158128  1
  O  O260  1  0.25026730  0.35863783  0.49863208  1
  O  O261  1  0.24806614  0.86596942  -0.00695560  1
  O  O262  1  0.25169348  0.86507374  0.50718911  1
  O  O263  1  0.74793280  0.36205980  0.00496465  1
  O  O264  1  0.74569460  0.37691609  0.50255102  1
  O  O265  1  0.75593655  0.88093369  0.01384058  1
  O  O266  1  0.75164563  0.86953629  0.50667702  1
  O  O267  1  0.13084489  0.49127792  0.24145681  1
  O  O268  1  0.13523372  0.50297689  0.74725810  1
  O  O269  1  0.13174114  0.98414521  0.25335108  1
  O  O270  1  0.13271937  0.99897001  0.74222517  1
  O  O271  1  0.63127959  0.49524775  0.24586296  1
  O  O272  1  0.62163666  0.48724027  0.74732282  1
  O  O273  1  0.62911153  0.99549463  0.23794512  1
  O  O274  1  0.63664825  1.00420954  0.74106522  1
  O  O275  1  0.36834946  -0.00001743  0.25692227  1
  O  O276  1  0.36863157  0.00779479  0.75470940  1
  O  O277  1  0.35687149  0.49794496  0.25051740  1
  O  O278  1  0.37102194  0.51449296  0.74601733  1
  O  O279  1  0.86158844  -0.00103682  0.24524569  1
  O  O280  1  0.86428025  0.00941100  0.75219597  1
  O  O281  1  0.87045425  0.50333471  0.25590473  1
  O  O282  1  0.88172464  0.51363807  0.75974002  1
  O  O283  1  0.11678360  0.36302568  0.36689131  1
  O  O284  1  0.12036718  0.36127962  0.87254503  1
  O  O285  1  0.11281186  0.86550341  0.36766181  1
  O  O286  1  0.11659890  0.86424313  0.86937585  1
  O  O287  1  0.61613576  0.35838773  0.37123186  1
  O  O288  1  0.62031937  0.37245993  0.86940915  1
  O  O289  1  0.61894115  0.86884051  0.37521613  1
  O  O290  1  0.61939857  0.86553969  0.87593903  1
  O  O291  1  0.38068921  0.12954435  0.13084898  1
  O  O292  1  0.38293783  0.13285836  0.63508792  1
  O  O293  1  0.38676051  0.63486987  0.12037951  1
  O  O294  1  0.38222872  0.63414971  0.63389738  1
  O  O295  1  0.89041670  0.12067779  0.12500196  1
  O  O296  1  0.88184655  0.12621915  0.63212204  1
  O  O297  1  0.88233006  0.63146613  0.12409880  1
  O  O298  1  0.87235752  0.63116363  0.63437676  1
  O  O299  1  0.26429450  0.25002247  0.12700214  1
  O  O300  1  0.25704626  0.25071649  0.61500686  1
  O  O301  1  0.26367591  0.74928875  0.11076131  1
  O  O302  1  0.25263301  0.75607630  0.62199565  1
  O  O303  1  0.74854069  0.25732725  0.11161277  1
  O  O304  1  0.75072243  0.26982521  0.62766284  1
  O  O305  1  0.75881508  0.75779187  0.12979215  1
  O  O306  1  0.75147388  0.75741714  0.62283580  1
  O  O307  1  0.24372158  0.24643150  0.38229491  1
  O  O308  1  0.23717714  0.25048550  0.87434994  1
  O  O309  1  0.23384556  0.75694258  0.38808638  1
  O  O310  1  0.24314944  0.74561343  0.87951837  1
  O  O311  1  0.73408818  0.23748402  0.37593053  1
  O  O312  1  0.73939941  0.24795280  0.88451800  1
  O  O313  1  0.74613564  0.74694463  0.38028941  1
  O  O314  1  0.73944578  0.74481691  0.87171178  1
  O  O315  1  0.00618010  0.11822876  0.00424288  1
  O  O316  1  -0.00081274  0.11556540  0.50978008  1
  O  O317  1  0.00244038  0.62489671  0.01055179  1
  O  O318  1  0.00761281  0.61667735  0.50178726  1
  O  O319  1  0.50804028  0.12117066  0.00764612  1
  O  O320  1  0.49274237  0.11785648  0.51434757  1
  O  O321  1  0.50487605  0.62857705  0.01311933  1
  O  O322  1  0.50653799  0.62011328  0.50307856  1
  O  O323  1  0.50471705  0.39183775  0.49543269  1
  O  O324  1  0.48807567  0.37240335  0.99188171  1
  O  O325  1  0.49625748  0.87886500  0.49212856  1
  O  O326  1  0.50578631  0.87684718  0.98546661  1
  O  O327  1  1.00898221  0.38332848  0.49047235  1
  O  O328  1  1.00375721  0.37357383  0.98551183  1
  O  O329  1  0.99877443  0.88053220  0.49014878  1
  O  O330  1  0.99581089  0.88215729  0.99481241  1
  O  O331  1  0.50406295  0.49392738  0.38581381  1
  O  O332  1  0.50227780  0.49315776  0.87460920  1
  O  O333  1  0.49659686  0.99193298  0.37798208  1
  O  O334  1  0.49431927  0.99161080  0.87196479  1
  O  O335  1  1.00193569  0.48888288  0.38034509  1
  O  O336  1  0.99498660  0.49225040  0.87824360  1
  O  O337  1  1.00637747  0.99140268  0.38273858  1
  O  O338  1  0.99304081  0.99465148  0.87902635  1
  O  O339  1  -0.00153160  0.00269876  0.11219388  1
  O  O340  1  0.00744999  0.00359588  0.61937360  1
  O  O341  1  0.00750506  0.50813676  0.12496384  1
  O  O342  1  0.00101282  0.50044529  0.61639548  1
  O  O343  1  0.50731587  0.00252185  0.12622219  1
  O  O344  1  0.50867399  0.00618043  0.62450610  1
  O  O345  1  0.49794109  0.51782345  0.13377428  1
  O  O346  1  0.50298916  0.50706681  0.61350584  1
  O  O347  1  0.23871692  0.37607556  0.24853741  1
  O  O348  1  0.25383775  0.39140621  0.75548026  1
  O  O349  1  0.23588050  0.87705610  0.25727360  1
  O  O350  1  0.25108137  0.88560477  0.74161139  1
  O  O351  1  0.74846949  0.37014842  0.23214569  1
  O  O352  1  0.73798706  0.37653351  0.75330460  1
  O  O353  1  0.74705962  0.88190466  0.23906236  1
  O  O354  1  0.75449583  0.88599075  0.74205497  1
  O  O355  1  0.25498734  0.11363880  0.25221215  1
  O  O356  1  0.25894584  0.11368514  0.74270142  1
  O  O357  1  0.24554278  0.61635929  0.25283131  1
  O  O358  1  0.25786069  0.61873154  0.75827143  1
  O  O359  1  0.74959921  0.11716400  0.25343650  1
  O  O360  1  0.75456812  0.12005498  0.75571696  1
  O  O361  1  0.75252330  0.62542166  0.25884369  1
  O  O362  1  0.75805565  0.62852674  0.76337248  1
  O  O363  1  0.37488398  0.11424437  0.36833667  1
  O  O364  1  0.38369642  0.11874047  0.85962887  1
  O  O365  1  0.38632724  0.69595756  0.34266252  1
  O  O366  1  0.36576577  0.63103430  0.86769389  1
  O  O367  1  0.85638073  0.12495783  0.36775523  1
  O  O368  1  0.86937314  0.11807000  0.86798870  1
  O  O369  1  0.86241820  0.63045257  0.37424063  1
  O  O370  1  0.86722828  0.62132367  0.87022598  1
  O  O371  1  0.12776390  0.38063675  0.13296898  1
  O  O372  1  0.13305500  0.37616482  0.63143924  1
  O  O373  1  0.12148110  0.86870545  0.14016318  1
  O  O374  1  0.13035380  0.88365976  0.62855678  1
  O  O375  1  0.63319504  0.37624487  0.12434446  1
  O  O376  1  0.63443680  0.37593125  0.63692616  1
  O  O377  1  0.63039144  0.87919230  0.12411563  1
  O  O378  1  0.63707034  0.88258989  0.62374009  1
  O  O379  1  0.12177719  0.25623939  0.25549645  1
  O  O380  1  0.12448872  0.24647785  0.76071072  1
  O  O381  1  0.12237807  0.75634057  0.25560648  1
  O  O382  1  0.11567602  0.75053614  0.75532239  1
  O  O383  1  0.60971755  0.24746228  0.25127498  1
  O  O384  1  0.62424813  0.26272053  0.75943854  1
  O  O385  1  0.62824024  0.75204280  0.26257401  1
  O  O386  1  0.61503149  0.74326891  0.76278256  1
  O  O387  1  0.38366936  0.24426399  0.24499693  1
  O  O388  1  0.37588561  0.24325746  0.74423713  1
  O  O389  1  0.36994560  0.76899350  0.22149941  1
  O  O390  1  0.38175495  0.74285812  0.74712222  1
  O  O391  1  0.89163039  0.24847028  0.24995014  1
  O  O392  1  0.87403515  0.23639577  0.75059141  1
  O  O393  1  0.88549252  0.74888291  0.23674032  1
  O  O394  1  0.88086775  0.74129256  0.74612515  1
  O  O395  1  0.38810946  0.51217092  0.49863521  1
  O  O396  1  0.37276856  0.48860557  1.00547900  1
  O  O397  1  0.38051655  0.99378025  0.49709031  1
  O  O398  1  0.37601717  1.00911085  0.98267697  1
  O  O399  1  0.88928799  0.50669076  0.49325849  1
  O  O400  1  0.88144546  0.50617613  0.98624649  1
  O  O401  1  0.89126114  0.99424057  0.50512334  1
  O  O402  1  0.88207080  0.99435059  0.99349605  1
  O  O403  1  0.11445897  0.00913253  -0.01044795  1
  O  O404  1  0.11634178  -0.00648215  0.51081123  1
  O  O405  1  0.12694318  0.49288540  0.01559178  1
  O  O406  1  0.11884309  0.50689868  0.49935856  1
  O  O407  1  0.62494540  0.00684244  0.01196393  1
  O  O408  1  0.61787243  -0.00334613  0.51400533  1
  O  O409  1  0.62552929  0.51545089  0.00104840  1
  O  O410  1  0.61666965  0.51431410  0.49970299  1
  O  O411  1  0.37786468  0.36738912  0.11379130  1
  O  O412  1  0.37503550  0.36304271  0.63222853  1
  O  O413  1  0.38638217  0.87238808  0.10789658  1
  O  O414  1  0.37028460  0.87143686  0.62131480  1
  O  O415  1  0.86303933  0.37599668  0.12311744  1
  O  O416  1  0.86019272  0.37484605  0.62711656  1
  O  O417  1  0.86829355  0.86754449  0.12053352  1
  O  O418  1  0.86256553  0.86786151  0.62461012  1
  O  O419  1  0.12464916  0.13641520  0.36843569  1
  O  O420  1  0.11779319  0.13707812  0.88224912  1
  O  O421  1  0.11813196  0.63475696  0.38732986  1
  O  O422  1  0.13387148  0.63695811  0.87041189  1
  O  O423  1  0.62945457  0.13776346  0.37211398  1
  O  O424  1  0.62940026  0.13269634  0.87825445  1
  O  O425  1  0.63405049  0.63232148  0.38055320  1
  O  O426  1  0.63164485  0.63113332  0.88035305  1
