# generated using pymatgen
data_V85Zn86O256
_symmetry_space_group_name_H-M   'P 1'
_cell_length_a   16.93572318
_cell_length_b   16.93916855
_cell_length_c   16.94986123
_cell_angle_alpha   89.98013269
_cell_angle_beta   89.97002210
_cell_angle_gamma   90.00298970
_symmetry_Int_Tables_number   1
_chemical_formula_structural   V85Zn86O256
_chemical_formula_sum   'V85 Zn86 O256'
_cell_volume   4862.52555185
_cell_formula_units_Z   1
loop_
 _symmetry_equiv_pos_site_id
 _symmetry_equiv_pos_as_xyz
  1  'x, y, z'
loop_
 _atom_site_type_symbol
 _atom_site_label
 _atom_site_symmetry_multiplicity
 _atom_site_fract_x
 _atom_site_fract_y
 _atom_site_fract_z
 _atom_site_occupancy
  V  V0  1  0.24325893  -0.00521477  0.75326706  1
  V  V1  1  0.74675733  0.38402274  0.61513465  1
  V  V2  1  0.75106450  0.75046994  0.49943634  1
  V  V3  1  0.50004499  0.12797292  0.63077318  1
  V  V4  1  0.37058099  0.62319911  0.76060137  1
  V  V5  1  0.12665812  0.74999787  0.37148734  1
  V  V6  1  0.24174933  0.87437542  0.62957829  1
  V  V7  1  0.87792503  0.75046708  0.62471162  1
  V  V8  1  0.50382260  0.00077101  0.49924499  1
  V  V9  1  0.62299386  0.49944258  0.12343262  1
  V  V10  1  0.86891891  0.62191192  0.74821954  1
  V  V11  1  0.49547320  0.37187119  0.86501661  1
  V  V12  1  0.87678540  0.48109091  0.37851811  1
  V  V13  1  0.25228235  0.87959594  0.12498811  1
  V  V14  1  0.75145430  0.49685504  0.25075328  1
  V  V15  1  0.00435957  0.01266058  0.00400523  1
  V  V16  1  0.37182374  0.38384146  -0.00558665  1
  V  V17  1  0.86750671  0.75326000  0.12611680  1
  V  V18  1  0.87696215  0.87749943  0.49585642  1
  V  V19  1  0.50678118  0.87302409  0.88108062  1
  V  V20  1  0.12619749  0.13041438  0.49667687  1
  V  V21  1  -0.00295033  0.48554901  0.49925936  1
  V  V22  1  0.51847399  0.33856398  0.40603399  1
  V  V23  1  0.12853402  0.75273607  0.86783028  1
  V  V24  1  0.37672973  0.62194591  0.24744966  1
  V  V25  1  0.87081522  0.87750627  0.00419727  1
  V  V26  1  0.37192622  0.11941102  0.24878580  1
  V  V27  1  0.00379178  0.87589456  0.87003097  1
  V  V28  1  0.00281295  0.74997716  0.24969607  1
  V  V29  1  0.87132855  0.12677523  0.74779744  1
  V  V30  1  0.61900337  0.75081970  0.36946294  1
  V  V31  1  0.12545851  0.62316643  0.49953876  1
  V  V32  1  0.25022902  0.13050386  0.37461926  1
  V  V33  1  0.37416445  0.75217353  0.12840902  1
  V  V34  1  0.37126663  0.24980462  0.12167488  1
  V  V35  1  0.50466602  0.75824672  0.74628757  1
  V  V36  1  0.86565748  0.49746010  0.86825931  1
  V  V37  1  0.00162221  0.62235247  0.62562180  1
  V  V38  1  0.87640464  0.00052969  0.87395969  1
  V  V39  1  0.88968465  0.24513852  0.13020421  1
  V  V40  1  0.50506608  0.50460138  0.51251212  1
  V  V41  1  0.37456064  -0.00939660  0.88339744  1
  V  V42  1  0.37239424  0.87598383  0.50162785  1
  V  V43  1  0.00104811  0.62390462  0.12441049  1
  V  V44  1  0.12176854  0.24457260  0.87679380  1
  V  V45  1  0.74554731  0.87640261  0.62596313  1
  V  V46  1  0.49874126  0.62627327  0.12737755  1
  V  V47  1  0.62104241  0.24458622  0.86720706  1
  V  V48  1  0.12480372  0.01247783  0.12502526  1
  V  V49  1  0.74849406  0.36846992  0.12504006  1
  V  V50  1  0.13466187  0.37298549  0.74594722  1
  V  V51  1  0.00273119  0.00251699  0.49635510  1
  V  V52  1  0.62793925  0.62368076  0.51247368  1
  V  V53  1  0.63251086  0.38719847  0.74895901  1
  V  V54  1  0.24171794  0.24721030  0.00176902  1
  V  V55  1  0.25341873  0.25124758  0.50898930  1
  V  V56  1  0.49823362  0.50198660  -0.00823272  1
  V  V57  1  0.24892734  0.37956702  0.13155313  1
  V  V58  1  0.24990672  0.75143290  0.49930395  1
  V  V59  1  0.38820362  0.49616457  0.37548511  1
  V  V60  1  0.02738586  0.26017128  0.28171324  1
  V  V61  1  0.37285183  0.37745858  0.51283156  1
  V  V62  1  0.22781698  0.48279137  0.27224849  1
  V  V63  1  -0.00157719  0.37588621  0.87200624  1
  V  V64  1  0.12583529  0.49806321  0.12230793  1
  V  V65  1  0.37697211  0.12767212  0.75361481  1
  V  V66  1  0.87862224  0.62194697  0.25360417  1
  V  V67  1  -0.00068682  0.12701880  0.62288794  1
  V  V68  1  0.75160654  0.62352773  0.37635404  1
  V  V69  1  0.24634712  0.12130827  0.88133883  1
  V  V70  1  0.49853305  0.25373704  0.24283970  1
  V  V71  1  0.50541477  0.11852409  0.12100484  1
  V  V72  1  0.13604489  0.49548882  0.62613964  1
  V  V73  1  0.37264991  0.00004319  0.37110189  1
  V  V74  1  0.25379102  0.75107514  -0.00189489  1
  V  V75  1  0.12758521  0.88270707  0.24722290  1
  V  V76  1  -0.00214901  0.25010458  0.74810037  1
  V  V77  1  0.62487769  0.00283588  0.62152106  1
  V  V78  1  0.87371025  0.37487500  0.00048129  1
  V  V79  1  0.74434619  -0.00196146  0.74986959  1
  V  V80  1  0.12675961  0.62887192  -0.00769371  1
  V  V81  1  0.25570832  0.62492649  0.37580415  1
  V  V82  1  0.72995871  0.13709696  0.38418296  1
  V  V83  1  0.86271004  0.25328612  0.61245761  1
  V  V84  1  0.61851898  0.37254816  0.25038061  1
  Zn  Zn85  1  0.50100610  0.62611426  0.63255377  1
  Zn  Zn86  1  0.74885908  0.12491980  0.87617190  1
  Zn  Zn87  1  0.37419583  0.74906278  0.62751422  1
  Zn  Zn88  1  0.12226063  -0.00146607  0.62906812  1
  Zn  Zn89  1  0.86957212  0.01465522  0.37676683  1
  Zn  Zn90  1  0.75229430  -0.00039223  0.25023801  1
  Zn  Zn91  1  -0.00196887  0.50199416  -0.00194999  1
  Zn  Zn92  1  0.74835005  0.75018942  -0.00425546  1
  Zn  Zn93  1  0.37667572  0.25443905  0.63441350  1
  Zn  Zn94  1  0.62817567  0.12231817  -0.00046392  1
  Zn  Zn95  1  0.87758224  0.12834028  0.25559738  1
  Zn  Zn96  1  0.63045598  0.62534064  -0.00456812  1
  Zn  Zn97  1  0.25444271  0.50085230  0.76344715  1
  Zn  Zn98  1  0.62240022  0.87697167  0.24268926  1
  Zn  Zn99  1  0.00519428  0.75586800  0.74661269  1
  Zn  Zn100  1  0.65571683  -0.02428336  0.11424074  1
  Zn  Zn101  1  0.63257122  0.74855658  0.87158886  1
  Zn  Zn102  1  0.50231612  -0.01045756  0.00596424  1
  Zn  Zn103  1  0.74644583  0.24806489  -0.00171671  1
  Zn  Zn104  1  0.74871394  0.62540951  0.87515238  1
  Zn  Zn105  1  0.00000958  0.88028358  0.37022280  1
  Zn  Zn106  1  0.49786598  0.87000001  0.37411868  1
  Zn  Zn107  1  0.18626697  0.19182626  0.19468576  1
  Zn  Zn108  1  0.18852723  0.18333441  0.68868970  1
  Zn  Zn109  1  0.19094605  0.68096295  0.18662627  1
  Zn  Zn110  1  0.19077671  0.68513742  0.68786230  1
  Zn  Zn111  1  0.68869426  0.18336907  0.19628599  1
  Zn  Zn112  1  0.68436985  0.18844031  0.68838265  1
  Zn  Zn113  1  0.68718527  0.68494767  0.18709854  1
  Zn  Zn114  1  0.68887491  0.69078265  0.69100062  1
  Zn  Zn115  1  0.32229993  0.31072969  0.32079937  1
  Zn  Zn116  1  0.31071833  0.30981771  0.81513715  1
  Zn  Zn117  1  0.31360481  0.81409161  0.30824344  1
  Zn  Zn118  1  0.31521813  0.81025955  0.81274232  1
  Zn  Zn119  1  0.80577424  0.30173895  0.31409366  1
  Zn  Zn120  1  0.80646183  0.31116929  0.80889826  1
  Zn  Zn121  1  0.80900407  0.81608968  0.31061017  1
  Zn  Zn122  1  0.81717775  0.81265189  0.81119617  1
  Zn  Zn123  1  0.19114287  0.43722825  0.44167840  1
  Zn  Zn124  1  0.18190092  0.43296130  0.93912608  1
  Zn  Zn125  1  0.18776156  0.94245082  0.43477789  1
  Zn  Zn126  1  0.18518881  0.93334793  0.94256740  1
  Zn  Zn127  1  0.68584895  0.43714323  0.43755616  1
  Zn  Zn128  1  0.68426143  0.43619136  0.93682489  1
  Zn  Zn129  1  0.68996435  0.94126171  0.43086980  1
  Zn  Zn130  1  0.68604420  0.93859087  0.93779447  1
  Zn  Zn131  1  0.31242544  0.06030926  0.06273536  1
  Zn  Zn132  1  0.31343194  0.06086229  0.56507120  1
  Zn  Zn133  1  0.30867550  0.56685008  -0.06332908  1
  Zn  Zn134  1  0.31736224  0.56603057  0.56828687  1
  Zn  Zn135  1  0.81266384  0.06755606  0.06178580  1
  Zn  Zn136  1  0.80856644  0.06774805  0.55324767  1
  Zn  Zn137  1  0.81244679  0.56051356  0.06182294  1
  Zn  Zn138  1  0.81536999  0.55919991  0.56099645  1
  Zn  Zn139  1  0.43279622  0.44185034  0.18372646  1
  Zn  Zn140  1  0.43813436  0.44225783  0.69171312  1
  Zn  Zn141  1  0.44783439  0.93071334  0.19233119  1
  Zn  Zn142  1  0.43146725  0.93902193  0.69031811  1
  Zn  Zn143  1  0.94147514  0.43091965  0.19208660  1
  Zn  Zn144  1  0.93586304  0.43523836  0.68409343  1
  Zn  Zn145  1  0.93195420  0.94379888  0.18621811  1
  Zn  Zn146  1  0.93603378  0.93933077  0.68472735  1
  Zn  Zn147  1  0.05880989  0.07063053  0.30932827  1
  Zn  Zn148  1  0.06178097  0.06252168  0.81351816  1
  Zn  Zn149  1  0.06784607  0.54665262  0.31916652  1
  Zn  Zn150  1  0.06093412  0.56080102  0.81053168  1
  Zn  Zn151  1  0.56705672  0.05719913  0.30692033  1
  Zn  Zn152  1  0.56205206  0.05582835  0.81150695  1
  Zn  Zn153  1  0.56484588  0.56481402  0.31512209  1
  Zn  Zn154  1  0.55980807  0.56584394  0.81300759  1
  Zn  Zn155  1  0.44843647  0.18696908  0.44393778  1
  Zn  Zn156  1  0.43567183  0.18880238  0.93709111  1
  Zn  Zn157  1  0.43862818  0.68549370  0.44142757  1
  Zn  Zn158  1  0.44188288  0.69446381  0.94102126  1
  Zn  Zn159  1  0.93763240  0.19501162  0.43135772  1
  Zn  Zn160  1  0.93197308  0.18942278  0.93814154  1
  Zn  Zn161  1  0.93910017  0.68375499  0.43711400  1
  Zn  Zn162  1  0.93637731  0.68939677  0.93620685  1
  Zn  Zn163  1  0.06311445  0.31640054  0.06281094  1
  Zn  Zn164  1  0.06377209  0.30796603  0.56252460  1
  Zn  Zn165  1  0.06050300  0.81704383  0.06000993  1
  Zn  Zn166  1  0.06330604  0.81256654  0.56022888  1
  Zn  Zn167  1  0.56141506  0.31097979  0.05617188  1
  Zn  Zn168  1  0.56312061  0.30909304  0.57287505  1
  Zn  Zn169  1  0.56353152  0.80469889  0.05828806  1
  Zn  Zn170  1  0.56408276  0.81452804  0.56068537  1
  O  O171  1  0.13736032  0.11152694  0.13050458  1
  O  O172  1  0.11657334  0.12343674  0.61834712  1
  O  O173  1  0.11660481  0.62584097  0.11024908  1
  O  O174  1  0.11943661  0.61764242  0.62106768  1
  O  O175  1  0.60810452  0.13451778  0.12421625  1
  O  O176  1  0.61665308  0.11173597  0.63178141  1
  O  O177  1  0.61553206  0.61698389  0.12531986  1
  O  O178  1  0.62643596  0.62854114  0.61587213  1
  O  O179  1  0.39516351  0.37983557  0.39007325  1
  O  O180  1  0.38318476  0.36591771  0.88312643  1
  O  O181  1  0.37138372  0.88277957  0.38209106  1
  O  O182  1  0.38387676  0.88338729  0.87036884  1
  O  O183  1  0.86678866  0.38282340  0.37072500  1
  O  O184  1  0.87887119  0.37727419  0.87836346  1
  O  O185  1  0.87967049  0.87107887  0.38913709  1
  O  O186  1  0.88435514  0.88301728  0.88101253  1
  O  O187  1  0.26509807  0.01305960  0.38201481  1
  O  O188  1  0.25395843  0.00273107  0.87414651  1
  O  O189  1  0.27337821  0.50666292  0.38019171  1
  O  O190  1  0.24538041  0.49788871  0.87666872  1
  O  O191  1  0.75123936  0.01419121  0.37419526  1
  O  O192  1  0.75741617  -0.00086772  0.86412822  1
  O  O193  1  0.75599679  0.50396428  0.37065444  1
  O  O194  1  0.76323211  0.49741712  0.87607810  1
  O  O195  1  0.24344870  0.48544347  0.13891917  1
  O  O196  1  0.23799508  0.50405768  0.62884534  1
  O  O197  1  0.24279159  0.98666702  0.11715067  1
  O  O198  1  0.24867677  0.99295195  0.63579663  1
  O  O199  1  0.74667392  0.48826379  0.13162134  1
  O  O200  1  0.75520411  0.48335480  0.62239193  1
  O  O201  1  0.76454138  0.99850683  0.13197910  1
  O  O202  1  0.74416906  0.99629499  0.62696278  1
  O  O203  1  0.00152739  0.35406463  0.24690539  1
  O  O204  1  0.00518644  0.36847525  0.75561151  1
  O  O205  1  0.01042268  0.86496528  0.24917120  1
  O  O206  1  -0.00525835  0.87803696  0.76359797  1
  O  O207  1  0.50419604  0.36905050  0.24186337  1
  O  O208  1  0.50603386  0.37739924  0.76020228  1
  O  O209  1  0.50714046  0.87209319  0.26291267  1
  O  O210  1  0.49213439  0.86332353  0.75656473  1
  O  O211  1  0.48983885  0.13286312  0.23728715  1
  O  O212  1  0.48775638  0.11165929  0.74349949  1
  O  O213  1  0.49092421  0.61440496  0.24039009  1
  O  O214  1  0.49098420  0.63771228  0.75162659  1
  O  O215  1  0.99913242  0.15526944  0.26208920  1
  O  O216  1  0.99185994  0.12892161  0.74313186  1
  O  O217  1  0.99807493  0.62990389  0.24384618  1
  O  O218  1  0.99522678  0.62441746  0.73592951  1
  O  O219  1  0.36459748  0.25643556  0.00764335  1
  O  O220  1  0.37225366  0.25992921  0.50631096  1
  O  O221  1  0.36464848  0.74245159  0.01506198  1
  O  O222  1  0.37012145  0.76138943  0.49994404  1
  O  O223  1  0.87188891  0.26174670  0.00762731  1
  O  O224  1  0.87758500  0.25180126  0.51568884  1
  O  O225  1  0.87837854  0.75874588  0.01005459  1
  O  O226  1  0.87193343  0.75505186  0.50578627  1
  O  O227  1  0.13537259  0.23828281  0.50461991  1
  O  O228  1  0.13562747  0.25464840  0.99540118  1
  O  O229  1  0.12964019  0.74381223  0.49142618  1
  O  O230  1  0.12892155  0.74511692  0.99238396  1
  O  O231  1  0.55240406  0.25985638  0.47028925  1
  O  O232  1  0.62555096  0.25047965  0.98326229  1
  O  O233  1  0.63284276  0.74136733  0.49642252  1
  O  O234  1  0.62928578  0.74383188  0.99158989  1
  O  O235  1  0.48918147  0.24498616  0.12670291  1
  O  O236  1  0.49808691  0.23166778  0.63023164  1
  O  O237  1  0.48816898  0.73320904  0.11819552  1
  O  O238  1  0.49815358  0.75403325  0.63601708  1
  O  O239  1  0.98918461  0.25233112  0.11938484  1
  O  O240  1  0.98849833  0.24658120  0.63098028  1
  O  O241  1  0.99833616  0.74204112  0.13441553  1
  O  O242  1  0.99756657  0.74161614  0.62437389  1
  O  O243  1  0.01345476  0.26398496  0.38203896  1
  O  O244  1  0.00065050  0.25780234  0.86954422  1
  O  O245  1  0.00657610  0.74823403  0.36289659  1
  O  O246  1  0.00758574  0.75965781  0.87318779  1
  O  O247  1  0.47541121  0.25113695  0.34747731  1
  O  O248  1  0.50923593  0.25873645  0.87820555  1
  O  O249  1  0.51620922  0.74529789  0.38214932  1
  O  O250  1  0.49924489  0.76205561  0.86564391  1
  O  O251  1  0.24595556  0.12953062  0.49626579  1
  O  O252  1  0.25493586  0.13257591  0.98984733  1
  O  O253  1  0.24796701  0.63098793  0.49542366  1
  O  O254  1  0.23893869  0.63829590  0.99966519  1
  O  O255  1  0.74274115  0.12699601  0.48656232  1
  O  O256  1  0.74738812  0.13057878  0.99318922  1
  O  O257  1  0.74524403  0.62845738  0.49713677  1
  O  O258  1  0.75191759  0.62738179  0.99680199  1
  O  O259  1  0.25545763  0.36763369  0.00806874  1
  O  O260  1  0.26030939  0.36566034  0.49504710  1
  O  O261  1  0.24545983  0.86149530  0.01176858  1
  O  O262  1  0.25465470  0.87213098  0.50491904  1
  O  O263  1  0.75635761  0.37420776  0.00775412  1
  O  O264  1  0.73548046  0.37128488  0.51598992  1
  O  O265  1  0.76745935  0.87543340  -0.00628829  1
  O  O266  1  0.75923150  0.87217574  0.50692135  1
  O  O267  1  0.13087989  0.52900091  0.22381660  1
  O  O268  1  0.12476674  0.49083568  0.74246316  1
  O  O269  1  0.11432359  0.99187220  0.24055005  1
  O  O270  1  0.13862554  1.00392611  0.75019223  1
  O  O271  1  0.62780497  0.49035039  0.24474367  1
  O  O272  1  0.62048037  0.48548413  0.75178280  1
  O  O273  1  0.62666334  0.99925862  0.23443946  1
  O  O274  1  0.63880648  0.99887420  0.74256733  1
  O  O275  1  0.37884802  0.00936919  0.25815517  1
  O  O276  1  0.36233419  0.00696412  0.76092304  1
  O  O277  1  0.37013319  0.50238857  0.26149988  1
  O  O278  1  0.37542804  0.51729108  0.75063215  1
  O  O279  1  0.88318570  0.00856404  0.26010038  1
  O  O280  1  0.86855154  0.01197304  0.74966917  1
  O  O281  1  0.87294587  0.50245599  0.25746999  1
  O  O282  1  0.88258698  0.50740954  0.75738175  1
  O  O283  1  0.14804304  0.44818601  0.33723970  1
  O  O284  1  0.11449623  0.36604850  0.86829102  1
  O  O285  1  0.12503741  0.87081863  0.36573416  1
  O  O286  1  0.11644791  0.86557188  0.87868676  1
  O  O287  1  0.60926481  0.38175381  0.36597453  1
  O  O288  1  0.61890840  0.36870677  0.86455210  1
  O  O289  1  0.62445620  0.85565627  0.38699089  1
  O  O290  1  0.60989807  0.87602176  0.87237631  1
  O  O291  1  0.37664889  0.13244998  0.13011051  1
  O  O292  1  0.38150795  0.12036118  0.63736590  1
  O  O293  1  0.38001911  0.62743781  0.13958498  1
  O  O294  1  0.37927101  0.63087940  0.63820303  1
  O  O295  1  0.87565197  0.14433069  0.12475019  1
  O  O296  1  0.87672174  0.13484800  0.62842083  1
  O  O297  1  0.88695685  0.62889729  0.13106511  1
  O  O298  1  0.88333889  0.62855668  0.62818263  1
  O  O299  1  0.25230107  0.25780374  0.12007827  1
  O  O300  1  0.25557012  0.24200490  0.61356877  1
  O  O301  1  0.25459231  0.75545969  0.12011530  1
  O  O302  1  0.24972848  0.75720487  0.61736764  1
  O  O303  1  0.75156837  0.26185748  0.12512292  1
  O  O304  1  0.75843678  0.25472450  0.62805557  1
  O  O305  1  0.76547324  0.74411840  0.12653764  1
  O  O306  1  0.75600299  0.75917936  0.62049845  1
  O  O307  1  0.26318394  0.23703677  0.38972317  1
  O  O308  1  0.24391430  0.24130084  0.88382396  1
  O  O309  1  0.24622736  0.74459987  0.37937297  1
  O  O310  1  0.24154355  0.75820697  0.88522882  1
  O  O311  1  0.73686732  0.23992183  0.37438264  1
  O  O312  1  0.73519412  0.24888822  0.87415354  1
  O  O313  1  0.74607559  0.74097747  0.38364132  1
  O  O314  1  0.75222980  0.74702128  0.87335557  1
  O  O315  1  -0.00199571  0.11122968  -0.00760155  1
  O  O316  1  0.00826226  0.12209533  0.50265035  1
  O  O317  1  0.00335344  0.62407357  0.00934833  1
  O  O318  1  0.00605893  0.61917849  0.51020215  1
  O  O319  1  0.49760789  0.12712519  0.01369870  1
  O  O320  1  0.48829912  0.10623143  0.51570040  1
  O  O321  1  0.49742533  0.61471883  0.00658456  1
  O  O322  1  0.50918775  0.62190346  0.50721730  1
  O  O323  1  0.49492851  0.38893524  0.50660933  1
  O  O324  1  0.49020713  0.38085418  0.99229930  1
  O  O325  1  0.48979497  0.88241137  0.49756569  1
  O  O326  1  0.49468599  0.87093427  0.98373493  1
  O  O327  1  1.00594405  0.38675839  0.50425398  1
  O  O328  1  0.99225116  0.37596662  0.98941093  1
  O  O329  1  0.99548962  0.88489487  0.49902549  1
  O  O330  1  0.99288263  0.88294914  0.98909415  1
  O  O331  1  0.49335660  0.50759285  0.38827246  1
  O  O332  1  0.50311663  0.48963267  0.88597011  1
  O  O333  1  0.48916360  1.00243722  0.38445333  1
  O  O334  1  0.49250607  0.98654998  0.87348340  1
  O  O335  1  0.98776624  0.50424350  0.38714756  1
  O  O336  1  0.99414305  0.48696192  0.87508781  1
  O  O337  1  1.00139443  1.00148759  0.38798056  1
  O  O338  1  0.99747133  0.99501440  0.88256196  1
  O  O339  1  0.00835802  -0.00189328  0.11092981  1
  O  O340  1  0.00020642  0.00785422  0.61418805  1
  O  O341  1  0.00617624  0.50695730  0.12409099  1
  O  O342  1  0.00564411  0.50569671  0.61811756  1
  O  O343  1  0.48739197  0.01555905  0.12236728  1
  O  O344  1  0.50780203  -0.00037248  0.62184405  1
  O  O345  1  0.50102040  0.50620211  0.11336454  1
  O  O346  1  0.49976276  0.50534916  0.61635879  1
  O  O347  1  0.26279068  0.37984134  0.24681526  1
  O  O348  1  0.23785008  0.37436810  0.75365315  1
  O  O349  1  0.23587264  0.87047458  0.24095903  1
  O  O350  1  0.25520225  0.88188806  0.74147107  1
  O  O351  1  0.73918936  0.37808569  0.24449289  1
  O  O352  1  0.73725873  0.37591769  0.74295271  1
  O  O353  1  0.73754701  0.88126449  0.26089214  1
  O  O354  1  0.76476679  0.88579294  0.73471060  1
  O  O355  1  0.26390582  0.13212078  0.25954754  1
  O  O356  1  0.25508541  0.11725917  0.76218950  1
  O  O357  1  0.25614803  0.61076416  0.26045520  1
  O  O358  1  0.26592993  0.62648817  0.75139697  1
  O  O359  1  0.75431207  0.12529005  0.26339500  1
  O  O360  1  0.75668386  0.11728453  0.74998916  1
  O  O361  1  0.75732371  0.61536056  0.25448502  1
  O  O362  1  0.76579111  0.62612996  0.74680993  1
  O  O363  1  0.37392365  0.11931585  0.36779505  1
  O  O364  1  0.36838202  0.11762487  0.87074569  1
  O  O365  1  0.37565614  0.62064349  0.36666240  1
  O  O366  1  0.37815463  0.63037417  0.86677141  1
  O  O367  1  0.86481424  0.13295697  0.37594009  1
  O  O368  1  0.87444104  0.11955685  0.86374401  1
  O  O369  1  0.86822693  0.62030982  0.36947223  1
  O  O370  1  0.88038188  0.61410973  0.86480802  1
  O  O371  1  0.13345295  0.38634483  0.12079303  1
  O  O372  1  0.11981549  0.38220870  0.63519168  1
  O  O373  1  0.13120951  0.88144114  0.13073216  1
  O  O374  1  0.13718651  0.87784159  0.62020864  1
  O  O375  1  0.62983966  0.37930285  0.12867780  1
  O  O376  1  0.63391200  0.36700333  0.63911827  1
  O  O377  1  0.60905172  0.87462283  0.12718588  1
  O  O378  1  0.63796781  0.88354567  0.62117144  1
  O  O379  1  0.12750876  0.25611898  0.26505058  1
  O  O380  1  0.11929981  0.25509035  0.75385861  1
  O  O381  1  0.12027007  0.75267788  0.25267159  1
  O  O382  1  0.12461929  0.74247349  0.76378971  1
  O  O383  1  0.61284846  0.26390863  0.24200118  1
  O  O384  1  0.62454457  0.25902009  0.76233086  1
  O  O385  1  0.63008385  0.74267460  0.26835426  1
  O  O386  1  0.60879279  0.74810522  0.75074836  1
  O  O387  1  0.37550355  0.24620296  0.23388314  1
  O  O388  1  0.36771055  0.23320445  0.75137065  1
  O  O389  1  0.36603955  0.73679162  0.23956841  1
  O  O390  1  0.38447714  0.74187997  0.74955816  1
  O  O391  1  0.87450939  0.25550366  0.23378327  1
  O  O392  1  0.87659982  0.23961860  0.74533724  1
  O  O393  1  0.88437534  0.74534481  0.24561132  1
  O  O394  1  0.88307038  0.74164090  0.74043741  1
  O  O395  1  0.38248364  0.49594727  0.49733732  1
  O  O396  1  0.37911922  0.48918512  0.99831240  1
  O  O397  1  0.37849929  0.98927846  0.49561847  1
  O  O398  1  0.37818110  1.00358512  0.98633227  1
  O  O399  1  0.88485917  0.49989132  0.49115723  1
  O  O400  1  0.87769630  0.48742700  0.99315346  1
  O  O401  1  0.88390739  0.99336188  0.49934846  1
  O  O402  1  0.88753755  0.99566391  0.99540895  1
  O  O403  1  0.11266218  -0.00239986  0.00735988  1
  O  O404  1  0.11972666  0.01086348  0.50329623  1
  O  O405  1  0.12238540  0.50897413  0.00849691  1
  O  O406  1  0.12027963  0.50458573  0.50829562  1
  O  O407  1  0.61979239  0.00443497  0.00379887  1
  O  O408  1  0.61410054  -0.00774714  0.50884874  1
  O  O409  1  0.61505986  0.49838807  0.00693026  1
  O  O410  1  0.61602347  0.51164469  0.49419520  1
  O  O411  1  0.36738104  0.36916483  0.11537715  1
  O  O412  1  0.37882510  0.37503527  0.61762367  1
  O  O413  1  0.36543261  0.86425100  0.13477417  1
  O  O414  1  0.36314402  0.87491483  0.61663165  1
  O  O415  1  0.86816082  0.37137830  0.11686225  1
  O  O416  1  0.85982781  0.36278810  0.63223850  1
  O  O417  1  0.88827120  0.86314030  0.11623119  1
  O  O418  1  0.87145798  0.87055297  0.61345343  1
  O  O419  1  0.13953167  0.11795196  0.38409702  1
  O  O420  1  0.13450031  0.13170281  0.87125389  1
  O  O421  1  0.13386654  0.62776148  0.38174057  1
  O  O422  1  0.11315051  0.63249583  0.88631110  1
  O  O423  1  0.62882052  0.12511744  0.37330078  1
  O  O424  1  0.62114597  0.13525085  0.87170315  1
  O  O425  1  0.63299920  0.63241181  0.38429957  1
  O  O426  1  0.63006530  0.62585083  0.87541604  1
