# generated using pymatgen
data_V85Zn86O256
_symmetry_space_group_name_H-M   'P 1'
_cell_length_a   16.93242908
_cell_length_b   16.94915914
_cell_length_c   16.94300204
_cell_angle_alpha   90.07173199
_cell_angle_beta   89.98099737
_cell_angle_gamma   89.98305965
_symmetry_Int_Tables_number   1
_chemical_formula_structural   V85Zn86O256
_chemical_formula_sum   'V85 Zn86 O256'
_cell_volume   4862.47523691
_cell_formula_units_Z   1
loop_
 _symmetry_equiv_pos_site_id
 _symmetry_equiv_pos_as_xyz
  1  'x, y, z'
loop_
 _atom_site_type_symbol
 _atom_site_label
 _atom_site_symmetry_multiplicity
 _atom_site_fract_x
 _atom_site_fract_y
 _atom_site_fract_z
 _atom_site_occupancy
  V  V0  1  0.37213340  0.62878639  0.24681894  1
  V  V1  1  0.63011771  0.00493856  0.63414732  1
  V  V2  1  0.74650828  0.12099673  0.87360636  1
  V  V3  1  0.24669866  0.12275700  0.37897834  1
  V  V4  1  0.62397710  0.74867865  0.87400087  1
  V  V5  1  -0.00564809  0.37272187  0.38471637  1
  V  V6  1  0.12886209  0.75050267  0.87420018  1
  V  V7  1  0.60618113  0.36575748  0.75416473  1
  V  V8  1  0.75819696  0.47710576  0.75193654  1
  V  V9  1  0.50062493  0.24754184  0.25023304  1
  V  V10  1  0.73815283  0.75150057  0.49764778  1
  V  V11  1  0.36657130  0.62436469  0.74620925  1
  V  V12  1  0.75314058  -0.00180403  0.25671998  1
  V  V13  1  0.62445677  0.37528804  0.24803826  1
  V  V14  1  0.61784067  0.87028600  0.26686489  1
  V  V15  1  0.37810990  0.25633497  0.63206701  1
  V  V16  1  0.49796190  0.87700625  0.87559040  1
  V  V17  1  0.12380612  0.12491432  -0.00787914  1
  V  V18  1  0.61469243  0.24993223  0.88099377  1
  V  V19  1  0.87427508  0.62208878  0.74009715  1
  V  V20  1  0.62531053  0.25135006  0.37802982  1
  V  V21  1  0.00985752  0.50300511  0.50029136  1
  V  V22  1  0.87697439  0.26021366  0.62164270  1
  V  V23  1  0.50204481  0.13345739  0.62966737  1
  V  V24  1  0.49830842  -0.00769605  0.49969074  1
  V  V25  1  0.37363819  0.24920781  0.12579960  1
  V  V26  1  0.62652391  0.00401335  0.12111957  1
  V  V27  1  0.11883208  0.49663968  0.11879330  1
  V  V28  1  0.37957089  0.37629047  -0.00739240  1
  V  V29  1  0.87136804  0.88363536  0.49134244  1
  V  V30  1  0.87496200  0.24832889  0.12695951  1
  V  V31  1  0.62499272  0.13011931  0.50279395  1
  V  V32  1  0.88636996  0.50147489  0.88118952  1
  V  V33  1  0.87464760  0.87476874  -0.00183515  1
  V  V34  1  -0.00360338  0.62054373  0.12129755  1
  V  V35  1  0.37589476  0.12228101  0.25016982  1
  V  V36  1  0.13003609  0.87924654  0.73576473  1
  V  V37  1  0.37472502  0.12723265  0.75130860  1
  V  V38  1  0.74895743  0.74916749  -0.00097505  1
  V  V39  1  0.00101930  0.74769961  0.74774700  1
  V  V40  1  -0.00065927  0.24778653  0.25418877  1
  V  V41  1  0.01532764  -0.00064962  0.49334887  1
  V  V42  1  0.49854294  0.74792245  0.74446450  1
  V  V43  1  0.24707014  0.24905941  0.50204768  1
  V  V44  1  0.25093845  -0.00918067  0.24728420  1
  V  V45  1  0.87972024  0.75080791  0.12835341  1
  V  V46  1  0.75571361  0.12374859  0.38064284  1
  V  V47  1  0.01084276  0.62555464  0.62063728  1
  V  V48  1  0.12396563  0.62210105  -0.00127639  1
  V  V49  1  0.73335243  0.63129715  0.37679682  1
  V  V50  1  0.87524976  0.12098880  0.25438303  1
  V  V51  1  0.87230321  -0.00097360  0.86843560  1
  V  V52  1  0.12321733  0.37269407  0.25145053  1
  V  V53  1  0.01258302  0.11785324  0.62151924  1
  V  V54  1  0.12478005  0.24694087  0.37899776  1
  V  V55  1  0.62030105  0.50207136  0.12150175  1
  V  V56  1  0.75028219  0.24317794  0.00052649  1
  V  V57  1  0.00049441  0.87442818  0.87255767  1
  V  V58  1  0.75402550  0.88023415  0.63396569  1
  V  V59  1  0.75310159  0.26605444  0.50457345  1
  V  V60  1  0.38165455  0.37627692  0.49657649  1
  V  V61  1  0.87751639  0.62862682  0.25448023  1
  V  V62  1  0.12885641  -0.00752540  0.12261808  1
  V  V63  1  0.11826530  0.86835920  0.25136160  1
  V  V64  1  0.88066251  0.37779918  0.00336298  1
  V  V65  1  0.24739439  0.50481209  0.25278551  1
  V  V66  1  0.36612125  0.87527755  0.00486928  1
  V  V67  1  0.00148169  0.12187919  0.12664671  1
  V  V68  1  0.74966980  0.50127483  0.24981592  1
  V  V69  1  0.24559398  0.24883653  -0.00809037  1
  V  V70  1  0.13298996  0.37632212  0.75672900  1
  V  V71  1  0.74715602  0.87430323  0.12649894  1
  V  V72  1  0.75222846  0.62375132  0.87267156  1
  V  V73  1  0.87117007  0.12148589  0.74253078  1
  V  V74  1  0.38014173  -0.01141193  0.37890298  1
  V  V75  1  0.23752000  0.74431077  0.49234697  1
  V  V76  1  0.24893731  0.37231740  0.12482412  1
  V  V77  1  0.37741839  0.50600557  0.37532944  1
  V  V78  1  0.49997773  0.49901727  -0.01662648  1
  V  V79  1  0.00408042  0.36459545  0.87668983  1
  V  V80  1  0.87097190  0.49908371  0.38588072  1
  V  V81  1  0.11637925  0.73308318  0.36889662  1
  V  V82  1  0.25084759  0.38966476  0.62461376  1
  V  V83  1  0.50231745  0.00700397  -0.00259146  1
  V  V84  1  0.37696681  0.76244749  0.61423116  1
  Zn  Zn85  1  0.37340608  0.49506601  0.86212129  1
  Zn  Zn86  1  0.25843840  0.88961018  0.60259948  1
  Zn  Zn87  1  -0.00021281  -0.00097990  -0.00107386  1
  Zn  Zn88  1  0.24166566  0.12632511  0.86704969  1
  Zn  Zn89  1  0.13327741  0.50658848  0.62742886  1
  Zn  Zn90  1  0.36884371  0.00104133  0.87162178  1
  Zn  Zn91  1  -0.00494506  0.87259479  0.36999718  1
  Zn  Zn92  1  0.49696443  0.63105783  0.12063821  1
  Zn  Zn93  1  0.24689305  0.75285260  0.00562247  1
  Zn  Zn94  1  0.36927956  0.75436712  0.12815936  1
  Zn  Zn95  1  0.49940565  0.37581081  0.37460201  1
  Zn  Zn96  1  0.50635972  0.12678114  0.12136240  1
  Zn  Zn97  1  0.24691517  0.00511456  0.74078700  1
  Zn  Zn98  1  0.24802520  0.61513240  0.87187605  1
  Zn  Zn99  1  0.63880651  0.47740632  0.62539919  1
  Zn  Zn100  1  0.62854428  0.88091940  0.75290167  1
  Zn  Zn101  1  0.50371587  0.74984377  0.25005760  1
  Zn  Zn102  1  0.00624507  0.24581322  0.74974908  1
  Zn  Zn103  1  0.62148919  0.62462013  -0.00235474  1
  Zn  Zn104  1  0.87471552  0.75122371  0.62013474  1
  Zn  Zn105  1  0.56221490  0.58164977  0.55647246  1
  Zn  Zn106  1  0.74989689  0.37460284  0.12258425  1
  Zn  Zn107  1  0.18775048  0.18213771  0.18682852  1
  Zn  Zn108  1  0.18966851  0.19608999  0.68693973  1
  Zn  Zn109  1  0.18999564  0.69030768  0.18365561  1
  Zn  Zn110  1  0.19370951  0.69692529  0.68071172  1
  Zn  Zn111  1  0.68914803  0.18610203  0.18907439  1
  Zn  Zn112  1  0.69107647  0.19617371  0.69099814  1
  Zn  Zn113  1  0.68821197  0.68737102  0.18691739  1
  Zn  Zn114  1  0.68885352  0.68912033  0.68128484  1
  Zn  Zn115  1  0.31109633  0.31318299  0.31283414  1
  Zn  Zn116  1  0.31113135  0.31389234  0.81206782  1
  Zn  Zn117  1  0.30653154  0.80860581  0.31998639  1
  Zn  Zn118  1  0.31175998  0.81274767  0.81440186  1
  Zn  Zn119  1  0.81081992  0.31277842  0.31499613  1
  Zn  Zn120  1  0.82427436  0.30130039  0.81906894  1
  Zn  Zn121  1  0.80889151  0.81114497  0.31388162  1
  Zn  Zn122  1  0.81383613  0.80913568  0.80951284  1
  Zn  Zn123  1  0.19029838  0.43730246  0.43776635  1
  Zn  Zn124  1  0.19171284  0.43967994  0.93609194  1
  Zn  Zn125  1  0.19101328  0.92798295  0.43092743  1
  Zn  Zn126  1  0.18790620  0.94290499  0.92792125  1
  Zn  Zn127  1  0.67951874  0.44376335  0.43599560  1
  Zn  Zn128  1  0.69098695  0.43343442  0.93527322  1
  Zn  Zn129  1  0.68749768  0.94353960  0.44457886  1
  Zn  Zn130  1  0.68615716  0.93769269  0.93810482  1
  Zn  Zn131  1  0.31198357  0.06005684  0.06130796  1
  Zn  Zn132  1  0.31316497  0.06421910  0.56461535  1
  Zn  Zn133  1  0.30954569  0.56098660  0.06139450  1
  Zn  Zn134  1  0.37059360  0.59433409  0.53577161  1
  Zn  Zn135  1  0.81313474  0.06066554  0.06174575  1
  Zn  Zn136  1  0.81412277  0.06335073  0.56176038  1
  Zn  Zn137  1  0.80779413  0.56188034  0.06161146  1
  Zn  Zn138  1  0.77797146  0.54756249  0.54853147  1
  Zn  Zn139  1  0.43757661  0.43837279  0.18426960  1
  Zn  Zn140  1  0.44489296  0.44821114  0.67625454  1
  Zn  Zn141  1  0.44019438  0.93966835  0.18482573  1
  Zn  Zn142  1  0.44077447  0.94229320  0.68832445  1
  Zn  Zn143  1  0.93624330  0.43754264  0.19258843  1
  Zn  Zn144  1  0.94622705  0.43874165  0.69057070  1
  Zn  Zn145  1  0.93745661  0.93796313  0.18761014  1
  Zn  Zn146  1  0.94074744  0.93847666  0.68413225  1
  Zn  Zn147  1  0.06520601  0.05808630  0.31479291  1
  Zn  Zn148  1  0.05804951  0.05925552  0.80931102  1
  Zn  Zn149  1  0.05542811  0.55774336  0.30612780  1
  Zn  Zn150  1  0.06409905  0.55802704  0.81093835  1
  Zn  Zn151  1  0.56586692  0.06017363  0.31365225  1
  Zn  Zn152  1  0.56047069  0.06863236  0.81275215  1
  Zn  Zn153  1  0.55514116  0.56252334  0.30898737  1
  Zn  Zn154  1  0.58330389  0.57706673  0.76815482  1
  Zn  Zn155  1  0.43596852  0.18586930  0.43928056  1
  Zn  Zn156  1  0.43271249  0.18762253  0.93972835  1
  Zn  Zn157  1  0.47605168  0.70601533  0.43251516  1
  Zn  Zn158  1  0.43623591  0.68600805  0.93413282  1
  Zn  Zn159  1  0.93722868  0.18357565  0.44440591  1
  Zn  Zn160  1  0.93632600  0.18456604  0.93875187  1
  Zn  Zn161  1  0.93202327  0.68974044  0.44144060  1
  Zn  Zn162  1  0.94061805  0.68695916  0.93828688  1
  Zn  Zn163  1  0.06091850  0.30881536  0.06239144  1
  Zn  Zn164  1  0.06423448  0.31287088  0.56635293  1
  Zn  Zn165  1  0.06111923  0.81109866  0.06167976  1
  Zn  Zn166  1  0.05951349  0.80955375  0.55567152  1
  Zn  Zn167  1  0.56183544  0.31318006  0.06145473  1
  Zn  Zn168  1  0.56210516  0.32211030  0.56863036  1
  Zn  Zn169  1  0.55734990  0.81414533  0.06569002  1
  Zn  Zn170  1  0.56603225  0.81739308  0.56614809  1
  O  O171  1  0.11921452  0.11324216  0.11974984  1
  O  O172  1  0.11026994  0.13132704  0.62912688  1
  O  O173  1  0.11444919  0.61724310  0.12084758  1
  O  O174  1  0.11504922  0.62539085  0.63151135  1
  O  O175  1  0.62652125  0.10959479  0.13159130  1
  O  O176  1  0.62120031  0.12566050  0.62438928  1
  O  O177  1  0.62414008  0.61582419  0.12168253  1
  O  O178  1  0.61881624  0.60604209  0.65734541  1
  O  O179  1  0.37521289  0.38013301  0.38045835  1
  O  O180  1  0.37325745  0.37232720  0.88891135  1
  O  O181  1  0.37110963  0.89052656  0.36803131  1
  O  O182  1  0.38337145  0.87851905  0.88108581  1
  O  O183  1  0.88389791  0.38532509  0.36762286  1
  O  O184  1  0.88483898  0.37996061  0.88389946  1
  O  O185  1  0.87533022  0.87387379  0.38685501  1
  O  O186  1  0.87788433  0.88134586  0.87575810  1
  O  O187  1  0.25660690  0.00733447  0.36975658  1
  O  O188  1  0.25140838  0.00888129  0.86208718  1
  O  O189  1  0.25842396  0.48908842  0.36069426  1
  O  O190  1  0.26033235  0.50196173  0.87708234  1
  O  O191  1  0.74656529  0.01135146  0.36898569  1
  O  O192  1  0.75470417  0.01239824  0.87981538  1
  O  O193  1  0.75605786  0.50794334  0.36752961  1
  O  O194  1  0.76218178  0.50300356  0.86787825  1
  O  O195  1  0.23944547  0.49033910  0.13092574  1
  O  O196  1  0.25159098  0.48881175  0.61652308  1
  O  O197  1  0.24084352  1.00400375  0.13510684  1
  O  O198  1  0.25080150  0.99808355  0.62653334  1
  O  O199  1  0.73860126  0.49779690  0.13045585  1
  O  O200  1  0.75936255  0.49434634  0.64977284  1
  O  O201  1  0.74573350  0.99465417  0.13137764  1
  O  O202  1  0.74172152  0.99401420  0.61930357  1
  O  O203  1  0.00440774  0.36809504  0.26073249  1
  O  O204  1  0.00895903  0.37085865  0.76021615  1
  O  O205  1  0.01266663  0.87985520  0.25061675  1
  O  O206  1  0.00712013  0.86750003  0.75254867  1
  O  O207  1  0.51113599  0.36771692  0.24768807  1
  O  O208  1  0.50867965  0.37660166  0.75302935  1
  O  O209  1  0.51765708  0.88486032  0.24780915  1
  O  O210  1  0.50131623  0.86966229  0.76246083  1
  O  O211  1  0.49218833  0.12837024  0.24887575  1
  O  O212  1  0.49415305  0.12622421  0.73690779  1
  O  O213  1  0.48656434  0.62591452  0.24403238  1
  O  O214  1  0.48970599  0.64548981  0.75893890  1
  O  O215  1  0.99494297  0.12672261  0.24801397  1
  O  O216  1  0.99262081  0.12381561  0.73776293  1
  O  O217  1  0.98489476  0.62095439  0.23790709  1
  O  O218  1  0.99455392  0.62766767  0.74360406  1
  O  O219  1  0.36676644  0.25492341  0.00772946  1
  O  O220  1  0.36570018  0.25736023  0.50502555  1
  O  O221  1  0.37549913  0.76670809  -0.00416878  1
  O  O222  1  0.38611468  0.75880410  0.51539730  1
  O  O223  1  0.87019309  0.25446663  0.00780472  1
  O  O224  1  0.86869393  0.24775919  0.51282498  1
  O  O225  1  0.86940127  0.75494464  0.00480997  1
  O  O226  1  0.86912349  0.76731253  0.50204480  1
  O  O227  1  0.13863127  0.25559682  0.49513092  1
  O  O228  1  0.13408589  0.23761745  1.00947759  1
  O  O229  1  0.13026882  0.74316820  0.49055335  1
  O  O230  1  0.12180269  0.74106864  0.99132871  1
  O  O231  1  0.63236222  0.24844861  0.49842523  1
  O  O232  1  0.63630104  0.25509291  0.99094467  1
  O  O233  1  0.63743063  0.75014560  0.50823366  1
  O  O234  1  0.62881315  0.74945276  0.99082851  1
  O  O235  1  0.49400537  0.24579878  0.13054595  1
  O  O236  1  0.48975200  0.24550916  0.61961358  1
  O  O237  1  0.49032291  0.75021374  0.13247403  1
  O  O238  1  0.49454426  0.76085919  0.63871421  1
  O  O239  1  0.99531101  0.24099135  0.13392658  1
  O  O240  1  0.99121038  0.23637147  0.61911121  1
  O  O241  1  0.98600020  0.74151222  0.12070611  1
  O  O242  1  0.99642327  0.74136826  0.62788889  1
  O  O243  1  0.00223979  0.25476597  0.37575274  1
  O  O244  1  -0.00584285  0.26080979  0.87368760  1
  O  O245  1  0.01284777  0.75157066  0.38301994  1
  O  O246  1  0.00828832  0.75342613  0.86820715  1
  O  O247  1  0.50732621  0.24899230  0.36775437  1
  O  O248  1  0.51622184  0.24587632  0.88629673  1
  O  O249  1  0.50694585  0.77169542  0.35853969  1
  O  O250  1  0.50724745  0.75826877  0.86960280  1
  O  O251  1  0.25841880  0.13571500  0.48872529  1
  O  O252  1  0.24149964  0.13145274  0.99918411  1
  O  O253  1  0.27039023  0.64955869  0.50179907  1
  O  O254  1  0.23316716  0.62439205  0.99995605  1
  O  O255  1  0.74524876  0.13215758  0.49460759  1
  O  O256  1  0.75743449  0.13585603  0.99246167  1
  O  O257  1  0.76362674  0.64244243  0.48665332  1
  O  O258  1  0.74651564  0.63085887  0.99007441  1
  O  O259  1  0.25324396  0.36589087  0.00807031  1
  O  O260  1  0.25842525  0.36807456  0.50552215  1
  O  O261  1  0.26416875  0.87919921  -0.00866966  1
  O  O262  1  0.25325448  0.85473258  0.49151563  1
  O  O263  1  0.76380313  0.36328090  -0.00072935  1
  O  O264  1  0.74763898  0.36448892  0.49373679  1
  O  O265  1  0.75558596  0.86935889  0.00574038  1
  O  O266  1  0.75787134  0.87248549  0.50585169  1
  O  O267  1  0.12938514  0.49295978  0.24167273  1
  O  O268  1  0.11942372  0.48268182  0.74461324  1
  O  O269  1  0.13232884  0.99299451  0.24310856  1
  O  O270  1  0.12013872  0.98151485  0.75095273  1
  O  O271  1  0.62743815  0.49281327  0.24248082  1
  O  O272  1  0.64339815  0.47584184  0.76283194  1
  O  O273  1  0.63658744  0.99324332  0.24517247  1
  O  O274  1  0.62053629  1.00198730  0.73793483  1
  O  O275  1  0.36971720  0.00548519  0.25373881  1
  O  O276  1  0.37630410  0.01414575  0.75057438  1
  O  O277  1  0.36547340  0.50140672  0.25389707  1
  O  O278  1  0.38509357  0.52127868  0.74276585  1
  O  O279  1  0.86132784  0.00412529  0.24624769  1
  O  O280  1  0.87873561  0.00556775  0.76004484  1
  O  O281  1  0.86724219  0.50788736  0.25650736  1
  O  O282  1  0.87228473  0.50308781  0.75992444  1
  O  O283  1  0.11664930  0.36782275  0.37022074  1
  O  O284  1  0.11903942  0.37827032  0.86658643  1
  O  O285  1  0.11895820  0.86473600  0.36446592  1
  O  O286  1  0.11742298  0.86653067  0.87058484  1
  O  O287  1  0.62186629  0.37203041  0.36680800  1
  O  O288  1  0.63108941  0.35838900  0.86820235  1
  O  O289  1  0.63234300  0.88289131  0.36423963  1
  O  O290  1  0.62024220  0.86544967  0.87349466  1
  O  O291  1  0.37397263  0.12846833  0.13718991  1
  O  O292  1  0.38300499  0.13680768  0.63182617  1
  O  O293  1  0.37501988  0.62139801  0.13446356  1
  O  O294  1  0.37693175  0.64842282  0.63953868  1
  O  O295  1  0.88152999  0.12788621  0.13237926  1
  O  O296  1  0.88243630  0.12816522  0.63064228  1
  O  O297  1  0.87823747  0.62968282  0.12866424  1
  O  O298  1  0.88135396  0.62213893  0.63689604  1
  O  O299  1  0.25461548  0.25368714  0.12069138  1
  O  O300  1  0.25873254  0.25894369  0.61611594  1
  O  O301  1  0.25468485  0.75103692  0.11836288  1
  O  O302  1  0.26101344  0.76113881  0.61221241  1
  O  O303  1  0.75593750  0.24946187  0.11809179  1
  O  O304  1  0.76687992  0.24642403  0.61857933  1
  O  O305  1  0.75960189  0.75335093  0.11801541  1
  O  O306  1  0.75337269  0.76049879  0.61837773  1
  O  O307  1  0.24599572  0.24287110  0.38062186  1
  O  O308  1  0.25055845  0.24757856  0.88864165  1
  O  O309  1  0.23184946  0.74651995  0.38218007  1
  O  O310  1  0.23621909  0.74750843  0.87981042  1
  O  O311  1  0.74498538  0.24442209  0.38325016  1
  O  O312  1  0.74999256  0.23827348  0.88345859  1
  O  O313  1  0.74894175  0.74283670  0.38301168  1
  O  O314  1  0.74370907  0.74583206  0.87837929  1
  O  O315  1  0.00628964  0.12420715  0.00891584  1
  O  O316  1  -0.00139750  0.11017455  0.50894678  1
  O  O317  1  0.00752879  0.62515083  0.01192211  1
  O  O318  1  -0.00898541  0.61552764  0.51087451  1
  O  O319  1  0.49304682  0.11114001  0.00168864  1
  O  O320  1  0.50667143  0.12475934  0.51160785  1
  O  O321  1  0.50116761  0.61494496  0.00043714  1
  O  O322  1  0.47710418  0.62059999  0.49800250  1
  O  O323  1  0.48489984  0.36559245  0.49453180  1
  O  O324  1  0.48982186  0.38407581  1.00617490  1
  O  O325  1  0.50610518  0.89371570  0.50563876  1
  O  O326  1  0.49380149  0.88385458  0.99014870  1
  O  O327  1  1.00224179  0.38152008  0.49009644  1
  O  O328  1  0.98906412  0.36938724  0.99526774  1
  O  O329  1  0.98947174  0.88615975  0.50098768  1
  O  O330  1  0.99179321  0.87466217  0.99101388  1
  O  O331  1  0.48182329  0.49335482  0.36626014  1
  O  O332  1  0.49519435  0.50191057  0.88362677  1
  O  O333  1  0.49297460  1.01028454  0.38759667  1
  O  O334  1  0.50208109  0.99354144  0.88062960  1
  O  O335  1  0.99229973  0.49291197  0.38132123  1
  O  O336  1  0.99020097  0.48983604  0.87407387  1
  O  O337  1  1.00022313  0.99886057  0.38920202  1
  O  O338  1  0.98953184  0.99288351  0.87694937  1
  O  O339  1  0.00615598  0.00717581  0.12240220  1
  O  O340  1  -0.00051843  0.01094870  0.61442049  1
  O  O341  1  0.00688985  0.50676910  0.13058478  1
  O  O342  1  0.00168674  0.50696531  0.61564892  1
  O  O343  1  0.50930907  0.00237149  0.11579545  1
  O  O344  1  0.50730271  0.01143181  0.61801566  1
  O  O345  1  0.51255657  0.49990346  0.11948778  1
  O  O346  1  0.52432058  0.48086760  0.60809200  1
  O  O347  1  0.24164852  0.37772650  0.24225047  1
  O  O348  1  0.24085150  0.37272822  0.74210935  1
  O  O349  1  0.23929940  0.88611205  0.25633436  1
  O  O350  1  0.23401998  0.87254740  0.75076169  1
  O  O351  1  0.73875590  0.37959027  0.24913409  1
  O  O352  1  0.76243284  0.37804423  0.75946613  1
  O  O353  1  0.74488071  0.88274860  0.24591329  1
  O  O354  1  0.75055078  0.87310291  0.73784024  1
  O  O355  1  0.25663277  0.11513644  0.25676552  1
  O  O356  1  0.25915436  0.13033335  0.74857330  1
  O  O357  1  0.25242292  0.60929200  0.24325031  1
  O  O358  1  0.26312103  0.63377474  0.74873435  1
  O  O359  1  0.75475749  0.11841848  0.25962105  1
  O  O360  1  0.76298421  0.12998670  0.75849413  1
  O  O361  1  0.75818748  0.62203589  0.25704298  1
  O  O362  1  0.76118808  0.62097808  0.75752507  1
  O  O363  1  0.36682518  0.12159876  0.36372576  1
  O  O364  1  0.37647808  0.12944619  0.85981309  1
  O  O365  1  0.37095517  0.60752222  0.36256867  1
  O  O366  1  0.36972375  0.62939170  0.85882046  1
  O  O367  1  0.86325095  0.13100839  0.37131575  1
  O  O368  1  0.87084309  0.11685851  0.86729047  1
  O  O369  1  0.87310265  0.61820573  0.36669441  1
  O  O370  1  0.87477855  0.61663512  0.86965595  1
  O  O371  1  0.12590077  0.38016716  0.12966047  1
  O  O372  1  0.13446100  0.37872073  0.63199962  1
  O  O373  1  0.11862658  0.88622673  0.12877423  1
  O  O374  1  0.12506504  0.86646256  0.63485882  1
  O  O375  1  0.62840200  0.38047666  0.13183385  1
  O  O376  1  0.63358786  0.35940405  0.65094221  1
  O  O377  1  0.63276988  0.88560150  0.12743766  1
  O  O378  1  0.63534681  0.88775751  0.62797242  1
  O  O379  1  0.11819771  0.25207693  0.25624859  1
  O  O380  1  0.12147719  0.26865835  0.74558949  1
  O  O381  1  0.12633376  0.75442731  0.25956862  1
  O  O382  1  0.12027776  0.75681593  0.75575734  1
  O  O383  1  0.62272198  0.25704117  0.25525432  1
  O  O384  1  0.62722560  0.25790196  0.76627395  1
  O  O385  1  0.63035245  0.76866421  0.24354762  1
  O  O386  1  0.61413843  0.75569247  0.75525137  1
  O  O387  1  0.37888517  0.24241854  0.24606328  1
  O  O388  1  0.37165874  0.24882722  0.73778976  1
  O  O389  1  0.36448634  0.73503705  0.25357562  1
  O  O390  1  0.38394014  0.74996209  0.74697041  1
  O  O391  1  0.87945699  0.24342788  0.24617380  1
  O  O392  1  0.88231531  0.23940255  0.73894246  1
  O  O393  1  0.86844663  0.74137261  0.24060481  1
  O  O394  1  0.88320160  0.73914654  0.74784607  1
  O  O395  1  0.36402383  0.49106493  0.48124915  1
  O  O396  1  0.38385679  0.49061733  1.00313816  1
  O  O397  1  0.38773974  1.00921931  0.49146985  1
  O  O398  1  0.38182551  0.99196210  0.99545202  1
  O  O399  1  0.87557311  0.50215877  0.48820618  1
  O  O400  1  0.86965351  0.49021593  0.99348149  1
  O  O401  1  0.87889147  0.98695351  0.50158818  1
  O  O402  1  0.87507707  0.99303405  0.98821386  1
  O  O403  1  0.12460588  0.00567393  0.00683100  1
  O  O404  1  0.11383146  -0.00933200  0.49531097  1
  O  O405  1  0.12451643  0.50370394  0.01206708  1
  O  O406  1  0.11303173  0.49904873  0.49933616  1
  O  O407  1  0.61638835  -0.00355637  0.00844304  1
  O  O408  1  0.61864662  0.01208208  0.51014651  1
  O  O409  1  0.61922411  0.49733735  0.00353202  1
  O  O410  1  0.66300409  0.51798907  0.51761954  1
  O  O411  1  0.36760593  0.36866886  0.11918108  1
  O  O412  1  0.37037624  0.37240501  0.61789453  1
  O  O413  1  0.37807147  0.87989302  0.10791762  1
  O  O414  1  0.37447208  0.86574664  0.63377397  1
  O  O415  1  0.87446942  0.36907614  0.12029905  1
  O  O416  1  0.88682453  0.35813330  0.63049044  1
  O  O417  1  0.86957840  0.86728016  0.12141870  1
  O  O418  1  0.86807959  0.87690900  0.61688801  1
  O  O419  1  0.13844014  0.13046484  0.36968212  1
  O  O420  1  0.11855178  0.12083740  0.88832896  1
  O  O421  1  0.11688057  0.63396458  0.36485864  1
  O  O422  1  0.12155338  0.62999943  0.88228661  1
  O  O423  1  0.63538820  0.13213877  0.38033031  1
  O  O424  1  0.63492094  0.13742861  0.86977573  1
  O  O425  1  0.63428662  0.61850979  0.37007447  1
  O  O426  1  0.63177918  0.63666507  0.86721456  1
