# generated using pymatgen
data_V85Zn86O256
_symmetry_space_group_name_H-M   'P 1'
_cell_length_a   16.95187152
_cell_length_b   16.95729023
_cell_length_c   16.95633892
_cell_angle_alpha   89.97858221
_cell_angle_beta   89.98300457
_cell_angle_gamma   90.05736604
_symmetry_Int_Tables_number   1
_chemical_formula_structural   V85Zn86O256
_chemical_formula_sum   'V85 Zn86 O256'
_cell_volume   4874.22897482
_cell_formula_units_Z   1
loop_
 _symmetry_equiv_pos_site_id
 _symmetry_equiv_pos_as_xyz
  1  'x, y, z'
loop_
 _atom_site_type_symbol
 _atom_site_label
 _atom_site_symmetry_multiplicity
 _atom_site_fract_x
 _atom_site_fract_y
 _atom_site_fract_z
 _atom_site_occupancy
  V  V0  1  0.74687941  0.25820211  0.00078364  1
  V  V1  1  0.00057509  0.50616459  0.00047064  1
  V  V2  1  0.62390854  0.87440669  0.24921475  1
  V  V3  1  -0.04633177  0.30709680  0.30302988  1
  V  V4  1  0.37308553  0.61892307  0.25278393  1
  V  V5  1  0.87601963  0.87624542  0.00242579  1
  V  V6  1  0.87514863  0.00246220  0.87626861  1
  V  V7  1  0.00352576  -0.01097416  0.49724103  1
  V  V8  1  0.25261990  0.37496611  0.62717233  1
  V  V9  1  0.25254120  0.12530786  0.36935259  1
  V  V10  1  0.24968871  0.24856066  0.49962575  1
  V  V11  1  0.62377585  0.62202509  0.00122721  1
  V  V12  1  0.12805395  0.49870057  0.12569344  1
  V  V13  1  0.62253141  0.12521437  -0.00220457  1
  V  V14  1  0.49743336  0.62025171  0.12536791  1
  V  V15  1  0.74691291  0.75277088  0.50809776  1
  V  V16  1  -0.00009221  0.62495938  0.62571492  1
  V  V17  1  0.62863788  -0.00457312  0.62559123  1
  V  V18  1  0.24861960  0.87459197  0.62748435  1
  V  V19  1  -0.00001206  0.12472266  0.62434283  1
  V  V20  1  0.25355067  0.36939421  0.12174261  1
  V  V21  1  0.75311692  -0.00734349  0.74573760  1
  V  V22  1  0.61243815  0.25088639  0.86657139  1
  V  V23  1  0.62521551  0.75504888  0.87642101  1
  V  V24  1  0.75348231  0.74891975  0.00231821  1
  V  V25  1  0.87597710  0.12508109  0.25173550  1
  V  V26  1  0.00291788  0.00428238  0.00147511  1
  V  V27  1  0.07159834  0.57282795  0.46035843  1
  V  V28  1  0.37735332  0.00427619  0.37473362  1
  V  V29  1  0.00012474  0.37635040  0.88019166  1
  V  V30  1  0.25173999  0.62098197  0.37820378  1
  V  V31  1  0.74737808  0.49379792  0.75173698  1
  V  V32  1  0.76468687  0.62707221  0.36667933  1
  V  V33  1  0.74160608  0.12517923  0.37693955  1
  V  V34  1  0.12825902  0.50684616  0.62765685  1
  V  V35  1  0.61653705  0.13115447  0.50406917  1
  V  V36  1  0.25643018  -0.00186052  0.24861504  1
  V  V37  1  0.87375875  0.62774200  0.75144590  1
  V  V38  1  0.25514853  0.50133598  0.76346664  1
  V  V39  1  0.49944678  0.50138038  0.49312048  1
  V  V40  1  0.12752196  -0.00217792  0.63397104  1
  V  V41  1  0.49783921  0.62417268  0.62105822  1
  V  V42  1  0.25104508  0.49255165  0.25098584  1
  V  V43  1  0.62913359  0.49812590  0.62239138  1
  V  V44  1  0.86983222  0.25693964  0.12414958  1
  V  V45  1  0.62425126  0.00126662  0.12136403  1
  V  V46  1  0.00112817  0.13440456  0.13060187  1
  V  V47  1  0.37401492  0.36577493  -0.01318039  1
  V  V48  1  0.24708143  0.74506816  0.49957939  1
  V  V49  1  0.12638645  0.00035030  0.12711912  1
  V  V50  1  0.92086703  0.30705037  0.56756344  1
  V  V51  1  0.62338563  0.48960283  0.12542679  1
  V  V52  1  0.37543065  0.37769373  0.49024736  1
  V  V53  1  0.38939648  0.24540045  0.62833870  1
  V  V54  1  0.87299782  0.50094297  0.87919134  1
  V  V55  1  0.11544455  0.75487822  0.37368374  1
  V  V56  1  0.24474777  0.12564861  0.87079423  1
  V  V57  1  0.12552802  0.12219445  0.49792571  1
  V  V58  1  0.49025992  0.49679909  -0.01388129  1
  V  V59  1  0.75117850  0.87460463  0.12589166  1
  V  V60  1  0.49663929  0.87605404  0.37496023  1
  V  V61  1  0.00868385  0.75108798  0.75792744  1
  V  V62  1  0.87405973  0.12953536  0.74678634  1
  V  V63  1  0.86916378  0.87810127  0.50823227  1
  V  V64  1  0.49772604  0.00019267  0.51423721  1
  V  V65  1  0.88000832  0.74928812  0.13939576  1
  V  V66  1  0.13280161  0.63021778  -0.01209050  1
  V  V67  1  0.87879084  -0.00657746  0.37474138  1
  V  V68  1  0.52183359  0.36822054  0.37981300  1
  V  V69  1  0.75846155  0.50139583  0.24575565  1
  V  V70  1  0.50257180  0.75013800  0.74790227  1
  V  V71  1  -0.00159928  0.25463872  0.75317728  1
  V  V72  1  0.00259759  0.63498493  0.13354345  1
  V  V73  1  0.74376314  0.24878827  0.50792596  1
  V  V74  1  0.12721056  0.25875783  0.36156520  1
  V  V75  1  0.74966334  0.00125845  0.25052017  1
  V  V76  1  0.37404925  0.62115601  0.76185143  1
  V  V77  1  0.62409297  0.74737377  0.37390085  1
  V  V78  1  0.49107150  0.12645927  0.13033900  1
  V  V79  1  0.74995763  0.62479658  0.87761029  1
  V  V80  1  0.49631056  0.74835997  0.24926856  1
  V  V81  1  0.25090362  0.75731227  -0.01341649  1
  V  V82  1  0.38383580  0.12139360  0.74981165  1
  V  V83  1  0.36988369  0.75460807  0.12179076  1
  V  V84  1  0.11606057  0.87274455  0.25229839  1
  Zn  Zn85  1  0.36938198  -0.00621506  0.88046713  1
  Zn  Zn86  1  0.86963624  0.38008743  0.00622030  1
  Zn  Zn87  1  0.13142659  0.87546515  0.76251080  1
  Zn  Zn88  1  0.12695371  0.37608050  0.75355783  1
  Zn  Zn89  1  0.75305939  0.36047161  0.63295744  1
  Zn  Zn90  1  0.13310895  0.25736140  0.88925592  1
  Zn  Zn91  1  0.48733297  -0.01220609  -0.00015435  1
  Zn  Zn92  1  0.74900905  0.12725300  0.87407853  1
  Zn  Zn93  1  0.37327800  0.74857086  0.62222217  1
  Zn  Zn94  1  0.00570155  0.87168061  0.88043061  1
  Zn  Zn95  1  0.25479948  0.87893855  0.11899663  1
  Zn  Zn96  1  0.92233030  0.45162283  0.43448003  1
  Zn  Zn97  1  0.59995736  0.37875219  0.76170701  1
  Zn  Zn98  1  0.62635330  0.62515349  0.49672466  1
  Zn  Zn99  1  0.37335102  0.87448022  0.50239327  1
  Zn  Zn100  1  0.62769577  0.37013662  0.24630302  1
  Zn  Zn101  1  0.13778417  0.13455702  0.00656143  1
  Zn  Zn102  1  0.50412847  0.24486714  0.25816304  1
  Zn  Zn103  1  0.37314294  0.24923422  0.12852658  1
  Zn  Zn104  1  0.49136261  0.87605822  0.87897013  1
  Zn  Zn105  1  0.87260672  0.75534819  0.62883420  1
  Zn  Zn106  1  0.63456860  0.87008785  0.74190984  1
  Zn  Zn107  1  0.19029532  0.18624061  0.18904972  1
  Zn  Zn108  1  0.18737580  0.18803562  0.69305746  1
  Zn  Zn109  1  0.18807222  0.68758322  0.18740091  1
  Zn  Zn110  1  0.18887583  0.68513304  0.68841025  1
  Zn  Zn111  1  0.68192641  0.19173163  0.18821582  1
  Zn  Zn112  1  0.68376090  0.17947807  0.68688124  1
  Zn  Zn113  1  0.68599731  0.68470033  0.18634402  1
  Zn  Zn114  1  0.68651541  0.68099065  0.68790034  1
  Zn  Zn115  1  0.32159491  0.30868042  0.30657976  1
  Zn  Zn116  1  0.31317067  0.30537896  0.80957235  1
  Zn  Zn117  1  0.30792917  0.81264738  0.31102259  1
  Zn  Zn118  1  0.31303183  0.80809411  0.80827813  1
  Zn  Zn119  1  0.78453341  0.31391803  0.31912548  1
  Zn  Zn120  1  0.81296262  0.31079801  0.81761343  1
  Zn  Zn121  1  0.81234714  0.81591542  0.31661318  1
  Zn  Zn122  1  0.81864487  0.81329117  0.81566686  1
  Zn  Zn123  1  0.19388001  0.43325826  0.43304077  1
  Zn  Zn124  1  0.18820051  0.43745294  0.94175737  1
  Zn  Zn125  1  0.18980663  0.93382158  0.43924194  1
  Zn  Zn126  1  0.18937377  0.94366784  0.93374999  1
  Zn  Zn127  1  0.72293653  0.45427716  0.45387474  1
  Zn  Zn128  1  0.68122177  0.43359091  0.93742539  1
  Zn  Zn129  1  0.68505651  0.93791823  0.43934873  1
  Zn  Zn130  1  0.68662999  0.93710661  0.93675000  1
  Zn  Zn131  1  0.31169612  0.06304185  0.05068937  1
  Zn  Zn132  1  0.31222379  0.06134744  0.56479607  1
  Zn  Zn133  1  0.31282934  0.56311727  0.06058355  1
  Zn  Zn134  1  0.31435754  0.56114704  0.56271788  1
  Zn  Zn135  1  0.81051815  0.06923623  0.06263302  1
  Zn  Zn136  1  0.81091347  0.06500800  0.56467682  1
  Zn  Zn137  1  0.81422821  0.56547316  0.06849275  1
  Zn  Zn138  1  0.81523638  0.56644829  0.56106545  1
  Zn  Zn139  1  0.43739776  0.43230630  0.19086631  1
  Zn  Zn140  1  0.43460355  0.43934617  0.68529602  1
  Zn  Zn141  1  0.43753372  0.93962799  0.18490222  1
  Zn  Zn142  1  0.41989325  0.92231030  0.71371237  1
  Zn  Zn143  1  0.93677076  0.44460790  0.18281134  1
  Zn  Zn144  1  0.94019873  0.44561023  0.69318853  1
  Zn  Zn145  1  0.93921017  0.93861050  0.18718299  1
  Zn  Zn146  1  0.94083814  0.93756410  0.68743121  1
  Zn  Zn147  1  0.06426693  0.06290584  0.31191775  1
  Zn  Zn148  1  0.06250979  0.06440601  0.81443594  1
  Zn  Zn149  1  0.06102676  0.55764185  0.29955344  1
  Zn  Zn150  1  0.06422549  0.56243762  0.81151726  1
  Zn  Zn151  1  0.56206562  0.06224442  0.31305062  1
  Zn  Zn152  1  0.55865994  0.06047436  0.81177438  1
  Zn  Zn153  1  0.56479144  0.55919651  0.31122957  1
  Zn  Zn154  1  0.56392425  0.56625654  0.81126252  1
  Zn  Zn155  1  0.43728485  0.18851399  0.44075264  1
  Zn  Zn156  1  0.43541053  0.18157017  0.93803910  1
  Zn  Zn157  1  0.43341650  0.68701042  0.43644499  1
  Zn  Zn158  1  0.43734612  0.69058689  0.93918725  1
  Zn  Zn159  1  0.93794188  0.17413916  0.43582980  1
  Zn  Zn160  1  0.94285306  0.18978429  0.94106248  1
  Zn  Zn161  1  0.93228478  0.69714450  0.43567376  1
  Zn  Zn162  1  0.93899577  0.68738718  0.94222458  1
  Zn  Zn163  1  0.06153608  0.31654895  0.06657545  1
  Zn  Zn164  1  0.08225768  0.31775081  0.55709751  1
  Zn  Zn165  1  0.06838710  0.81493331  0.05984374  1
  Zn  Zn166  1  0.06397308  0.80960651  0.56292023  1
  Zn  Zn167  1  0.55685860  0.31127489  0.05604256  1
  Zn  Zn168  1  0.54915547  0.32661036  0.59428272  1
  Zn  Zn169  1  0.56027806  0.80980853  0.06332918  1
  Zn  Zn170  1  0.56193224  0.81580535  0.56235919  1
  O  O171  1  0.11798186  0.11699074  0.12892217  1
  O  O172  1  0.12107357  0.11821063  0.61843084  1
  O  O173  1  0.11726195  0.62121362  0.11845925  1
  O  O174  1  0.11982071  0.61515494  0.62333725  1
  O  O175  1  0.62077568  0.11572622  0.11827731  1
  O  O176  1  0.62457351  0.10854708  0.61595393  1
  O  O177  1  0.61589509  0.61912407  0.11809560  1
  O  O178  1  0.61402612  0.61611088  0.62384193  1
  O  O179  1  0.37460733  0.37341909  0.38885049  1
  O  O180  1  0.37170030  0.36979982  0.88773989  1
  O  O181  1  0.37654494  0.88608930  0.37564552  1
  O  O182  1  0.38612898  0.88934562  0.82776551  1
  O  O183  1  0.88930917  0.36244911  0.36073145  1
  O  O184  1  0.88429385  0.38302294  0.87926025  1
  O  O185  1  0.87261601  0.88764290  0.38462988  1
  O  O186  1  0.88225956  0.88455597  0.88436226  1
  O  O187  1  0.25598879  0.00549973  0.37003764  1
  O  O188  1  0.25230947  0.01741982  0.87296122  1
  O  O189  1  0.24272747  0.51128921  0.36556463  1
  O  O190  1  0.24634072  0.49669056  0.86213855  1
  O  O191  1  0.75587341  0.00618399  0.37123192  1
  O  O192  1  0.76246794  0.00253050  0.87155443  1
  O  O193  1  0.73876938  0.52136164  0.35840984  1
  O  O194  1  0.75100358  0.50434508  0.87134991  1
  O  O195  1  0.24481686  0.49610031  0.13077563  1
  O  O196  1  0.24597515  0.49195824  0.63025875  1
  O  O197  1  0.24280440  1.00326995  0.13238869  1
  O  O198  1  0.23784287  0.98843358  0.61451191  1
  O  O199  1  0.73925722  0.51093469  0.13716576  1
  O  O200  1  0.74257699  0.51012626  0.63912541  1
  O  O201  1  0.74441778  0.99670437  0.13083053  1
  O  O202  1  0.74379202  1.00248457  0.63438277  1
  O  O203  1  0.00354433  0.37252616  0.24739812  1
  O  O204  1  -0.00091986  0.37158641  0.75999064  1
  O  O205  1  0.01639409  0.88253801  0.24911654  1
  O  O206  1  -0.00032111  0.85836099  0.74789395  1
  O  O207  1  0.50527800  0.38392851  0.27290875  1
  O  O208  1  0.50837254  0.36020311  0.70141678  1
  O  O209  1  0.50502002  0.86991377  0.25453743  1
  O  O210  1  0.51269354  0.85508123  0.74115303  1
  O  O211  1  0.50498930  0.12093863  0.23358378  1
  O  O212  1  0.48394540  0.12647012  0.75045071  1
  O  O213  1  0.49106356  0.62747504  0.24715934  1
  O  O214  1  0.49421832  0.62937389  0.74176149  1
  O  O215  1  0.99042536  0.11809083  0.24145938  1
  O  O216  1  0.99513634  0.13479221  0.74405115  1
  O  O217  1  1.00273368  0.62781649  0.23275997  1
  O  O218  1  0.99508759  0.63314841  0.74591308  1
  O  O219  1  0.38365734  0.26369806  0.00576937  1
  O  O220  1  0.36589292  0.25463313  0.50760823  1
  O  O221  1  0.36039235  0.74226507  0.00743256  1
  O  O222  1  0.36105782  0.75164310  0.49891870  1
  O  O223  1  0.86613557  0.25001767  0.00877893  1
  O  O224  1  0.86985823  0.24125158  0.50604601  1
  O  O225  1  0.87107669  0.75810071  0.00714038  1
  O  O226  1  0.86584941  0.76143503  0.50238785  1
  O  O227  1  0.13150246  0.24150323  0.48956288  1
  O  O228  1  0.09798397  0.23980638  0.99619391  1
  O  O229  1  0.13493135  0.75331988  0.48634535  1
  O  O230  1  0.13742117  0.73965745  1.00368814  1
  O  O231  1  0.62752187  0.23395428  0.51132725  1
  O  O232  1  0.62963053  0.24366230  0.99323133  1
  O  O233  1  0.63037682  0.75066399  0.49070166  1
  O  O234  1  0.63264030  0.74164592  0.99448443  1
  O  O235  1  0.50496869  0.23195007  0.12189852  1
  O  O236  1  0.48474177  0.23236253  0.60706535  1
  O  O237  1  0.49384646  0.74032492  0.13117211  1
  O  O238  1  0.50182871  0.74009066  0.62851763  1
  O  O239  1  0.99051247  0.23912550  0.12593298  1
  O  O240  1  0.99446488  0.25312489  0.62451136  1
  O  O241  1  0.99658575  0.74231227  0.11976439  1
  O  O242  1  0.99982076  0.73900596  0.63347269  1
  O  O243  1  0.00735922  0.24576102  0.36973975  1
  O  O244  1  -0.00362887  0.26153837  0.86704824  1
  O  O245  1  0.01643089  0.74771485  0.37800808  1
  O  O246  1  -0.00600085  0.74969369  0.86132505  1
  O  O247  1  0.50076664  0.26599295  0.38228546  1
  O  O248  1  0.51422569  0.24417164  0.87810512  1
  O  O249  1  0.50449785  0.75548458  0.36962952  1
  O  O250  1  0.50906922  0.74888872  0.86634031  1
  O  O251  1  0.24571612  0.12837842  0.48840601  1
  O  O252  1  0.25153532  0.13148574  0.98252933  1
  O  O253  1  0.25412874  0.62928400  0.49015833  1
  O  O254  1  0.23821304  0.63245141  1.00362381  1
  O  O255  1  0.74189732  0.12783096  0.49487243  1
  O  O256  1  0.73729081  0.13324091  0.99908256  1
  O  O257  1  0.74790390  0.63720494  0.48414447  1
  O  O258  1  0.74525743  0.62940291  0.99633669  1
  O  O259  1  0.26543869  0.38289579  0.00777271  1
  O  O260  1  0.25714176  0.37055763  0.50657670  1
  O  O261  1  0.24302339  0.86050914  0.00161222  1
  O  O262  1  0.25055918  0.86405177  0.50813692  1
  O  O263  1  0.75006604  0.36292932  -0.00056943  1
  O  O264  1  0.74614627  0.35051522  0.49992676  1
  O  O265  1  0.75503522  0.86964170  0.00731510  1
  O  O266  1  0.75721710  0.86530402  0.49258862  1
  O  O267  1  0.13681715  0.50338015  0.23665367  1
  O  O268  1  0.13537929  0.50109308  0.74301641  1
  O  O269  1  0.13495391  0.99474627  0.24643469  1
  O  O270  1  0.11662941  0.99871198  0.73634820  1
  O  O271  1  0.63053808  0.50022779  0.23818600  1
  O  O272  1  0.63033584  0.49665766  0.74548335  1
  O  O273  1  0.62965598  0.99562061  0.23936981  1
  O  O274  1  0.63562413  0.99919346  0.74324702  1
  O  O275  1  0.36380410  -0.00359472  0.25648941  1
  O  O276  1  0.37050800  0.02283802  0.73429279  1
  O  O277  1  0.36805263  0.51206442  0.24401488  1
  O  O278  1  0.37092455  0.51170230  0.74428830  1
  O  O279  1  0.86901132  0.00183039  0.25741778  1
  O  O280  1  0.87411509  0.00507055  0.75816776  1
  O  O281  1  0.85831547  0.50296582  0.24193706  1
  O  O282  1  0.86698650  0.50858955  0.75858688  1
  O  O283  1  0.12619823  0.35760347  0.38007902  1
  O  O284  1  0.11276463  0.37668229  0.87514980  1
  O  O285  1  0.13057483  0.86238284  0.36827148  1
  O  O286  1  0.11682606  0.88410278  0.87360425  1
  O  O287  1  0.62008521  0.37707804  0.38332296  1
  O  O288  1  0.62349731  0.35842893  0.87334292  1
  O  O289  1  0.62022931  0.86559824  0.36884054  1
  O  O290  1  0.63147860  0.86059732  0.86929105  1
  O  O291  1  0.38915158  0.12415645  0.11825788  1
  O  O292  1  0.35990151  0.14197019  0.63117577  1
  O  O293  1  0.37891706  0.63317341  0.13170098  1
  O  O294  1  0.38828712  0.62480725  0.62835852  1
  O  O295  1  0.87926358  0.13472786  0.13394896  1
  O  O296  1  0.88441391  0.11714551  0.63892069  1
  O  O297  1  0.89259266  0.63603771  0.11782596  1
  O  O298  1  0.88324595  0.62671393  0.63214116  1
  O  O299  1  0.24812045  0.26563857  0.13077516  1
  O  O300  1  0.24286761  0.26404851  0.61930287  1
  O  O301  1  0.25713296  0.75088521  0.11811725  1
  O  O302  1  0.24713565  0.75110724  0.61321107  1
  O  O303  1  0.75880992  0.24252938  0.11581684  1
  O  O304  1  0.75140955  0.24367519  0.61832070  1
  O  O305  1  0.75820313  0.75306089  0.12111077  1
  O  O306  1  0.74918519  0.74194108  0.61150127  1
  O  O307  1  0.24398909  0.24326322  0.37568028  1
  O  O308  1  0.24466196  0.23915777  0.86967610  1
  O  O309  1  0.24174455  0.73768073  0.37832143  1
  O  O310  1  0.25550973  0.74982206  0.88767915  1
  O  O311  1  0.75387648  0.23175782  0.38720425  1
  O  O312  1  0.74501751  0.24625890  0.88571990  1
  O  O313  1  0.74250252  0.74310723  0.37672160  1
  O  O314  1  0.74648888  0.74465389  0.88151502  1
  O  O315  1  -0.00799719  0.11248374  0.01278096  1
  O  O316  1  0.00521375  0.11459989  0.50710002  1
  O  O317  1  0.01272523  0.62367687  0.00618182  1
  O  O318  1  -0.00286661  0.63139297  0.50911359  1
  O  O319  1  0.51204900  0.12048712  0.00867684  1
  O  O320  1  0.50761109  0.11193232  0.49081617  1
  O  O321  1  0.50170716  0.61442634  0.00431355  1
  O  O322  1  0.50090087  0.61968986  0.50414464  1
  O  O323  1  0.49580256  0.38150922  0.49502274  1
  O  O324  1  0.48726256  0.38803810  1.00228527  1
  O  O325  1  0.49687373  0.88224435  0.49116266  1
  O  O326  1  0.51148084  0.87460931  0.99117832  1
  O  O327  1  0.98204767  0.36477870  0.50975907  1
  O  O328  1  0.99583202  0.38788317  0.99486901  1
  O  O329  1  0.99293076  0.88442540  0.50270955  1
  O  O330  1  0.99506015  0.88934721  1.00556544  1
  O  O331  1  0.50758878  0.49303069  0.38899059  1
  O  O332  1  0.50615339  0.50160686  0.88816673  1
  O  O333  1  0.49180207  0.99446872  0.37804279  1
  O  O334  1  0.49646778  0.99608281  0.87903528  1
  O  O335  1  1.01148756  0.51206588  0.39291429  1
  O  O336  1  0.99470780  0.49596100  0.87964142  1
  O  O337  1  0.99089055  1.00744260  0.38530700  1
  O  O338  1  0.98945846  1.00485391  0.88502433  1
  O  O339  1  0.00671637  0.00905542  0.12095476  1
  O  O340  1  0.00818880  0.00371760  0.61620753  1
  O  O341  1  0.00803319  0.51156792  0.11972355  1
  O  O342  1  0.00919765  0.51439137  0.63048235  1
  O  O343  1  0.50869124  0.00784497  0.12275808  1
  O  O344  1  0.50375571  -0.00729871  0.61506000  1
  O  O345  1  0.50567184  0.50467092  0.11966137  1
  O  O346  1  0.50915095  0.50696430  0.61279438  1
  O  O347  1  0.25825548  0.38855161  0.24436040  1
  O  O348  1  0.25177981  0.38240020  0.74200674  1
  O  O349  1  0.24133709  0.88414874  0.24623011  1
  O  O350  1  0.24271588  0.85959563  0.73139624  1
  O  O351  1  0.74412134  0.39585672  0.25577752  1
  O  O352  1  0.75261400  0.38748169  0.75203330  1
  O  O353  1  0.74350489  0.88128621  0.24587690  1
  O  O354  1  0.75493542  0.88787396  0.75425507  1
  O  O355  1  0.24640831  0.11566768  0.26247363  1
  O  O356  1  0.25821588  0.13232415  0.76082035  1
  O  O357  1  0.25543101  0.61725138  0.25583929  1
  O  O358  1  0.26653282  0.61848192  0.74424559  1
  O  O359  1  0.75392548  0.12003432  0.25864598  1
  O  O360  1  0.76011024  0.11384975  0.75270493  1
  O  O361  1  0.74853495  0.62217027  0.25897198  1
  O  O362  1  0.75386176  0.61669642  0.75929090  1
  O  O363  1  0.36778003  0.11318511  0.37935321  1
  O  O364  1  0.36835633  0.12744610  0.86176473  1
  O  O365  1  0.36447249  0.62796832  0.36450297  1
  O  O366  1  0.38258934  0.62430913  0.85997111  1
  O  O367  1  0.86656817  0.11248220  0.36999175  1
  O  O368  1  0.87679755  0.11913244  0.86503095  1
  O  O369  1  0.86341986  0.63132774  0.37160055  1
  O  O370  1  0.86972322  0.62010610  0.87265033  1
  O  O371  1  0.13497224  0.39087808  0.11469768  1
  O  O372  1  0.13276927  0.38950452  0.62826311  1
  O  O373  1  0.12729343  0.88741709  0.13126971  1
  O  O374  1  0.12891336  0.88302819  0.62480175  1
  O  O375  1  0.61864031  0.38687891  0.12163973  1
  O  O376  1  0.64052677  0.39144311  0.61959086  1
  O  O377  1  0.63156964  0.88061208  0.13056602  1
  O  O378  1  0.62730686  0.88849522  0.62283133  1
  O  O379  1  0.12594880  0.24803636  0.26236268  1
  O  O380  1  0.10726839  0.25518339  0.74684812  1
  O  O381  1  0.13172583  0.75728931  0.26327087  1
  O  O382  1  0.11089050  0.74580021  0.74934023  1
  O  O383  1  0.61967368  0.25677616  0.25199112  1
  O  O384  1  0.63121928  0.24728531  0.76448613  1
  O  O385  1  0.61724127  0.75443442  0.25409834  1
  O  O386  1  0.62097827  0.74506353  0.75842978  1
  O  O387  1  0.39051038  0.25364896  0.24154109  1
  O  O388  1  0.37614984  0.24585085  0.73294797  1
  O  O389  1  0.37707929  0.74007394  0.24478616  1
  O  O390  1  0.38444735  0.73482658  0.74453840  1
  O  O391  1  0.87770432  0.25072131  0.24989637  1
  O  O392  1  0.88467055  0.24245241  0.75251738  1
  O  O393  1  0.87366345  0.75871231  0.23847661  1
  O  O394  1  0.88179940  0.74350527  0.74750112  1
  O  O395  1  0.38695448  0.48944878  0.50733544  1
  O  O396  1  0.38625504  0.49636743  0.99953003  1
  O  O397  1  0.38216656  0.99888028  0.49374508  1
  O  O398  1  0.37255433  0.98912086  0.99693684  1
  O  O399  1  0.83272879  0.48644413  0.48709794  1
  O  O400  1  0.88009487  0.50182392  0.99676415  1
  O  O401  1  0.87995630  0.99622151  0.49440087  1
  O  O402  1  0.87841119  0.99761151  0.99555522  1
  O  O403  1  0.11790952  0.00749416  0.01092404  1
  O  O404  1  0.11750706  0.00288036  0.50170175  1
  O  O405  1  0.12316424  0.51340182  0.00629274  1
  O  O406  1  0.13144566  0.50074879  0.50790879  1
  O  O407  1  0.63076275  0.00654543  0.01142912  1
  O  O408  1  0.61751588  0.00433645  0.50594666  1
  O  O409  1  0.61602191  0.50378590  0.00573667  1
  O  O410  1  0.62558579  0.50584174  0.50729866  1
  O  O411  1  0.36762123  0.37685479  0.11672159  1
  O  O412  1  0.36706201  0.36266693  0.61491224  1
  O  O413  1  0.37490804  0.85829195  0.13275730  1
  O  O414  1  0.36444051  0.86953017  0.62406094  1
  O  O415  1  0.87986375  0.36137516  0.12528204  1
  O  O416  1  0.87177121  0.37381694  0.62880258  1
  O  O417  1  0.87046757  0.87071022  0.12101079  1
  O  O418  1  0.87627592  0.87648409  0.61244324  1
  O  O419  1  0.13235352  0.13173420  0.37951187  1
  O  O420  1  0.13461539  0.12774158  0.87430815  1
  O  O421  1  0.12632155  0.62852430  0.37939298  1
  O  O422  1  0.12257860  0.62376510  0.88967260  1
  O  O423  1  0.63359843  0.11444266  0.38654387  1
  O  O424  1  0.62672835  0.13159042  0.88231457  1
  O  O425  1  0.62541642  0.63961218  0.37269709  1
  O  O426  1  0.62993764  0.63476105  0.88123992  1
