# generated using pymatgen
data_V85Zn86O256
_symmetry_space_group_name_H-M   'P 1'
_cell_length_a   16.93619203
_cell_length_b   16.93467932
_cell_length_c   16.94140152
_cell_angle_alpha   89.99010138
_cell_angle_beta   90.00546851
_cell_angle_gamma   90.01646072
_symmetry_Int_Tables_number   1
_chemical_formula_structural   V85Zn86O256
_chemical_formula_sum   'V85 Zn86 O256'
_cell_volume   4858.94581239
_cell_formula_units_Z   1
loop_
 _symmetry_equiv_pos_site_id
 _symmetry_equiv_pos_as_xyz
  1  'x, y, z'
loop_
 _atom_site_type_symbol
 _atom_site_label
 _atom_site_symmetry_multiplicity
 _atom_site_fract_x
 _atom_site_fract_y
 _atom_site_fract_z
 _atom_site_occupancy
  V  V0  1  0.37499361  0.75217423  0.11523892  1
  V  V1  1  0.00667837  0.51237583  0.00541692  1
  V  V2  1  0.63117154  0.13581571  0.00053625  1
  V  V3  1  0.24565260  -0.00108398  0.24987993  1
  V  V4  1  0.50422067  0.25398299  0.25011700  1
  V  V5  1  0.12434197  0.37272642  0.75084478  1
  V  V6  1  0.00470408  0.37454207  0.37244419  1
  V  V7  1  0.87487335  0.49714253  0.88531276  1
  V  V8  1  0.75055628  0.74827063  0.50154443  1
  V  V9  1  0.37415812  0.49673758  0.37406039  1
  V  V10  1  0.74874869  0.62246353  0.37316400  1
  V  V11  1  0.50187167  0.62474296  0.12579725  1
  V  V12  1  0.62453209  0.75123239  0.37635791  1
  V  V13  1  0.25728374  0.75611412  0.49760682  1
  V  V14  1  0.00406691  0.12157736  0.63140379  1
  V  V15  1  0.12413427  0.88466485  0.74622236  1
  V  V16  1  0.49863059  0.12617066  0.12377872  1
  V  V17  1  0.75234127  0.37213863  0.62544568  1
  V  V18  1  0.49724889  -0.00444295  0.50318061  1
  V  V19  1  0.12330719  0.62896059  0.50643082  1
  V  V20  1  0.62371782  0.48889831  0.12810009  1
  V  V21  1  0.12870743  0.24919826  0.37655943  1
  V  V22  1  -0.00019165  0.50518228  0.50438934  1
  V  V23  1  -0.05361666  0.18102147  0.07767766  1
  V  V24  1  0.13000157  0.13081552  -0.00030909  1
  V  V25  1  0.19054268  0.69015378  0.93892036  1
  V  V26  1  0.00353287  0.87408546  0.87122029  1
  V  V27  1  0.86944937  0.10299127  0.75032872  1
  V  V28  1  0.25113068  0.51498934  0.75191759  1
  V  V29  1  0.11994589  0.74914070  0.36790183  1
  V  V30  1  0.87973089  0.75076200  0.12631823  1
  V  V31  1  0.62262720  0.00209576  0.12149359  1
  V  V32  1  0.74880973  0.48830937  0.24900570  1
  V  V33  1  0.49478204  0.12327134  0.62989912  1
  V  V34  1  0.37319882  0.74655334  0.62856203  1
  V  V35  1  0.37135829  0.51380043  0.87190594  1
  V  V36  1  0.76104645  0.50214554  0.74969796  1
  V  V37  1  0.11848024  0.00455860  0.12500170  1
  V  V38  1  0.25119903  0.62525348  0.37562440  1
  V  V39  1  0.49681842  0.37480694  0.87688951  1
  V  V40  1  0.49851133  0.49911716  0.50186777  1
  V  V41  1  0.74951168  0.00628800  0.25327244  1
  V  V42  1  0.12274450  0.50105361  0.62834330  1
  V  V43  1  0.62993938  0.12716803  0.49419538  1
  V  V44  1  0.24063603  0.49550580  0.25161715  1
  V  V45  1  0.26611046  0.00220357  0.75189598  1
  V  V46  1  0.88027165  0.24993214  0.63954077  1
  V  V47  1  -0.00401802  -0.00053178  -0.00512655  1
  V  V48  1  0.87127430  0.00460037  0.37694996  1
  V  V49  1  0.76527912  0.36614995  0.10957445  1
  V  V50  1  0.49738143  0.87491538  0.37816991  1
  V  V51  1  0.62456773  0.50188310  0.62581100  1
  V  V52  1  0.75373443  0.87623783  0.63497659  1
  V  V53  1  0.00487327  0.73723090  0.74999341  1
  V  V54  1  0.24904146  0.87513480  0.11469387  1
  V  V55  1  0.63053895  0.00015127  0.63108557  1
  V  V56  1  -0.00362484  0.87245929  0.36482248  1
  V  V57  1  0.50021729  0.74252179  0.75147244  1
  V  V58  1  0.49163657  0.24603930  0.75271805  1
  V  V59  1  0.75227241  0.11850577  0.87506579  1
  V  V60  1  0.26560752  0.12461031  0.87420060  1
  V  V61  1  0.49832458  0.75096084  0.25038660  1
  V  V62  1  0.50807673  0.37420281  0.37243809  1
  V  V63  1  0.87098161  0.87782351  -0.00866983  1
  V  V64  1  0.87709332  0.87411812  0.50153626  1
  V  V65  1  0.74868210  0.87455418  0.12309846  1
  V  V66  1  0.36414772  0.37298079  -0.00370219  1
  V  V67  1  0.37314733  0.12431080  0.25015787  1
  V  V68  1  0.87664149  0.62686051  0.24626267  1
  V  V69  1  0.36676948  0.25074941  0.12236076  1
  V  V70  1  0.25002595  0.88086837  0.62138351  1
  V  V71  1  0.62706236  0.62528105  0.00063722  1
  V  V72  1  0.87877914  0.37159263  0.50234032  1
  V  V73  1  0.75488028  0.62580697  0.87220474  1
  V  V74  1  0.12584062  0.24605008  0.86866260  1
  V  V75  1  0.00348134  0.24876341  0.25065857  1
  V  V76  1  0.24197429  0.37524790  0.12809466  1
  V  V77  1  0.88182060  0.73555384  0.62860371  1
  V  V78  1  0.12553606  0.11708230  0.50422310  1
  V  V79  1  0.87362428  0.13240874  0.25627856  1
  V  V80  1  0.37285995  -0.00470124  0.37922005  1
  V  V81  1  0.49645177  0.88210422  0.87256449  1
  V  V82  1  -0.00203763  0.37329873  0.87923883  1
  V  V83  1  0.62472227  0.87751760  0.25044325  1
  V  V84  1  0.62536162  0.37299334  0.75163525  1
  Zn  Zn85  1  0.36879138  0.88211725  -0.01053874  1
  Zn  Zn86  1  0.63432311  0.25444832  0.88060725  1
  Zn  Zn87  1  0.49691439  0.50099463  0.00078504  1
  Zn  Zn88  1  0.75085256  0.74942085  -0.00189192  1
  Zn  Zn89  1  0.75780524  0.24182109  0.49486552  1
  Zn  Zn90  1  0.87595473  0.49921949  0.37394270  1
  Zn  Zn91  1  0.00275528  -0.00219834  0.50370962  1
  Zn  Zn92  1  0.62390887  0.62510156  0.50185814  1
  Zn  Zn93  1  0.49420026  0.00606263  -0.01063217  1
  Zn  Zn94  1  0.62878108  0.87562234  0.75307255  1
  Zn  Zn95  1  0.25040846  0.12510569  0.37914178  1
  Zn  Zn96  1  0.11932222  0.86973591  0.24469996  1
  Zn  Zn97  1  0.49175825  0.62138853  0.62992018  1
  Zn  Zn98  1  0.25291967  0.24915739  0.50530997  1
  Zn  Zn99  1  0.62729836  0.75173100  0.87280374  1
  Zn  Zn100  1  0.12281612  0.51046640  0.12342293  1
  Zn  Zn101  1  0.63407352  0.24977286  0.36804201  1
  Zn  Zn102  1  0.37254213  0.24859138  0.62509009  1
  Zn  Zn103  1  0.25313430  0.37205926  0.62605843  1
  Zn  Zn104  1  0.37701860  0.62307452  0.24852027  1
  Zn  Zn105  1  0.04040445  0.68237552  0.18475644  1
  Zn  Zn106  1  0.37289409  0.36931348  0.50359762  1
  Zn  Zn107  1  0.18484502  0.18680161  0.18974653  1
  Zn  Zn108  1  0.18954082  0.18436769  0.68924274  1
  Zn  Zn109  1  0.20413242  0.68003323  0.17843180  1
  Zn  Zn110  1  0.18399185  0.69236439  0.68835960  1
  Zn  Zn111  1  0.69108403  0.19020516  0.18702146  1
  Zn  Zn112  1  0.68912789  0.18748199  0.68668841  1
  Zn  Zn113  1  0.68979415  0.68642716  0.18678178  1
  Zn  Zn114  1  0.68770194  0.68721806  0.68917372  1
  Zn  Zn115  1  0.31442621  0.31311110  0.31421649  1
  Zn  Zn116  1  0.30692439  0.31380448  0.80989596  1
  Zn  Zn117  1  0.31140422  0.81482013  0.30710546  1
  Zn  Zn118  1  0.31284630  0.80914017  0.81042135  1
  Zn  Zn119  1  0.81392438  0.31186206  0.31551765  1
  Zn  Zn120  1  0.81053734  0.31098095  0.81951399  1
  Zn  Zn121  1  0.81104775  0.81264418  0.31060145  1
  Zn  Zn122  1  0.81851379  0.80819287  0.81196104  1
  Zn  Zn123  1  0.18750128  0.43433291  0.44172320  1
  Zn  Zn124  1  0.18714080  0.44275224  0.93620648  1
  Zn  Zn125  1  0.18460456  0.93553463  0.43573398  1
  Zn  Zn126  1  0.18385235  0.94028906  0.93221828  1
  Zn  Zn127  1  0.68947481  0.43415158  0.43892081  1
  Zn  Zn128  1  0.68650754  0.43955015  0.94010876  1
  Zn  Zn129  1  0.68901342  0.93857116  0.44227922  1
  Zn  Zn130  1  0.68271370  0.94083601  0.93459030  1
  Zn  Zn131  1  0.31076989  0.06071920  0.05857004  1
  Zn  Zn132  1  0.31144300  0.06252560  0.56402503  1
  Zn  Zn133  1  0.31126378  0.56243306  0.05988590  1
  Zn  Zn134  1  0.30952269  0.56146016  0.56302192  1
  Zn  Zn135  1  0.80740856  0.06025395  0.05986946  1
  Zn  Zn136  1  0.81350710  0.06142140  0.56501938  1
  Zn  Zn137  1  0.81291457  0.55994122  0.06408478  1
  Zn  Zn138  1  0.81117884  0.56001214  0.56068985  1
  Zn  Zn139  1  0.43352851  0.43628918  0.18817429  1
  Zn  Zn140  1  0.43459461  0.43601319  0.69052984  1
  Zn  Zn141  1  0.43529524  0.93849218  0.18412664  1
  Zn  Zn142  1  0.43737894  0.92868552  0.68592424  1
  Zn  Zn143  1  0.93691756  0.43587804  0.18710285  1
  Zn  Zn144  1  0.94250377  0.43855494  0.69107551  1
  Zn  Zn145  1  0.93428874  0.94072095  0.18379059  1
  Zn  Zn146  1  0.93997709  0.93593015  0.68410481  1
  Zn  Zn147  1  0.05801345  0.06485230  0.31474426  1
  Zn  Zn148  1  0.06061176  0.06136646  0.81061553  1
  Zn  Zn149  1  0.06360845  0.55996670  0.31814478  1
  Zn  Zn150  1  0.06650404  0.56360876  0.82070501  1
  Zn  Zn151  1  0.55954580  0.06399269  0.31254573  1
  Zn  Zn152  1  0.56825946  0.06372921  0.81237924  1
  Zn  Zn153  1  0.56433198  0.56113390  0.31086543  1
  Zn  Zn154  1  0.56391789  0.56136771  0.81366379  1
  Zn  Zn155  1  0.43904656  0.18412225  0.43880960  1
  Zn  Zn156  1  0.44134984  0.19207373  0.94111082  1
  Zn  Zn157  1  0.43695480  0.68387715  0.44017255  1
  Zn  Zn158  1  0.44083386  0.69191692  0.93801154  1
  Zn  Zn159  1  0.94033516  0.18714880  0.44166732  1
  Zn  Zn160  1  0.93784643  0.18862066  0.91165959  1
  Zn  Zn161  1  0.93662743  0.68684083  0.43571235  1
  Zn  Zn162  1  0.93663934  0.68924960  0.93457557  1
  Zn  Zn163  1  0.06766228  0.32000200  0.05336317  1
  Zn  Zn164  1  0.06390038  0.30773245  0.56525577  1
  Zn  Zn165  1  0.06534468  0.81425865  0.05675047  1
  Zn  Zn166  1  0.06431008  0.81357975  0.56295682  1
  Zn  Zn167  1  0.55746637  0.31382524  0.06318346  1
  Zn  Zn168  1  0.55891653  0.31147953  0.56362868  1
  Zn  Zn169  1  0.56115294  0.81281149  0.05768190  1
  Zn  Zn170  1  0.56272491  0.81275173  0.56568383  1
  O  O171  1  0.13294129  0.11672187  0.11374130  1
  O  O172  1  0.11480512  0.12921582  0.61893321  1
  O  O173  1  0.12011456  0.62353382  0.13631045  1
  O  O174  1  0.12755291  0.62058927  0.61228732  1
  O  O175  1  0.62288650  0.11965598  0.11939997  1
  O  O176  1  0.61866068  0.11736906  0.61822536  1
  O  O177  1  0.62147132  0.61772628  0.11948266  1
  O  O178  1  0.62562630  0.61057498  0.62444854  1
  O  O179  1  0.38492061  0.38493755  0.37745737  1
  O  O180  1  0.37920198  0.37665079  0.88117255  1
  O  O181  1  0.38070666  0.88754602  0.36846202  1
  O  O182  1  0.39155927  0.87028882  0.87323422  1
  O  O183  1  0.88767683  0.37605474  0.38568145  1
  O  O184  1  0.88525946  0.38417597  0.86796890  1
  O  O185  1  0.87930712  0.87749888  0.38188619  1
  O  O186  1  0.88254677  0.87263185  0.88490958  1
  O  O187  1  0.25586990  -0.00121246  0.36760957  1
  O  O188  1  0.24782917  0.01019027  0.86302200  1
  O  O189  1  0.25649911  0.50135884  0.37098433  1
  O  O190  1  0.26381412  0.49802855  0.86835503  1
  O  O191  1  0.76319092  -0.00699650  0.36988749  1
  O  O192  1  0.74299003  0.01687251  0.87406337  1
  O  O193  1  0.75018279  0.50554126  0.36777994  1
  O  O194  1  0.75734191  0.50239466  0.86892615  1
  O  O195  1  0.25130437  0.49333757  0.13493071  1
  O  O196  1  0.23834079  0.49886980  0.63133630  1
  O  O197  1  0.23901828  0.99483819  0.13202133  1
  O  O198  1  0.25425139  0.99385901  0.63837443  1
  O  O199  1  0.74323388  0.49138229  0.13107058  1
  O  O200  1  0.74507358  0.49424549  0.63248839  1
  O  O201  1  0.73865373  0.99521431  0.13079467  1
  O  O202  1  0.74291086  0.98791369  0.61801489  1
  O  O203  1  -0.00680464  0.36148738  0.25913692  1
  O  O204  1  0.01627951  0.38630029  0.76331984  1
  O  O205  1  -0.00312784  0.87875063  0.26138767  1
  O  O206  1  0.00536857  0.87298135  0.75408342  1
  O  O207  1  0.49377141  0.36537438  0.25827669  1
  O  O208  1  0.50685874  0.37048953  0.75995700  1
  O  O209  1  0.50651593  0.87083480  0.25628919  1
  O  O210  1  0.50317527  0.86569062  0.75795475  1
  O  O211  1  0.49101903  0.12972197  0.24335941  1
  O  O212  1  0.50968520  0.13503716  0.74324307  1
  O  O213  1  0.50040368  0.63300097  0.24406902  1
  O  O214  1  0.50514980  0.63695539  0.74889875  1
  O  O215  1  0.99227590  0.13835948  0.25173002  1
  O  O216  1  0.98380556  0.11932892  0.74517620  1
  O  O217  1  0.98216555  0.62131404  0.26276041  1
  O  O218  1  1.00737401  0.63860363  0.75203911  1
  O  O219  1  0.37748179  0.25969473  0.01102709  1
  O  O220  1  0.37454744  0.24909095  0.50297287  1
  O  O221  1  0.38327715  0.75909658  0.01282479  1
  O  O222  1  0.36173027  0.74937885  0.50080704  1
  O  O223  1  0.89259116  0.23206488  0.01331549  1
  O  O224  1  0.87754727  0.25806841  0.51070213  1
  O  O225  1  0.87275767  0.75909505  0.00677057  1
  O  O226  1  0.87339972  0.75479716  0.50978748  1
  O  O227  1  0.12369274  0.23995369  0.49007917  1
  O  O228  1  0.12145183  0.23683162  0.99071563  1
  O  O229  1  0.13122349  0.74409823  0.49231944  1
  O  O230  1  0.12251249  0.74634139  0.99110458  1
  O  O231  1  0.62168217  0.23381412  0.50247505  1
  O  O232  1  0.62017734  0.23930739  1.00223357  1
  O  O233  1  0.63112267  0.74773836  0.49492450  1
  O  O234  1  0.62867673  0.73633864  1.00033853  1
  O  O235  1  0.48865700  0.24655555  0.13176372  1
  O  O236  1  0.50144612  0.24025900  0.63535853  1
  O  O237  1  0.49607099  0.74699648  0.13187755  1
  O  O238  1  0.49109594  0.74983539  0.63062612  1
  O  O239  1  1.00776117  0.24872696  0.12926358  1
  O  O240  1  0.99119831  0.23633835  0.62322915  1
  O  O241  1  0.98515044  0.76289397  0.12604654  1
  O  O242  1  0.98959364  0.75258529  0.63254614  1
  O  O243  1  0.00592911  0.25556220  0.36955816  1
  O  O244  1  0.01203026  0.26068427  0.87238192  1
  O  O245  1  0.00793360  0.75919510  0.38118913  1
  O  O246  1  -0.00916400  0.75810654  0.85730879  1
  O  O247  1  0.50114528  0.25766336  0.36746004  1
  O  O248  1  0.50674061  0.25840757  0.86968400  1
  O  O249  1  0.50382873  0.75428375  0.37187363  1
  O  O250  1  0.50421142  0.75663385  0.86640488  1
  O  O251  1  0.24009571  0.12587482  0.49948723  1
  O  O252  1  0.24137974  0.11786849  0.98329943  1
  O  O253  1  0.24154716  0.63257463  0.49387550  1
  O  O254  1  0.24868673  0.63639773  1.00467540  1
  O  O255  1  0.73404376  0.12296920  0.50590987  1
  O  O256  1  0.74290685  0.12393281  0.99200957  1
  O  O257  1  0.74809634  0.62871112  0.49070362  1
  O  O258  1  0.74346644  0.62319408  0.99329706  1
  O  O259  1  0.25888065  0.37991253  0.00700372  1
  O  O260  1  0.25258759  0.36999442  0.50488308  1
  O  O261  1  0.24815659  0.88397477  0.01113631  1
  O  O262  1  0.24296216  0.86751501  0.50750989  1
  O  O263  1  0.75012438  0.37741166  0.00984231  1
  O  O264  1  0.76635819  0.38068343  0.50833418  1
  O  O265  1  0.75565411  0.87638653  0.00321888  1
  O  O266  1  0.76154579  0.86703129  0.50533871  1
  O  O267  1  0.13739609  0.49890801  0.25394030  1
  O  O268  1  0.13060984  0.49742512  0.74449459  1
  O  O269  1  0.12800939  1.00173412  0.24240883  1
  O  O270  1  0.12953352  0.98850467  0.75087344  1
  O  O271  1  0.63593314  0.50526572  0.23970528  1
  O  O272  1  0.63066046  0.48953505  0.74463181  1
  O  O273  1  0.63091340  0.99824276  0.24598418  1
  O  O274  1  0.62381861  0.99728393  0.73440138  1
  O  O275  1  0.36587365  0.00493182  0.25391558  1
  O  O276  1  0.36434449  -0.00525098  0.75044245  1
  O  O277  1  0.36880198  0.50144678  0.26033151  1
  O  O278  1  0.36761673  0.49850534  0.76328855  1
  O  O279  1  0.87140050  0.01021960  0.25608699  1
  O  O280  1  0.86887636  0.00500837  0.74491903  1
  O  O281  1  0.86654907  0.50742381  0.25135624  1
  O  O282  1  0.86487708  0.49742516  0.75583506  1
  O  O283  1  0.11181836  0.36684211  0.38194506  1
  O  O284  1  0.12358589  0.36625891  0.87132322  1
  O  O285  1  0.11453591  0.86709240  0.37130868  1
  O  O286  1  0.11090990  0.87768224  0.86624496  1
  O  O287  1  0.61164783  0.37512927  0.37801128  1
  O  O288  1  0.61683458  0.37715671  0.86889979  1
  O  O289  1  0.62000428  0.87105044  0.37076345  1
  O  O290  1  0.61634953  0.87153458  0.87149507  1
  O  O291  1  0.37555236  0.13402610  0.12953416  1
  O  O292  1  0.39191330  0.12190810  0.62375165  1
  O  O293  1  0.38357688  0.63324085  0.12548616  1
  O  O294  1  0.37411100  0.64022394  0.61695506  1
  O  O295  1  0.88048356  0.12242902  0.13237931  1
  O  O296  1  0.87750175  0.13027496  0.63555373  1
  O  O297  1  0.86936501  0.63538878  0.13379351  1
  O  O298  1  0.87334337  0.63726338  0.62085529  1
  O  O299  1  0.25958593  0.25773459  0.13404047  1
  O  O300  1  0.25389592  0.25135455  0.62714701  1
  O  O301  1  0.26338558  0.76376811  0.13440083  1
  O  O302  1  0.25408744  0.75657934  0.61712094  1
  O  O303  1  0.74628964  0.26888916  0.12921250  1
  O  O304  1  0.75904081  0.25665220  0.61993956  1
  O  O305  1  0.75710367  0.75919202  0.12308483  1
  O  O306  1  0.76177089  0.75345785  0.62101553  1
  O  O307  1  0.24077969  0.24712175  0.37407254  1
  O  O308  1  0.24333346  0.23253958  0.86721105  1
  O  O309  1  0.24316544  0.74866948  0.37969679  1
  O  O310  1  0.24972455  0.75259275  0.88271183  1
  O  O311  1  0.74500622  0.25886860  0.38377832  1
  O  O312  1  0.74812786  0.23362460  0.87140349  1
  O  O313  1  0.74466999  0.74335472  0.37999538  1
  O  O314  1  0.74926825  0.74008691  0.87501114  1
  O  O315  1  0.00156082  0.12124169  0.00557699  1
  O  O316  1  0.00734243  0.12208217  0.50962882  1
  O  O317  1  -0.00556403  0.61110587  -0.00380201  1
  O  O318  1  0.00707789  0.61340155  0.49320216  1
  O  O319  1  0.50875554  0.12494004  0.00772696  1
  O  O320  1  0.50962946  0.11311678  0.50736375  1
  O  O321  1  0.50850027  0.62367439  0.00740711  1
  O  O322  1  0.50384878  0.61093049  0.50152920  1
  O  O323  1  0.49935352  0.38566502  0.49357513  1
  O  O324  1  0.49078948  0.37701853  0.98950913  1
  O  O325  1  0.50561005  0.88781140  0.49507249  1
  O  O326  1  0.50293000  0.87640724  0.98231758  1
  O  O327  1  0.99388073  0.38248288  0.49804283  1
  O  O328  1  1.00355460  0.38536067  0.98442928  1
  O  O329  1  0.98960886  0.87602483  0.49447409  1
  O  O330  1  0.99380842  0.88152748  0.99033856  1
  O  O331  1  0.49491436  0.49505344  0.38009893  1
  O  O332  1  0.48891408  0.49162027  0.87371834  1
  O  O333  1  0.49280492  0.99543514  0.38214382  1
  O  O334  1  0.50505337  0.98673919  0.87049186  1
  O  O335  1  0.99954799  0.49056164  0.38487632  1
  O  O336  1  0.99273198  0.49687030  0.88204873  1
  O  O337  1  0.98738164  0.99140637  0.37745240  1
  O  O338  1  1.00177065  0.99345165  0.88722964  1
  O  O339  1  0.01172106  -0.00637521  0.11450055  1
  O  O340  1  -0.00652995  0.01481078  0.62093792  1
  O  O341  1  0.00037081  0.49303941  0.10912289  1
  O  O342  1  0.01258424  0.49926176  0.61893584  1
  O  O343  1  0.51335650  0.00770284  0.13250658  1
  O  O344  1  0.50607441  0.00140149  0.61963913  1
  O  O345  1  0.50625288  0.50531513  0.12652610  1
  O  O346  1  0.50649508  0.50016617  0.61968375  1
  O  O347  1  0.25805163  0.38412016  0.24103532  1
  O  O348  1  0.23725375  0.38626888  0.75100103  1
  O  O349  1  0.24496572  0.88764752  0.24277285  1
  O  O350  1  0.24377775  0.88456676  0.74621976  1
  O  O351  1  0.75608674  0.38641695  0.24526708  1
  O  O352  1  0.74321363  0.38154914  0.74574396  1
  O  O353  1  0.74387217  0.88402822  0.24397562  1
  O  O354  1  0.75236986  0.86852925  0.73776491  1
  O  O355  1  0.25426174  0.11299632  0.25213824  1
  O  O356  1  0.24858101  0.11048245  0.75974690  1
  O  O357  1  0.25674746  0.61476913  0.25982794  1
  O  O358  1  0.24696471  0.61438748  0.74329363  1
  O  O359  1  0.76007492  0.11771646  0.24515263  1
  O  O360  1  0.76335295  0.12608900  0.75228123  1
  O  O361  1  0.75684481  0.61708026  0.25618880  1
  O  O362  1  0.74297837  0.61276426  0.75892613  1
  O  O363  1  0.37524827  0.11188877  0.36763898  1
  O  O364  1  0.36394530  0.12912701  0.88089416  1
  O  O365  1  0.36978276  0.61308661  0.37586337  1
  O  O366  1  0.38113164  0.61147931  0.88068429  1
  O  O367  1  0.87935247  0.11622494  0.36983333  1
  O  O368  1  0.86889060  0.12020307  0.85869049  1
  O  O369  1  0.86152471  0.62468338  0.37024049  1
  O  O370  1  0.86219338  0.61601266  0.87747837  1
  O  O371  1  0.13942429  0.37911498  0.12080739  1
  O  O372  1  0.12315241  0.38272545  0.63386683  1
  O  O373  1  0.13109251  0.88220792  0.12668331  1
  O  O374  1  0.13802809  0.87248516  0.63094530  1
  O  O375  1  0.62622842  0.38679648  0.12053486  1
  O  O376  1  0.62873931  0.38350423  0.63099177  1
  O  O377  1  0.62781346  0.88295031  0.12845058  1
  O  O378  1  0.63709029  0.88186995  0.62316862  1
  O  O379  1  0.11693253  0.24376628  0.26451714  1
  O  O380  1  0.12810422  0.25791805  0.75971125  1
  O  O381  1  0.12347816  0.74683986  0.26109371  1
  O  O382  1  0.10947640  0.76204847  0.74168690  1
  O  O383  1  0.60818504  0.24017795  0.25049952  1
  O  O384  1  0.62105116  0.26409240  0.74825176  1
  O  O385  1  0.61845062  0.75608155  0.25511561  1
  O  O386  1  0.61594852  0.75431969  0.74789236  1
  O  O387  1  0.38232419  0.24337754  0.24476869  1
  O  O388  1  0.38919261  0.25363634  0.75263304  1
  O  O389  1  0.38591317  0.74906602  0.24516892  1
  O  O390  1  0.38454211  0.75245041  0.73969780  1
  O  O391  1  0.88145606  0.23850099  0.25388179  1
  O  O392  1  0.87419779  0.24964263  0.74086516  1
  O  O393  1  0.86758427  0.74134788  0.24028277  1
  O  O394  1  0.88773004  0.75205169  0.73568037  1
  O  O395  1  0.38239783  0.49951509  0.49246155  1
  O  O396  1  0.37586941  0.49202763  0.98905941  1
  O  O397  1  0.38377580  1.00402923  0.49093023  1
  O  O398  1  0.38532275  0.99241352  1.01536683  1
  O  O399  1  0.88508857  0.49352919  0.50074524  1
  O  O400  1  0.88220224  0.50089558  0.98972886  1
  O  O401  1  0.87435629  0.99145223  0.49307315  1
  O  O402  1  0.88455543  0.99026614  1.00864522  1
  O  O403  1  0.11681486  0.01046945  0.00418124  1
  O  O404  1  0.12221075  0.01267092  0.49406254  1
  O  O405  1  0.11125424  0.50102368  -0.00031748  1
  O  O406  1  0.11945876  0.50760980  0.50718278  1
  O  O407  1  0.62020915  0.01034402  0.00936189  1
  O  O408  1  0.61904782  0.00786291  0.50719623  1
  O  O409  1  0.62118044  0.50985459  0.00859007  1
  O  O410  1  0.61889437  0.49862967  0.50951367  1
  O  O411  1  0.36747613  0.36960006  0.11634114  1
  O  O412  1  0.37383308  0.37111633  0.62348450  1
  O  O413  1  0.36620519  0.86786531  0.12741687  1
  O  O414  1  0.36048668  0.86380620  0.62577303  1
  O  O415  1  0.86440729  0.37623552  0.12209965  1
  O  O416  1  0.87621172  0.36853175  0.62220008  1
  O  O417  1  0.86688909  0.87125530  0.11692115  1
  O  O418  1  0.87098922  0.86806340  0.61701640  1
  O  O419  1  0.12401231  0.13154666  0.38454384  1
  O  O420  1  0.12546530  0.13151748  0.87914940  1
  O  O421  1  0.13023352  0.63148780  0.38466281  1
  O  O422  1  0.13933072  0.62655764  0.87678821  1
  O  O423  1  0.61926505  0.12420885  0.39102294  1
  O  O424  1  0.63177262  0.12856979  0.88409632  1
  O  O425  1  0.63552883  0.63046383  0.37484751  1
  O  O426  1  0.63542170  0.62209289  0.88393091  1
