# generated using pymatgen
data_V85Zn86O256
_symmetry_space_group_name_H-M   'P 1'
_cell_length_a   16.92786093
_cell_length_b   16.91987403
_cell_length_c   16.92598318
_cell_angle_alpha   89.93200201
_cell_angle_beta   89.95828211
_cell_angle_gamma   89.98705859
_symmetry_Int_Tables_number   1
_chemical_formula_structural   V85Zn86O256
_chemical_formula_sum   'V85 Zn86 O256'
_cell_volume   4847.88914710
_cell_formula_units_Z   1
loop_
 _symmetry_equiv_pos_site_id
 _symmetry_equiv_pos_as_xyz
  1  'x, y, z'
loop_
 _atom_site_type_symbol
 _atom_site_label
 _atom_site_symmetry_multiplicity
 _atom_site_fract_x
 _atom_site_fract_y
 _atom_site_fract_z
 _atom_site_occupancy
  V  V0  1  0.38120695  0.86565784  0.49368027  1
  V  V1  1  0.87621898  0.37044482  0.01538075  1
  V  V2  1  0.87031859  0.62265102  0.75072898  1
  V  V3  1  0.49815689  0.62112447  0.62400494  1
  V  V4  1  0.12119377  0.38113083  0.74443509  1
  V  V5  1  0.24877431  0.50262152  0.25151556  1
  V  V6  1  0.12475190  -0.00041258  0.62233225  1
  V  V7  1  0.74019263  0.37162011  0.13212248  1
  V  V8  1  0.00438949  -0.00047539  0.00684246  1
  V  V9  1  0.65924873  0.27527280  0.83396598  1
  V  V10  1  0.49892268  0.75472313  0.25415109  1
  V  V11  1  -0.00110901  0.50517655  0.01057573  1
  V  V12  1  0.00153413  0.37665931  0.87943814  1
  V  V13  1  0.00112984  0.87734474  0.87381981  1
  V  V14  1  0.48870911  0.25923270  0.75596747  1
  V  V15  1  0.51454123  0.50040840  0.49913643  1
  V  V16  1  -0.00372414  0.86174959  0.37993915  1
  V  V17  1  -0.00949022  0.12406666  0.62666389  1
  V  V18  1  0.62698864  -0.00227152  0.62063447  1
  V  V19  1  0.50267716  0.00269941  -0.00316721  1
  V  V20  1  0.62156909  0.87573964  0.25772794  1
  V  V21  1  0.75207660  0.76056457  0.50386327  1
  V  V22  1  0.24592455  0.88250227  0.12368746  1
  V  V23  1  0.12153729  0.12821520  0.49409298  1
  V  V24  1  0.62111700  0.74616804  0.38224402  1
  V  V25  1  0.74994910  0.62447497  0.87708265  1
  V  V26  1  0.24801413  0.37841645  0.12427286  1
  V  V27  1  0.49199415  0.74583573  0.74946373  1
  V  V28  1  0.25531372  0.00716652  0.74559957  1
  V  V29  1  0.37903413  0.01003355  0.86766449  1
  V  V30  1  0.75436135  0.01074872  0.74336615  1
  V  V31  1  0.75284772  0.62183199  0.38311564  1
  V  V32  1  0.24990764  0.75145998  -0.00190821  1
  V  V33  1  0.74928213  0.12447881  0.37998123  1
  V  V34  1  0.12872987  0.12209139  0.00418571  1
  V  V35  1  0.00433873  0.24888972  0.25590497  1
  V  V36  1  0.50223751  0.87941389  0.87085025  1
  V  V37  1  0.25386163  0.62318460  0.87238300  1
  V  V38  1  0.87573756  -0.00734102  0.37977158  1
  V  V39  1  0.12676381  0.37302119  0.26234017  1
  V  V40  1  0.24549910  0.12818880  0.37147873  1
  V  V41  1  -0.00491470  0.74569566  0.23541409  1
  V  V42  1  0.25133590  0.50293828  0.74822352  1
  V  V43  1  0.38015155  0.62452087  0.24662105  1
  V  V44  1  0.62510977  0.25796702  0.37320678  1
  V  V45  1  0.12322160  0.62719362  0.00738052  1
  V  V46  1  0.37657392  0.49934770  0.37967688  1
  V  V47  1  0.24507031  0.38057277  0.62060594  1
  V  V48  1  0.13053088  0.62535532  0.51060762  1
  V  V49  1  0.25102628  0.86845550  0.61533493  1
  V  V50  1  0.87017158  0.75831949  0.62247649  1
  V  V51  1  0.87670013  0.00774587  0.87066405  1
  V  V52  1  0.24787500  0.25206079  0.49661220  1
  V  V53  1  -0.00022493  0.75012785  0.74858247  1
  V  V54  1  0.38168374  0.74899943  0.12268671  1
  V  V55  1  0.62750045  -0.00098014  0.12320828  1
  V  V56  1  0.74700726  0.50002357  0.25085848  1
  V  V57  1  0.25167130  0.25261380  -0.00090775  1
  V  V58  1  0.86937753  0.50013067  0.87840602  1
  V  V59  1  0.50385539  0.25710737  0.24936187  1
  V  V60  1  -0.01642179  0.37933403  0.37901811  1
  V  V61  1  0.24894311  0.63288922  0.37937830  1
  V  V62  1  0.75551518  0.26365322  0.50081340  1
  V  V63  1  0.00170491  0.61290859  0.62765880  1
  V  V64  1  -0.00115651  -0.00670980  0.49883990  1
  V  V65  1  0.87481204  0.12882607  0.24729979  1
  V  V66  1  0.38044765  0.38377317  -0.01244303  1
  V  V67  1  0.12234962  0.87834419  0.24819295  1
  V  V68  1  0.87413465  0.62453365  0.23582371  1
  V  V69  1  0.62777734  0.75251271  0.87658364  1
  V  V70  1  0.74968017  0.24548234  0.01132145  1
  V  V71  1  0.48869847  0.12312826  0.62909824  1
  V  V72  1  0.61491034  0.50634344  0.12550647  1
  V  V73  1  0.37627163  0.87815971  -0.00133763  1
  V  V74  1  0.12469403  0.25116037  0.87573163  1
  V  V75  1  0.63472413  0.87591152  0.74569797  1
  V  V76  1  -0.00095376  0.13035510  0.12460546  1
  V  V77  1  0.63420186  0.49623217  0.64128842  1
  V  V78  1  0.12682944  0.87620550  0.74729738  1
  V  V79  1  0.87260223  0.87218477  0.00552532  1
  V  V80  1  0.37359868  0.12511791  0.24853981  1
  V  V81  1  0.75116990  -0.00195743  0.25173143  1
  V  V82  1  -0.00490307  0.24503440  0.75039037  1
  V  V83  1  0.50140520  0.12646853  0.12434091  1
  V  V84  1  0.38034938  -0.00120803  0.37384274  1
  Zn  Zn85  1  0.75757253  0.86831707  0.13322834  1
  Zn  Zn86  1  0.41744905  0.55786204  0.81412216  1
  Zn  Zn87  1  0.75386999  0.12740309  0.87474055  1
  Zn  Zn88  1  0.12587607  0.75020190  0.87410265  1
  Zn  Zn89  1  0.87607769  0.25875641  0.62077659  1
  Zn  Zn90  1  0.37724073  0.25267690  0.12347972  1
  Zn  Zn91  1  0.25340790  0.12907673  0.86795517  1
  Zn  Zn92  1  0.50111335  -0.00058165  0.49616255  1
  Zn  Zn93  1  0.74217986  0.36974230  0.65443751  1
  Zn  Zn94  1  0.49655312  0.50696193  -0.01631841  1
  Zn  Zn95  1  0.50377578  0.37781280  0.37282504  1
  Zn  Zn96  1  -0.00454585  0.48963562  0.50487920  1
  Zn  Zn97  1  0.36826068  0.24515816  0.62756672  1
  Zn  Zn98  1  0.37055922  0.74163274  0.62257841  1
  Zn  Zn99  1  0.62040191  0.12653305  0.49924528  1
  Zn  Zn100  1  0.12604138  0.74939138  0.37907492  1
  Zn  Zn101  1  0.61675992  0.62945695  0.00565110  1
  Zn  Zn102  1  0.37922603  0.37259444  0.49946854  1
  Zn  Zn103  1  0.24486670  0.00232604  0.24566225  1
  Zn  Zn104  1  0.12076076  0.50580018  0.13064046  1
  Zn  Zn105  1  0.62512337  0.13201585  -0.01289304  1
  Zn  Zn106  1  0.75583800  0.74521939  0.00745360  1
  Zn  Zn107  1  0.18519407  0.18985757  0.18486543  1
  Zn  Zn108  1  0.18046767  0.18963862  0.68274905  1
  Zn  Zn109  1  0.18978495  0.69384002  0.18943517  1
  Zn  Zn110  1  0.18721218  0.68824203  0.68791989  1
  Zn  Zn111  1  0.68685603  0.18679120  0.18799724  1
  Zn  Zn112  1  0.68251694  0.18370281  0.67983982  1
  Zn  Zn113  1  0.68843304  0.68891876  0.18755624  1
  Zn  Zn114  1  0.68384789  0.68264529  0.68629056  1
  Zn  Zn115  1  0.31405163  0.31082036  0.31248085  1
  Zn  Zn116  1  0.31275450  0.31406831  0.80830560  1
  Zn  Zn117  1  0.31191215  0.81443752  0.31166017  1
  Zn  Zn118  1  0.31170413  0.81778202  0.81230243  1
  Zn  Zn119  1  0.81185258  0.30939802  0.30882525  1
  Zn  Zn120  1  0.82631807  0.31151198  0.81806706  1
  Zn  Zn121  1  0.81330242  0.80676762  0.31434104  1
  Zn  Zn122  1  0.81372271  0.81469069  0.81505738  1
  Zn  Zn123  1  0.18249502  0.44649554  0.44000917  1
  Zn  Zn124  1  0.18825089  0.44185160  0.93581745  1
  Zn  Zn125  1  0.18897287  0.93816028  0.43359931  1
  Zn  Zn126  1  0.18906591  0.93995534  0.93322562  1
  Zn  Zn127  1  0.68865614  0.43845205  0.43486900  1
  Zn  Zn128  1  0.68669570  0.43456372  0.94302007  1
  Zn  Zn129  1  0.68631503  0.93407968  0.43805007  1
  Zn  Zn130  1  0.69086312  0.94113153  0.93417878  1
  Zn  Zn131  1  0.31514246  0.06362181  0.06000107  1
  Zn  Zn132  1  0.31159541  0.05792005  0.55612210  1
  Zn  Zn133  1  0.31208707  0.56405714  0.06251998  1
  Zn  Zn134  1  0.31526590  0.55961354  0.56464510  1
  Zn  Zn135  1  0.81511653  0.05882902  0.06305611  1
  Zn  Zn136  1  0.81119866  0.06092121  0.56012991  1
  Zn  Zn137  1  0.80647816  0.56046210  0.06313733  1
  Zn  Zn138  1  0.81201082  0.55790569  0.56339127  1
  Zn  Zn139  1  0.43252382  0.43534636  0.18625490  1
  Zn  Zn140  1  0.43439761  0.43211017  0.67837689  1
  Zn  Zn141  1  0.43730985  0.93769532  0.18796872  1
  Zn  Zn142  1  0.43909181  0.93406736  0.68350355  1
  Zn  Zn143  1  0.93518025  0.43972194  0.19415680  1
  Zn  Zn144  1  0.92891692  0.43557756  0.69027672  1
  Zn  Zn145  1  0.94135324  0.94067538  0.18895009  1
  Zn  Zn146  1  0.93568874  0.93722854  0.68581874  1
  Zn  Zn147  1  0.06137689  0.05774107  0.31308989  1
  Zn  Zn148  1  0.06610332  0.06337406  0.81407531  1
  Zn  Zn149  1  0.06122248  0.56347460  0.31568920  1
  Zn  Zn150  1  0.06389217  0.56258104  0.81944159  1
  Zn  Zn151  1  0.56278949  0.06741161  0.31160692  1
  Zn  Zn152  1  0.57014220  0.07638311  0.80801530  1
  Zn  Zn153  1  0.56464606  0.56524617  0.30995256  1
  Zn  Zn154  1  0.57561666  0.56056510  0.81267162  1
  Zn  Zn155  1  0.43672109  0.18542963  0.43915703  1
  Zn  Zn156  1  0.43802044  0.19230760  0.93708592  1
  Zn  Zn157  1  0.44039286  0.68237654  0.43909421  1
  Zn  Zn158  1  0.44220957  0.68779260  0.94018077  1
  Zn  Zn159  1  0.93638945  0.18826031  0.43465241  1
  Zn  Zn160  1  0.93621248  0.18993084  0.94093646  1
  Zn  Zn161  1  0.91855663  0.64596593  0.45478689  1
  Zn  Zn162  1  0.94055242  0.68861204  0.93856805  1
  Zn  Zn163  1  0.06426254  0.31253284  0.06831753  1
  Zn  Zn164  1  0.06285346  0.31018918  0.56003625  1
  Zn  Zn165  1  0.06377050  0.81354728  0.06206824  1
  Zn  Zn166  1  0.06276596  0.80409695  0.56021852  1
  Zn  Zn167  1  0.56340781  0.31697574  0.06034811  1
  Zn  Zn168  1  0.56349219  0.31271807  0.56438257  1
  Zn  Zn169  1  0.56477963  0.81375091  0.06418428  1
  Zn  Zn170  1  0.56154553  0.81126090  0.56274890  1
  O  O171  1  0.11861040  0.12710112  0.11198866  1
  O  O172  1  0.11619796  0.11792597  0.61354725  1
  O  O173  1  0.13449059  0.62590293  0.11207941  1
  O  O174  1  0.11980640  0.62579346  0.61871999  1
  O  O175  1  0.61838308  0.11164020  0.12820668  1
  O  O176  1  0.61435595  0.11160173  0.62088304  1
  O  O177  1  0.62894711  0.61022079  0.12491505  1
  O  O178  1  0.61263262  0.60938155  0.63249951  1
  O  O179  1  0.37428614  0.38929321  0.37423990  1
  O  O180  1  0.36656047  0.37591147  0.88952722  1
  O  O181  1  0.36779569  0.88218277  0.38568806  1
  O  O182  1  0.38248677  0.88636418  0.87970861  1
  O  O183  1  0.88518939  0.37335487  0.37134360  1
  O  O184  1  0.88148630  0.38428599  0.88694029  1
  O  O185  1  0.88276448  0.88236574  0.36885003  1
  O  O186  1  0.88263507  0.88546999  0.88286721  1
  O  O187  1  0.25872340  0.01183209  0.37160239  1
  O  O188  1  0.26021465  0.00184630  0.86393466  1
  O  O189  1  0.25745791  0.50942646  0.37045088  1
  O  O190  1  0.24807687  0.51039354  0.86464607  1
  O  O191  1  0.75601992  0.00505504  0.37173106  1
  O  O192  1  0.75923164  0.00481930  0.86549681  1
  O  O193  1  0.74301245  0.51402472  0.36713971  1
  O  O194  1  0.76096734  0.50514074  0.88283565  1
  O  O195  1  0.24785453  0.49373765  0.13345396  1
  O  O196  1  0.24624870  0.48895045  0.62880084  1
  O  O197  1  0.25570906  0.98683741  0.12387757  1
  O  O198  1  0.24570044  0.99208696  0.62863962  1
  O  O199  1  0.74167314  0.49256688  0.13225638  1
  O  O200  1  0.73688637  0.50208549  0.62486935  1
  O  O201  1  0.74266776  0.99587635  0.13286545  1
  O  O202  1  0.74177572  1.00191156  0.62998203  1
  O  O203  1  0.00537247  0.36719696  0.25570832  1
  O  O204  1  0.00552469  0.36875867  0.75771795  1
  O  O205  1  0.00359442  0.86456860  0.25346764  1
  O  O206  1  0.00601269  0.86935569  0.75251246  1
  O  O207  1  0.49315988  0.36057366  0.25171926  1
  O  O208  1  0.49510955  0.35807016  0.74103891  1
  O  O209  1  0.50470910  0.86408204  0.24975569  1
  O  O210  1  0.51184946  0.87052553  0.75404427  1
  O  O211  1  0.49459627  0.13073522  0.23883654  1
  O  O212  1  0.49824727  0.12885665  0.73334850  1
  O  O213  1  0.48691447  0.63558673  0.25307832  1
  O  O214  1  0.49808492  0.63221116  0.74704648  1
  O  O215  1  0.99711045  0.12929675  0.24568126  1
  O  O216  1  1.01259375  0.13264024  0.73845287  1
  O  O217  1  0.98747146  0.63522537  0.25481941  1
  O  O218  1  0.99710816  0.63249966  0.74803128  1
  O  O219  1  0.36660928  0.25963575  0.00157001  1
  O  O220  1  0.35891764  0.25100350  0.49803605  1
  O  O221  1  0.37137527  0.75831611  0.00656853  1
  O  O222  1  0.37744451  0.76183220  0.49864010  1
  O  O223  1  0.86683318  0.26010634  0.00061195  1
  O  O224  1  0.85934376  0.24495755  0.49938321  1
  O  O225  1  0.87827992  0.76855231  -0.00593984  1
  O  O226  1  0.86125837  0.74043627  0.50869653  1
  O  O227  1  0.13284074  0.23630239  0.50053445  1
  O  O228  1  0.13182873  0.24550639  0.99607297  1
  O  O229  1  0.12882538  0.73353083  0.49743638  1
  O  O230  1  0.13038848  0.74467288  0.99742423  1
  O  O231  1  0.63554947  0.24791876  0.49101169  1
  O  O232  1  0.64242790  0.24788297  1.01344673  1
  O  O233  1  0.63481419  0.75504446  0.49227433  1
  O  O234  1  0.62344222  0.75410872  0.98517541  1
  O  O235  1  0.50186110  0.24299930  0.13093721  1
  O  O236  1  0.49590515  0.23733751  0.62703630  1
  O  O237  1  0.48800735  0.75637437  0.13248125  1
  O  O238  1  0.50302408  0.73928277  0.63301388  1
  O  O239  1  1.00213528  0.23805648  0.13495696  1
  O  O240  1  0.99931160  0.24239354  0.63171756  1
  O  O241  1  1.00086727  0.75057417  0.13704000  1
  O  O242  1  0.99283375  0.74440017  0.63637934  1
  O  O243  1  -0.00210742  0.25841736  0.36356005  1
  O  O244  1  0.00561115  0.25466749  0.87079709  1
  O  O245  1  -0.00252018  0.75946285  0.36968878  1
  O  O246  1  0.00038922  0.75668065  0.86286667  1
  O  O247  1  0.50808507  0.24779258  0.36803074  1
  O  O248  1  0.49635278  0.24611459  0.85675629  1
  O  O249  1  0.50889802  0.74410080  0.36785343  1
  O  O250  1  0.50764383  0.75710817  0.86648639  1
  O  O251  1  0.24199661  0.12997866  0.49217392  1
  O  O252  1  0.24411266  0.13342492  0.99933085  1
  O  O253  1  0.23998197  0.61746537  0.49534145  1
  O  O254  1  0.24495885  0.63171601  0.99304974  1
  O  O255  1  0.74821984  0.12858897  0.48764802  1
  O  O256  1  0.75078056  0.13202464  1.00220359  1
  O  O257  1  0.74803339  0.63088511  0.48532045  1
  O  O258  1  0.74653046  0.62680963  0.98884410  1
  O  O259  1  0.25271716  0.37094999  0.00624018  1
  O  O260  1  0.24209588  0.36807192  0.50351341  1
  O  O261  1  0.25400627  0.87134850  0.00429769  1
  O  O262  1  0.25988730  0.88042647  0.50673186  1
  O  O263  1  0.75788995  0.36824823  0.01229870  1
  O  O264  1  0.75272005  0.36343077  0.49400064  1
  O  O265  1  0.76715812  0.88040425  -0.00175534  1
  O  O266  1  0.75392392  0.85958836  0.49584770  1
  O  O267  1  0.13086229  0.49454137  0.24944125  1
  O  O268  1  0.12979603  0.48688436  0.75708958  1
  O  O269  1  0.12420714  0.98376899  0.25108045  1
  O  O270  1  0.13067873  0.99366477  0.74275810  1
  O  O271  1  0.63683376  0.50448904  0.24070860  1
  O  O272  1  0.63322830  0.49324978  0.74047841  1
  O  O273  1  0.62828573  0.99332142  0.24671746  1
  O  O274  1  0.63421130  0.99551763  0.74367548  1
  O  O275  1  0.37086236  0.00609179  0.25496785  1
  O  O276  1  0.36735250  -0.00667647  0.75573625  1
  O  O277  1  0.37116313  0.50873373  0.25510194  1
  O  O278  1  0.35703236  0.49486714  0.74056321  1
  O  O279  1  0.87327033  0.00768136  0.25958248  1
  O  O280  1  0.86648865  -0.00675939  0.75755328  1
  O  O281  1  0.86650992  0.51623673  0.24745254  1
  O  O282  1  0.88178430  0.51429267  0.76475951  1
  O  O283  1  0.12526122  0.37634940  0.36402092  1
  O  O284  1  0.11926554  0.36973422  0.87107547  1
  O  O285  1  0.11761071  0.87092773  0.36775281  1
  O  O286  1  0.11815515  0.87541824  0.86653016  1
  O  O287  1  0.62570892  0.36219931  0.37213652  1
  O  O288  1  0.62415782  0.35287364  0.88544721  1
  O  O289  1  0.62647640  0.86566438  0.36439081  1
  O  O290  1  0.62167176  0.87197910  0.86773207  1
  O  O291  1  0.38421122  0.12713912  0.12902474  1
  O  O292  1  0.38474328  0.12217495  0.61959349  1
  O  O293  1  0.36640700  0.63685871  0.13521222  1
  O  O294  1  0.38875938  0.62542220  0.62369117  1
  O  O295  1  0.88599155  0.11665988  0.13532782  1
  O  O296  1  0.88823428  0.12654819  0.61950355  1
  O  O297  1  0.86884162  0.62700439  0.13638071  1
  O  O298  1  0.88198843  0.63189601  0.63808210  1
  O  O299  1  0.24947936  0.25709375  0.11256284  1
  O  O300  1  0.24684422  0.25661194  0.61458113  1
  O  O301  1  0.26076438  0.76088952  0.11926558  1
  O  O302  1  0.25361355  0.76418564  0.63296549  1
  O  O303  1  0.75204055  0.25913069  0.12675720  1
  O  O304  1  0.74626981  0.24804041  0.60824893  1
  O  O305  1  0.73818778  0.75902555  0.11759479  1
  O  O306  1  0.75274650  0.74181048  0.61180760  1
  O  O307  1  0.25158228  0.23708976  0.37940424  1
  O  O308  1  0.24472973  0.24986395  0.88387715  1
  O  O309  1  0.25126571  0.73591714  0.37066082  1
  O  O310  1  0.24760027  0.74849897  0.88095453  1
  O  O311  1  0.74522417  0.24330337  0.38037463  1
  O  O312  1  0.75339028  0.24743643  0.88955255  1
  O  O313  1  0.74350870  0.74411248  0.38475932  1
  O  O314  1  0.74425962  0.74470737  0.87978745  1
  O  O315  1  0.00603064  0.12138646  0.00752278  1
  O  O316  1  0.00590079  0.11877847  0.50236052  1
  O  O317  1  0.00916546  0.61761076  -0.00348372  1
  O  O318  1  0.01385960  0.63685750  0.51810235  1
  O  O319  1  0.50362236  0.12393472  0.00960005  1
  O  O320  1  0.50111330  0.12187083  0.51077690  1
  O  O321  1  0.50273735  0.62064808  0.00233947  1
  O  O322  1  0.49974509  0.61427463  0.50985520  1
  O  O323  1  0.49859065  0.38320881  0.49537301  1
  O  O324  1  0.48321274  0.37765979  1.00444834  1
  O  O325  1  0.48468128  0.87748249  0.50216038  1
  O  O326  1  0.49724946  0.88347723  0.99209291  1
  O  O327  1  1.00290238  0.37177942  0.48417250  1
  O  O328  1  0.99422246  0.37929420  0.99950634  1
  O  O329  1  1.00593000  0.88005721  0.49196141  1
  O  O330  1  0.99570518  0.88313400  0.99623591  1
  O  O331  1  0.49521408  0.50180082  0.38015224  1
  O  O332  1  0.49817562  0.50432030  0.86893065  1
  O  O333  1  0.48496330  1.00739527  0.37288300  1
  O  O334  1  0.49807529  1.00176844  0.87533371  1
  O  O335  1  1.00074742  0.48090930  0.36927606  1
  O  O336  1  0.99095628  0.49606342  0.88756813  1
  O  O337  1  0.99267646  0.98842542  0.37862322  1
  O  O338  1  0.99600252  0.99644250  0.88176341  1
  O  O339  1  0.00059511  0.00989957  0.11384142  1
  O  O340  1  0.00352184  0.00462566  0.61867660  1
  O  O341  1  0.00084447  0.49571740  0.11461100  1
  O  O342  1  -0.00292492  0.50974264  0.63048946  1
  O  O343  1  0.50558992  0.00741650  0.11935475  1
  O  O344  1  0.50543704  0.00864635  0.62395308  1
  O  O345  1  0.51479151  0.49384423  0.13239274  1
  O  O346  1  0.50784221  0.50220359  0.61877910  1
  O  O347  1  0.24441419  0.37856632  0.24446820  1
  O  O348  1  0.24021535  0.37947772  0.74160527  1
  O  O349  1  0.24057039  0.87401617  0.24178883  1
  O  O350  1  0.24447236  0.88573577  0.74180756  1
  O  O351  1  0.75882367  0.38664049  0.24336941  1
  O  O352  1  0.72609660  0.32838201  0.76773069  1
  O  O353  1  0.74196274  0.88081091  0.25253984  1
  O  O354  1  0.73873035  0.88214728  0.75502734  1
  O  O355  1  0.25291924  0.12506249  0.25375234  1
  O  O356  1  0.24084302  0.11150584  0.74718532  1
  O  O357  1  0.25865772  0.62265711  0.25738002  1
  O  O358  1  0.24087978  0.61499076  0.75736825  1
  O  O359  1  0.75764169  0.11992436  0.25875723  1
  O  O360  1  0.75022369  0.11437170  0.74766132  1
  O  O361  1  0.75816272  0.62099004  0.25384663  1
  O  O362  1  0.75958034  0.63132278  0.76343426  1
  O  O363  1  0.36708083  0.11921300  0.36811571  1
  O  O364  1  0.37282652  0.11319721  0.88011620  1
  O  O365  1  0.36939261  0.61589653  0.37004755  1
  O  O366  1  0.35902413  0.63664031  0.87428480  1
  O  O367  1  0.86896281  0.11655697  0.36802527  1
  O  O368  1  0.87796142  0.11147752  0.87928406  1
  O  O369  1  0.85515560  0.63646680  0.35934767  1
  O  O370  1  0.87006768  0.62020255  0.87303482  1
  O  O371  1  0.13582207  0.37775398  0.13344405  1
  O  O372  1  0.12953278  0.37001053  0.63407944  1
  O  O373  1  0.13456584  0.86935860  0.13300658  1
  O  O374  1  0.13170516  0.87964785  0.62608777  1
  O  O375  1  0.63574546  0.38361729  0.12608809  1
  O  O376  1  0.63001349  0.39029322  0.62077603  1
  O  O377  1  0.62074182  0.88817232  0.13598102  1
  O  O378  1  0.61818622  0.88698186  0.63270680  1
  O  O379  1  0.11565674  0.25882553  0.24618948  1
  O  O380  1  0.11835341  0.25937605  0.75663331  1
  O  O381  1  0.11148490  0.75508791  0.25351121  1
  O  O382  1  0.11615917  0.75807381  0.75004649  1
  O  O383  1  0.61489155  0.24194929  0.25884064  1
  O  O384  1  0.60585563  0.24310947  0.74594865  1
  O  O385  1  0.61631319  0.75713171  0.25572671  1
  O  O386  1  0.62135053  0.75758673  0.75804668  1
  O  O387  1  0.38231267  0.24109492  0.24741444  1
  O  O388  1  0.38129078  0.24760335  0.74555629  1
  O  O389  1  0.38083433  0.74673233  0.24454347  1
  O  O390  1  0.38994528  0.76229006  0.74639237  1
  O  O391  1  0.88312009  0.23502931  0.25339593  1
  O  O392  1  0.89257740  0.24328126  0.75385564  1
  O  O393  1  0.88669349  0.74351977  0.24805688  1
  O  O394  1  0.88026917  0.74264309  0.74768488  1
  O  O395  1  0.38377749  0.49803259  0.49160426  1
  O  O396  1  0.37328921  0.48750854  1.00398728  1
  O  O397  1  0.37685133  0.99016993  0.48953372  1
  O  O398  1  0.38300143  0.99635874  0.99122461  1
  O  O399  1  0.89312544  0.53696525  0.49290570  1
  O  O400  1  0.88077917  0.49461965  0.99762732  1
  O  O401  1  0.88102823  1.00318305  0.48710983  1
  O  O402  1  0.88562474  0.99303883  0.99231901  1
  O  O403  1  0.11658503  0.00931892  -0.00714685  1
  O  O404  1  0.11968850  0.00781953  0.50289072  1
  O  O405  1  0.11638284  0.50797556  0.00234186  1
  O  O406  1  0.11255060  0.51921467  0.49529832  1
  O  O407  1  0.62149717  0.00435771  0.00614879  1
  O  O408  1  0.62215292  -0.00081505  0.50602892  1
  O  O409  1  0.62273966  0.49865576  0.01518913  1
  O  O410  1  0.61653988  0.50013739  0.50016686  1
  O  O411  1  0.36023888  0.37270282  0.12024623  1
  O  O412  1  0.35891708  0.36867860  0.61732361  1
  O  O413  1  0.36963154  0.86999517  0.11839436  1
  O  O414  1  0.36844314  0.87353388  0.61046418  1
  O  O415  1  0.86763940  0.38062141  0.11845009  1
  O  O416  1  0.85534533  0.36883287  0.64426614  1
  O  O417  1  0.87709678  0.88460348  0.10948428  1
  O  O418  1  0.87646354  0.85788409  0.62876359  1
  O  O419  1  0.13193667  0.11789056  0.38178916  1
  O  O420  1  0.12748746  0.13302636  0.88678411  1
  O  O421  1  0.13292710  0.62715481  0.38235776  1
  O  O422  1  0.13466367  0.62813058  0.88644482  1
  O  O423  1  0.63466122  0.13223321  0.37549024  1
  O  O424  1  0.63511028  0.15101087  0.86968101  1
  O  O425  1  0.63878104  0.63864224  0.36427921  1
  O  O426  1  0.63585526  0.63598319  0.87468594  1
