# generated using pymatgen
data_V85Zn86O256
_symmetry_space_group_name_H-M   'P 1'
_cell_length_a   16.92432587
_cell_length_b   16.92580770
_cell_length_c   16.93598029
_cell_angle_alpha   90.01971592
_cell_angle_beta   90.05855207
_cell_angle_gamma   90.00388833
_symmetry_Int_Tables_number   1
_chemical_formula_structural   V85Zn86O256
_chemical_formula_sum   'V85 Zn86 O256'
_cell_volume   4851.44226486
_cell_formula_units_Z   1
loop_
 _symmetry_equiv_pos_site_id
 _symmetry_equiv_pos_as_xyz
  1  'x, y, z'
loop_
 _atom_site_type_symbol
 _atom_site_label
 _atom_site_symmetry_multiplicity
 _atom_site_fract_x
 _atom_site_fract_y
 _atom_site_fract_z
 _atom_site_occupancy
  V  V0  1  0.25138362  0.62331896  0.37442912  1
  V  V1  1  0.87635745  0.25241057  0.12387881  1
  V  V2  1  0.37027999  0.75140200  0.12686919  1
  V  V3  1  0.24994770  0.87672120  0.62333730  1
  V  V4  1  0.62744274  0.62301323  0.49814949  1
  V  V5  1  0.80876525  0.81688521  0.66821995  1
  V  V6  1  0.75504382  0.25266567  -0.00240329  1
  V  V7  1  0.00054438  0.50168208  0.50077610  1
  V  V8  1  0.36898706  0.00651231  0.37011139  1
  V  V9  1  0.23822454  0.49673401  0.24169008  1
  V  V10  1  0.49935492  0.12643253  0.62436197  1
  V  V11  1  0.00950586  0.25151920  0.25343658  1
  V  V12  1  0.74917903  0.87601620  0.13462401  1
  V  V13  1  0.25280500  0.37772921  0.62756315  1
  V  V14  1  0.00298997  0.11190370  0.12370029  1
  V  V15  1  0.23887753  0.25251798  -0.00520314  1
  V  V16  1  0.37490994  0.00143910  0.87462058  1
  V  V17  1  0.87141257  0.73413750  0.13004293  1
  V  V18  1  0.62984632  0.49829694  0.62931743  1
  V  V19  1  0.24929953  0.75099655  0.49957696  1
  V  V20  1  0.50049621  -0.00253128  0.49315781  1
  V  V21  1  0.37454533  0.12643715  0.74912245  1
  V  V22  1  -0.00087372  0.50725804  0.00540194  1
  V  V23  1  0.63235901  -0.00084063  0.62470745  1
  V  V24  1  0.62025198  0.75534860  0.37303098  1
  V  V25  1  0.12350223  0.88182489  0.24645638  1
  V  V26  1  0.25202723  0.61277722  0.87446767  1
  V  V27  1  0.62608230  0.25240555  0.37210701  1
  V  V28  1  0.49697626  0.62308363  0.11952267  1
  V  V29  1  0.62989337  0.00142934  0.13320001  1
  V  V30  1  0.24582567  0.88243089  0.12290449  1
  V  V31  1  0.37871479  0.87597126  0.48989662  1
  V  V32  1  0.37020386  0.86944086  -0.00072975  1
  V  V33  1  0.01326203  0.37198746  0.37273584  1
  V  V34  1  0.75456441  0.37831789  0.63369093  1
  V  V35  1  0.61920234  0.49857510  0.11393152  1
  V  V36  1  0.12694870  0.50200098  0.63411526  1
  V  V37  1  0.12120551  0.87316797  0.74815158  1
  V  V38  1  0.00422088  0.11824278  0.62182188  1
  V  V39  1  0.49290032  0.49535459  0.49930381  1
  V  V40  1  -0.00330072  0.37058715  0.88175464  1
  V  V41  1  0.63017435  0.25032178  0.87145800  1
  V  V42  1  0.88002837  0.87639195  0.01048653  1
  V  V43  1  0.87224136  0.00020117  0.37509230  1
  V  V44  1  0.50182304  0.87287510  0.87475229  1
  V  V45  1  0.75435852  0.61960229  0.36266845  1
  V  V46  1  0.75600756  0.74786985  0.50031648  1
  V  V47  1  0.24161317  0.12928545  0.87350271  1
  V  V48  1  0.24585303  0.25268770  0.48859596  1
  V  V49  1  0.24838297  0.00045069  0.74790167  1
  V  V50  1  0.12386906  0.75215747  0.37737730  1
  V  V51  1  -0.00833659  0.74365165  0.25465502  1
  V  V52  1  0.74943782  0.62161103  0.86554306  1
  V  V53  1  0.87510170  0.50099300  0.36134092  1
  V  V54  1  0.13293076  0.74948091  0.88184028  1
  V  V55  1  0.49929727  0.25272950  0.24773901  1
  V  V56  1  -0.01244662  0.62955097  0.63364813  1
  V  V57  1  0.88106434  0.24913029  0.62634133  1
  V  V58  1  0.37352759  0.25312383  0.11703879  1
  V  V59  1  0.87673557  0.50628735  0.86307544  1
  V  V60  1  0.37651900  0.75261762  0.62528502  1
  V  V61  1  -0.00076644  0.88131592  0.38029458  1
  V  V62  1  0.87098244  0.00266854  0.88407673  1
  V  V63  1  0.49896717  0.62313087  0.62634675  1
  V  V64  1  0.49312618  0.37616090  0.37599326  1
  V  V65  1  0.63199446  0.12393878  -0.00676733  1
  V  V66  1  0.75561135  0.38312089  0.12710945  1
  V  V67  1  0.86943338  0.12188579  0.24745561  1
  V  V68  1  0.37375753  0.25519189  0.61935327  1
  V  V69  1  0.50135456  0.00054902  0.00005101  1
  V  V70  1  0.87101013  0.12400359  0.75552334  1
  V  V71  1  0.62852923  0.38669421  0.25043855  1
  V  V72  1  0.12651169  0.12216195  0.48589537  1
  V  V73  1  0.36258924  0.12884077  0.24840384  1
  V  V74  1  0.62437595  0.12605761  0.49874593  1
  V  V75  1  0.62433194  0.87240368  0.74564754  1
  V  V76  1  0.12536983  0.36757582  0.75485468  1
  V  V77  1  0.38026393  0.38429323  -0.00415831  1
  V  V78  1  0.50053941  0.12528777  0.12290143  1
  V  V79  1  0.87652443  0.37465853  0.49652478  1
  V  V80  1  0.75208939  0.25103071  0.49819667  1
  V  V81  1  0.12071626  0.10969760  0.00189501  1
  V  V82  1  0.87321291  0.87894841  0.50215726  1
  V  V83  1  0.00030553  0.87650499  0.88345464  1
  V  V84  1  0.74761681  0.12016613  0.37083768  1
  Zn  Zn85  1  0.62890837  0.38048088  0.75429542  1
  Zn  Zn86  1  0.37063854  0.49716252  0.37310657  1
  Zn  Zn87  1  0.75112266  -0.00143564  0.75359036  1
  Zn  Zn88  1  0.49616307  0.75645692  0.25156740  1
  Zn  Zn89  1  0.49893056  0.74743318  0.75161078  1
  Zn  Zn90  1  0.62066091  0.88372429  0.25736547  1
  Zn  Zn91  1  0.12405702  0.62678371  0.50555751  1
  Zn  Zn92  1  0.12293386  -0.00061170  0.61857928  1
  Zn  Zn93  1  -0.01267848  0.74858100  0.75074075  1
  Zn  Zn94  1  0.50148397  0.25185550  0.75214899  1
  Zn  Zn95  1  0.13181228  0.62306352  0.01115325  1
  Zn  Zn96  1  0.23840379  0.01164776  0.24808197  1
  Zn  Zn97  1  0.62529359  0.74757080  0.87778134  1
  Zn  Zn98  1  0.50792520  0.38213274  0.87472263  1
  Zn  Zn99  1  0.00587209  0.61597749  0.13825842  1
  Zn  Zn100  1  0.62372419  0.62419642  -0.00383293  1
  Zn  Zn101  1  0.37900376  0.49610198  0.86018325  1
  Zn  Zn102  1  0.36419959  0.61577259  0.74238950  1
  Zn  Zn103  1  0.00463125  0.24471066  0.75795044  1
  Zn  Zn104  1  0.23483591  0.38727259  0.11896785  1
  Zn  Zn105  1  0.74706142  0.74355843  0.00417868  1
  Zn  Zn106  1  0.37575767  0.62380687  0.24911783  1
  Zn  Zn107  1  0.16955577  0.22095977  0.16799993  1
  Zn  Zn108  1  0.18718576  0.19018244  0.68367142  1
  Zn  Zn109  1  0.18824088  0.69118100  0.19002223  1
  Zn  Zn110  1  0.18358810  0.68842103  0.69090602  1
  Zn  Zn111  1  0.68775540  0.19137572  0.18515834  1
  Zn  Zn112  1  0.69308935  0.18659135  0.68597519  1
  Zn  Zn113  1  0.68481459  0.68430249  0.18710157  1
  Zn  Zn114  1  0.68185497  0.68090861  0.69326906  1
  Zn  Zn115  1  0.30994785  0.31619928  0.30699484  1
  Zn  Zn116  1  0.31289864  0.31323130  0.80928809  1
  Zn  Zn117  1  0.31083972  0.81470132  0.30876934  1
  Zn  Zn118  1  0.31220259  0.81085389  0.81001788  1
  Zn  Zn119  1  0.81590135  0.31273093  0.30944064  1
  Zn  Zn120  1  0.81822490  0.31294009  0.81587347  1
  Zn  Zn121  1  0.80785529  0.81125874  0.31259192  1
  Zn  Zn122  1  0.81069118  0.81305064  0.83125396  1
  Zn  Zn123  1  0.18910231  0.43847915  0.44289466  1
  Zn  Zn124  1  0.18215210  0.43803336  0.93820818  1
  Zn  Zn125  1  0.18931041  0.94174321  0.43515604  1
  Zn  Zn126  1  0.18897299  0.93687225  0.93603868  1
  Zn  Zn127  1  0.68705364  0.43899001  0.43999925  1
  Zn  Zn128  1  0.69652071  0.43580489  0.93811878  1
  Zn  Zn129  1  0.69212685  0.93640368  0.44152428  1
  Zn  Zn130  1  0.69145882  0.93340684  0.94329655  1
  Zn  Zn131  1  0.31059772  0.06204313  0.06206883  1
  Zn  Zn132  1  0.30889462  0.06644117  0.55927970  1
  Zn  Zn133  1  0.30742087  0.56725431  0.05953687  1
  Zn  Zn134  1  0.31173053  0.56132984  0.56194551  1
  Zn  Zn135  1  0.81170293  0.06177997  0.06269666  1
  Zn  Zn136  1  0.81478139  0.06383976  0.56113586  1
  Zn  Zn137  1  0.81475116  0.55749972  0.05210236  1
  Zn  Zn138  1  0.81443458  0.56096006  0.55865875  1
  Zn  Zn139  1  0.43094848  0.44104672  0.18770960  1
  Zn  Zn140  1  0.44099599  0.43598545  0.69383240  1
  Zn  Zn141  1  0.44108029  0.93547873  0.19041272  1
  Zn  Zn142  1  0.43979018  0.93937540  0.68402622  1
  Zn  Zn143  1  0.94363057  0.43264701  0.18626293  1
  Zn  Zn144  1  0.94322728  0.43641549  0.68947932  1
  Zn  Zn145  1  0.93522765  0.93432170  0.19424409  1
  Zn  Zn146  1  0.94353005  0.94441941  0.69476254  1
  Zn  Zn147  1  0.05586545  0.06342117  0.31127358  1
  Zn  Zn148  1  0.05847910  0.05911556  0.81387829  1
  Zn  Zn149  1  0.06565912  0.56272017  0.31737453  1
  Zn  Zn150  1  0.06317254  0.56223993  0.81337845  1
  Zn  Zn151  1  0.55506998  0.06496575  0.31120471  1
  Zn  Zn152  1  0.56414844  0.06295241  0.81141879  1
  Zn  Zn153  1  0.56057054  0.56676394  0.30766894  1
  Zn  Zn154  1  0.55897453  0.55846234  0.81331680  1
  Zn  Zn155  1  0.43410755  0.18936915  0.43618240  1
  Zn  Zn156  1  0.43947317  0.19182622  0.93512608  1
  Zn  Zn157  1  0.43739816  0.68440617  0.44083542  1
  Zn  Zn158  1  0.43496648  0.68522677  0.93937825  1
  Zn  Zn159  1  0.94139658  0.18576295  0.43738089  1
  Zn  Zn160  1  0.93905942  0.18556892  0.94116120  1
  Zn  Zn161  1  0.93566231  0.68672800  0.44115147  1
  Zn  Zn162  1  0.93591664  0.68898070  0.93896636  1
  Zn  Zn163  1  0.06067235  0.31208210  0.05816078  1
  Zn  Zn164  1  0.06635840  0.31140805  0.56116016  1
  Zn  Zn165  1  0.06212347  0.80078958  0.06971380  1
  Zn  Zn166  1  0.05718476  0.81203979  0.56383723  1
  Zn  Zn167  1  0.56433845  0.31347608  0.05940218  1
  Zn  Zn168  1  0.56342344  0.31394180  0.56300350  1
  Zn  Zn169  1  0.56205092  0.80984674  0.06362432  1
  Zn  Zn170  1  0.56442450  0.81247102  0.55967695  1
  O  O171  1  0.11794128  0.12831961  0.11137322  1
  O  O172  1  0.11718207  0.12403628  0.61998321  1
  O  O173  1  0.11284528  0.65308618  0.11914998  1
  O  O174  1  0.11970307  0.61668942  0.62531758  1
  O  O175  1  0.62073026  0.12122866  0.11613587  1
  O  O176  1  0.61978364  0.12013267  0.61939691  1
  O  O177  1  0.61787052  0.61455500  0.12474580  1
  O  O178  1  0.61875006  0.61854040  0.61794886  1
  O  O179  1  0.39007298  0.37467596  0.37056701  1
  O  O180  1  0.37253500  0.37339562  0.88685371  1
  O  O181  1  0.37161767  0.88183756  0.38535416  1
  O  O182  1  0.38026705  0.88017001  0.87972140  1
  O  O183  1  0.87923548  0.38301503  0.37973384  1
  O  O184  1  0.88894089  0.38678857  0.87149197  1
  O  O185  1  0.87715700  0.88150525  0.38038230  1
  O  O186  1  0.88218350  0.87945559  0.88977843  1
  O  O187  1  0.26439974  0.00003011  0.36938528  1
  O  O188  1  0.25504176  0.00904031  0.86788176  1
  O  O189  1  0.24941106  0.50821086  0.37292748  1
  O  O190  1  0.24926983  0.51091405  0.87373906  1
  O  O191  1  0.75255760  0.01308580  0.37714949  1
  O  O192  1  0.76594925  -0.00853498  0.87458721  1
  O  O193  1  0.75796526  0.51162857  0.38091832  1
  O  O194  1  0.76647527  0.50626046  0.87844649  1
  O  O195  1  0.24638081  0.50421437  0.13588676  1
  O  O196  1  0.23894815  0.49010989  0.61480786  1
  O  O197  1  0.25503733  0.98742529  0.13055514  1
  O  O198  1  0.24958469  0.99405309  0.63079762  1
  O  O199  1  0.74554243  0.48739190  0.12065038  1
  O  O200  1  0.74385210  0.48927740  0.61462494  1
  O  O201  1  0.74075131  0.99154088  0.12143271  1
  O  O202  1  0.73551268  1.00480467  0.62267328  1
  O  O203  1  0.00084978  0.36000133  0.25600004  1
  O  O204  1  0.00719457  0.37074158  0.76015392  1
  O  O205  1  0.00410780  0.86625984  0.26129781  1
  O  O206  1  0.00701773  0.87212391  0.75831047  1
  O  O207  1  0.50697629  0.37130621  0.25541021  1
  O  O208  1  0.51162042  0.36742793  0.75029886  1
  O  O209  1  0.50813177  0.87050011  0.24972129  1
  O  O210  1  0.50694833  0.87642700  0.75715724  1
  O  O211  1  0.49357492  0.13528885  0.24065854  1
  O  O212  1  0.49436850  0.12682295  0.74171638  1
  O  O213  1  0.49738167  0.63281652  0.23784236  1
  O  O214  1  0.49933805  0.62736899  0.73448812  1
  O  O215  1  0.98701404  0.13165080  0.24646628  1
  O  O216  1  0.99260760  0.12619980  0.74204461  1
  O  O217  1  1.00280889  0.63941169  0.25804448  1
  O  O218  1  1.00097264  0.62740163  0.73823264  1
  O  O219  1  0.36741572  0.25626119  0.00177552  1
  O  O220  1  0.36130492  0.24122578  0.50962305  1
  O  O221  1  0.37797621  0.76468202  0.00573567  1
  O  O222  1  0.37246790  0.75904624  0.50638564  1
  O  O223  1  0.86961754  0.24237090  0.01457113  1
  O  O224  1  0.87186653  0.25309971  0.50665227  1
  O  O225  1  0.87368537  0.75670921  0.01370905  1
  O  O226  1  0.86309701  0.75703767  0.49926864  1
  O  O227  1  0.13772424  0.24118754  0.50241594  1
  O  O228  1  0.13676769  0.23793288  0.99347104  1
  O  O229  1  0.12818238  0.75341919  0.49036458  1
  O  O230  1  0.11937290  0.75207774  0.98270233  1
  O  O231  1  0.63116647  0.24497869  0.49248444  1
  O  O232  1  0.63316692  0.24331327  0.99239506  1
  O  O233  1  0.63555782  0.74583159  0.49202425  1
  O  O234  1  0.62794204  0.74741238  0.99582072  1
  O  O235  1  0.49101973  0.24635488  0.12520223  1
  O  O236  1  0.49231013  0.24276838  0.62123512  1
  O  O237  1  0.48709148  0.74566233  0.12587196  1
  O  O238  1  0.49306007  0.74157127  0.62080869  1
  O  O239  1  0.99225819  0.24158658  0.13556693  1
  O  O240  1  0.99033933  0.24418360  0.62470666  1
  O  O241  1  0.98474996  0.75360551  0.14034428  1
  O  O242  1  1.00210447  0.73399224  0.62769739  1
  O  O243  1  -0.01235080  0.25889930  0.36160633  1
  O  O244  1  -0.00709406  0.26628830  0.87750436  1
  O  O245  1  0.00379421  0.75879315  0.37476798  1
  O  O246  1  0.00478753  0.75976185  0.87086587  1
  O  O247  1  0.50606115  0.25787091  0.37125477  1
  O  O248  1  0.51498930  0.25306305  0.87405246  1
  O  O249  1  0.51819575  0.74209653  0.38083690  1
  O  O250  1  0.49783503  0.76254795  0.87316747  1
  O  O251  1  0.23730931  0.13789567  0.50259599  1
  O  O252  1  0.24026270  0.12643507  0.99203869  1
  O  O253  1  0.24685046  0.63366836  0.49429547  1
  O  O254  1  0.24588670  0.62718724  0.98205028  1
  O  O255  1  0.74408826  0.13119672  0.49205597  1
  O  O256  1  0.74124452  0.13706501  1.00767749  1
  O  O257  1  0.74580700  0.63172453  0.49525632  1
  O  O258  1  0.74636874  0.62344747  0.98876459  1
  O  O259  1  0.25358954  0.36674888  -0.00109799  1
  O  O260  1  0.24374438  0.36209665  0.51225551  1
  O  O261  1  0.25890449  0.88112671  0.00755177  1
  O  O262  1  0.25738567  0.87142941  0.50436918  1
  O  O263  1  0.74810373  0.36131861  0.01238001  1
  O  O264  1  0.75753474  0.36823624  0.50486747  1
  O  O265  1  0.76243901  0.87012783  0.01211730  1
  O  O266  1  0.76218347  0.86616974  0.50108829  1
  O  O267  1  0.13866637  0.50374998  0.25355323  1
  O  O268  1  0.11969635  0.49007781  0.73884819  1
  O  O269  1  0.12205235  0.98714137  0.25706553  1
  O  O270  1  0.12914162  0.98832448  0.74943537  1
  O  O271  1  0.62362347  0.48947186  0.24327057  1
  O  O272  1  0.62513604  0.50166171  0.73255681  1
  O  O273  1  0.62116448  1.00582449  0.23689180  1
  O  O274  1  0.62948214  0.99420278  0.74235778  1
  O  O275  1  0.37728252  0.01152181  0.25570351  1
  O  O276  1  0.36988943  0.00601157  0.75362267  1
  O  O277  1  0.36277812  0.50579470  0.25445514  1
  O  O278  1  0.36923579  0.50246495  0.74481204  1
  O  O279  1  0.87495177  0.00746532  0.26410442  1
  O  O280  1  0.87281792  0.00642120  0.76065483  1
  O  O281  1  0.88337068  0.49678866  0.26234101  1
  O  O282  1  0.88140445  0.49953278  0.76365763  1
  O  O283  1  0.11195688  0.37702955  0.38174110  1
  O  O284  1  0.11135430  0.38094838  0.86548650  1
  O  O285  1  0.11596396  0.87195486  0.37424369  1
  O  O286  1  0.11893963  0.86937168  0.87056655  1
  O  O287  1  0.62177872  0.37157538  0.36688080  1
  O  O288  1  0.63046157  0.36564522  0.87398772  1
  O  O289  1  0.63476014  0.85896289  0.37764844  1
  O  O290  1  0.61892435  0.87747498  0.86476166  1
  O  O291  1  0.38369639  0.13020201  0.12699168  1
  O  O292  1  0.37976566  0.13044534  0.62933425  1
  O  O293  1  0.37788472  0.63470908  0.12260648  1
  O  O294  1  0.38132923  0.63487685  0.62093924  1
  O  O295  1  0.87932556  0.12880763  0.13251572  1
  O  O296  1  0.88243941  0.13162702  0.62877329  1
  O  O297  1  0.87703795  0.63232763  0.12316299  1
  O  O298  1  0.88898224  0.61993305  0.62318842  1
  O  O299  1  0.26728426  0.23760645  0.10828298  1
  O  O300  1  0.25717417  0.25663376  0.61771123  1
  O  O301  1  0.26311757  0.76394262  0.13067347  1
  O  O302  1  0.25629326  0.75553176  0.61885918  1
  O  O303  1  0.75758625  0.25757840  0.12009101  1
  O  O304  1  0.76280746  0.25509971  0.61877785  1
  O  O305  1  0.75593348  0.75560016  0.12811745  1
  O  O306  1  0.74545077  0.74739372  0.61807581  1
  O  O307  1  0.25648801  0.25806076  0.38996496  1
  O  O308  1  0.25590360  0.23561380  0.87933393  1
  O  O309  1  0.24173903  0.74711578  0.37939771  1
  O  O310  1  0.23500489  0.75535622  0.87511777  1
  O  O311  1  0.74733119  0.24012984  0.37764250  1
  O  O312  1  0.74837857  0.25355259  0.88692333  1
  O  O313  1  0.74524841  0.73821776  0.38214321  1
  O  O314  1  0.74937319  0.73377372  0.88016523  1
  O  O315  1  0.01287264  0.12614186  0.00723264  1
  O  O316  1  0.01581823  0.13337724  0.50731793  1
  O  O317  1  0.00089269  0.61440890  -0.00008272  1
  O  O318  1  0.00206245  0.61751409  0.50836823  1
  O  O319  1  0.50777219  0.12051028  0.00398774  1
  O  O320  1  0.50584088  0.11936663  0.50397669  1
  O  O321  1  0.50211136  0.62869930  0.01391716  1
  O  O322  1  0.50643382  0.61777204  0.50856148  1
  O  O323  1  0.50870163  0.38391424  0.48880553  1
  O  O324  1  0.48312882  0.36935347  0.99924251  1
  O  O325  1  0.49164693  0.88558999  0.50447988  1
  O  O326  1  0.49435760  0.88196133  0.99193588  1
  O  O327  1  0.99502683  0.37969188  0.49445097  1
  O  O328  1  1.00487088  0.38327232  0.98734115  1
  O  O329  1  0.98424619  0.86949480  0.49387159  1
  O  O330  1  0.98936580  0.86888286  0.99819406  1
  O  O331  1  0.50192226  0.49400775  0.38100533  1
  O  O332  1  0.49308242  0.49571382  0.87472749  1
  O  O333  1  0.49112972  1.00488460  0.38707149  1
  O  O334  1  0.49613286  0.99080113  0.87828243  1
  O  O335  1  0.99528597  0.49467965  0.38235512  1
  O  O336  1  0.99260143  0.49573313  0.87905853  1
  O  O337  1  0.99017750  0.98810794  0.37444695  1
  O  O338  1  0.99032153  0.98361122  0.87279903  1
  O  O339  1  -0.00493292  0.01304443  0.13478799  1
  O  O340  1  0.00080860  0.01400611  0.62360440  1
  O  O341  1  -0.00363732  0.49999060  0.11178070  1
  O  O342  1  0.00584372  0.50767029  0.61952161  1
  O  O343  1  0.50743232  0.00634679  0.11702584  1
  O  O344  1  0.50770191  0.00810110  0.61453746  1
  O  O345  1  0.50771319  0.50766475  0.13006295  1
  O  O346  1  0.50718401  0.50440699  0.61629133  1
  O  O347  1  0.25188081  0.39279664  0.24702449  1
  O  O348  1  0.24134865  0.36920027  0.73690100  1
  O  O349  1  0.23916299  0.87961362  0.24392415  1
  O  O350  1  0.24318829  0.87982229  0.74298309  1
  O  O351  1  0.73931737  0.36723379  0.24077044  1
  O  O352  1  0.75180164  0.36979098  0.73642985  1
  O  O353  1  0.74320677  0.87438365  0.23920051  1
  O  O354  1  0.74577955  0.87183677  0.74314174  1
  O  O355  1  0.26156439  0.12922591  0.23911837  1
  O  O356  1  0.25194049  0.12119079  0.75574439  1
  O  O357  1  0.24949863  0.61868562  0.25916981  1
  O  O358  1  0.24955781  0.63707402  0.76847088  1
  O  O359  1  0.76039396  0.13107849  0.25582587  1
  O  O360  1  0.76711122  0.12116227  0.74523240  1
  O  O361  1  0.74982804  0.62460632  0.26441124  1
  O  O362  1  0.75084418  0.62463201  0.76515237  1
  O  O363  1  0.38030901  0.11937376  0.36148411  1
  O  O364  1  0.36908036  0.11980514  0.86888212  1
  O  O365  1  0.36096465  0.62767643  0.37643035  1
  O  O366  1  0.36076585  0.62778076  0.87257800  1
  O  O367  1  0.86870912  0.11907691  0.37047686  1
  O  O368  1  0.88456605  0.11481377  0.86864059  1
  O  O369  1  0.86260292  0.61724628  0.38100471  1
  O  O370  1  0.86799498  0.61500483  0.87621510  1
  O  O371  1  0.13928162  0.32931426  0.13293092  1
  O  O372  1  0.12969856  0.38133983  0.63231049  1
  O  O373  1  0.13220323  0.86722192  0.13523002  1
  O  O374  1  0.12747196  0.87682249  0.63159713  1
  O  O375  1  0.62972221  0.37985695  0.13148127  1
  O  O376  1  0.63747988  0.38091615  0.62328900  1
  O  O377  1  0.63264211  0.88540832  0.12300349  1
  O  O378  1  0.61761897  0.88360681  0.63650546  1
  O  O379  1  0.10575697  0.23022822  0.26357169  1
  O  O380  1  0.12191048  0.26209367  0.74633180  1
  O  O381  1  0.11834852  0.76165847  0.26523565  1
  O  O382  1  0.12224725  0.76308080  0.75862237  1
  O  O383  1  0.61785927  0.25742396  0.25414442  1
  O  O384  1  0.63199957  0.24374274  0.76413830  1
  O  O385  1  0.62704724  0.74834624  0.26701463  1
  O  O386  1  0.61978227  0.75927188  0.75324666  1
  O  O387  1  0.37874025  0.24803496  0.23839664  1
  O  O388  1  0.37541994  0.24179543  0.73883910  1
  O  O389  1  0.37549301  0.74749208  0.24222667  1
  O  O390  1  0.37774642  0.75186939  0.73423243  1
  O  O391  1  0.87974799  0.24110109  0.24086913  1
  O  O392  1  0.87884631  0.24268813  0.74303415  1
  O  O393  1  0.88078740  0.75361622  0.24519440  1
  O  O394  1  0.86827322  0.76756585  0.73939435  1
  O  O395  1  0.38898127  0.50307037  0.49597824  1
  O  O396  1  0.36613554  0.48453118  1.00015625  1
  O  O397  1  0.38047539  0.99672974  0.49319469  1
  O  O398  1  0.38092018  0.99329774  0.99333296  1
  O  O399  1  0.88733433  0.49415379  0.49386447  1
  O  O400  1  0.89178887  0.49885644  0.98725138  1
  O  O401  1  0.86884635  0.99367358  0.48700512  1
  O  O402  1  0.87489941  0.99187727  0.99646162  1
  O  O403  1  0.12736688  0.01075323  0.00055398  1
  O  O404  1  0.13293077  0.01647921  0.50143439  1
  O  O405  1  0.10680780  0.50468498  -0.00689317  1
  O  O406  1  0.11238633  0.49970411  0.50968293  1
  O  O407  1  0.62276327  0.00753782  0.00576727  1
  O  O408  1  0.61839825  0.00320417  0.50426784  1
  O  O409  1  0.62666374  0.49591143  0.01168188  1
  O  O410  1  0.61723812  0.50521686  0.50737816  1
  O  O411  1  0.36897345  0.36778291  0.11355760  1
  O  O412  1  0.36799971  0.36336093  0.62681201  1
  O  O413  1  0.36962876  0.87201940  0.11714183  1
  O  O414  1  0.37197688  0.87053588  0.61475737  1
  O  O415  1  0.86726604  0.36484118  0.13201047  1
  O  O416  1  0.87318470  0.36896539  0.61951624  1
  O  O417  1  0.86744101  0.87145770  0.12497452  1
  O  O418  1  0.87472507  0.88513530  0.61882820  1
  O  O419  1  0.11976640  0.12225240  0.38707309  1
  O  O420  1  0.13023137  0.11877084  0.88502796  1
  O  O421  1  0.13401622  0.63538125  0.38066438  1
  O  O422  1  0.13240134  0.63749593  0.87245054  1
  O  O423  1  0.63060888  0.12987062  0.37700841  1
  O  O424  1  0.62391447  0.12857160  0.88696311  1
  O  O425  1  0.63629354  0.62886995  0.37926641  1
  O  O426  1  0.63707389  0.62180557  0.87372949  1
