# generated using pymatgen
data_V85Zn86O256
_symmetry_space_group_name_H-M   'P 1'
_cell_length_a   16.93115553
_cell_length_b   16.94673830
_cell_length_c   16.92603969
_cell_angle_alpha   89.99890307
_cell_angle_beta   90.03804040
_cell_angle_gamma   89.96798883
_symmetry_Int_Tables_number   1
_chemical_formula_structural   V85Zn86O256
_chemical_formula_sum   'V85 Zn86 O256'
_cell_volume   4856.55054985
_cell_formula_units_Z   1
loop_
 _symmetry_equiv_pos_site_id
 _symmetry_equiv_pos_as_xyz
  1  'x, y, z'
loop_
 _atom_site_type_symbol
 _atom_site_label
 _atom_site_symmetry_multiplicity
 _atom_site_fract_x
 _atom_site_fract_y
 _atom_site_fract_z
 _atom_site_occupancy
  V  V0  1  0.75202219  0.74870535  0.49374894  1
  V  V1  1  0.38151029  0.62622079  0.24978937  1
  V  V2  1  0.50142945  0.12369119  0.62742141  1
  V  V3  1  0.12580177  0.62174297  0.49966748  1
  V  V4  1  0.62631948  0.75460798  0.86237680  1
  V  V5  1  0.49816003  0.76309295  0.25190260  1
  V  V6  1  0.50611679  0.49233588  0.49611378  1
  V  V7  1  0.25341868  0.24895866  0.00122011  1
  V  V8  1  0.61978676  0.24997044  0.87688437  1
  V  V9  1  0.87535882  0.37096451  0.51244820  1
  V  V10  1  0.62675529  0.12235367  0.00945208  1
  V  V11  1  0.49851529  0.50441311  -0.00702877  1
  V  V12  1  0.61257820  0.24982618  0.37419164  1
  V  V13  1  0.38453887  0.12757855  0.23358833  1
  V  V14  1  0.12813355  0.49960154  0.63000179  1
  V  V15  1  -0.00611481  0.87876237  0.87363015  1
  V  V16  1  0.36828444  0.49885044  0.86383893  1
  V  V17  1  0.62186866  0.75230437  0.37681603  1
  V  V18  1  0.62295474  0.62995694  0.00018003  1
  V  V19  1  -0.00294557  0.37130429  0.87727554  1
  V  V20  1  0.37168533  0.12236339  0.75045627  1
  V  V21  1  0.63060293  0.12351705  0.49564541  1
  V  V22  1  0.00101901  0.75077788  0.75053961  1
  V  V23  1  0.87118338  0.88125470  0.50347432  1
  V  V24  1  0.50316281  -0.00485374  0.49644541  1
  V  V25  1  0.37953537  0.37163180  0.48998134  1
  V  V26  1  0.62741695  0.50251751  0.12758308  1
  V  V27  1  0.49637783  0.25355579  0.76329907  1
  V  V28  1  0.00223509  0.49663652  0.49931106  1
  V  V29  1  0.25308138  0.49625987  0.25062539  1
  V  V30  1  0.75259717  0.01528666  0.25701356  1
  V  V31  1  0.86071880  0.61932141  0.25292462  1
  V  V32  1  0.12690328  0.49954836  0.12224029  1
  V  V33  1  0.87634525  0.49779685  0.88044170  1
  V  V34  1  0.75299288  0.37998050  0.13469303  1
  V  V35  1  0.62798538  -0.01065287  0.63613746  1
  V  V36  1  0.25462983  0.62129159  0.37942035  1
  V  V37  1  0.86390968  0.49775616  0.37152637  1
  V  V38  1  0.24955883  0.12985990  0.36941262  1
  V  V39  1  0.12170224  0.24942964  0.87117149  1
  V  V40  1  -0.01073275  0.00254036  -0.00358231  1
  V  V41  1  0.37461019  -0.00010549  0.87504995  1
  V  V42  1  0.87549835  0.62016692  0.74818255  1
  V  V43  1  0.24978368  0.87450581  0.62288938  1
  V  V44  1  0.18319616  0.68353590  0.05080457  1
  V  V45  1  0.87142915  0.75213004  0.12739367  1
  V  V46  1  0.37875285  0.87316235  0.49606193  1
  V  V47  1  0.75233881  0.62750970  0.87616198  1
  V  V48  1  0.12603039  -0.00341122  0.12524038  1
  V  V49  1  0.50133080  -0.00224196  0.00719144  1
  V  V50  1  0.25359596  0.37793777  0.62692553  1
  V  V51  1  0.75660493  -0.01065781  0.75313692  1
  V  V52  1  -0.00260511  0.24670007  0.25157367  1
  V  V53  1  0.63557846  0.61594638  0.49793993  1
  V  V54  1  -0.00349544  0.62602238  0.12369056  1
  V  V55  1  0.37065436  0.24768278  0.62582724  1
  V  V56  1  0.25525975  0.36931113  0.12378904  1
  V  V57  1  0.87509275  0.14125271  0.74480099  1
  V  V58  1  0.75511367  0.12293537  0.87527214  1
  V  V59  1  0.35973027  0.86782159  0.00221765  1
  V  V60  1  0.74547963  0.87898084  0.13251582  1
  V  V61  1  0.50262210  0.87478541  0.86925399  1
  V  V62  1  0.50693194  0.62100959  0.62350312  1
  V  V63  1  0.61318945  0.37768470  0.25446700  1
  V  V64  1  0.24272773  -0.00046537  0.74695676  1
  V  V65  1  0.87541632  0.25574402  0.12525513  1
  V  V66  1  0.37926726  -0.00262460  0.36931642  1
  V  V67  1  0.86979392  0.75378472  0.62471338  1
  V  V68  1  0.75243600  0.26308498  -0.00067203  1
  V  V69  1  0.24411503  0.62978707  0.85932821  1
  V  V70  1  -0.00327212  0.88007401  0.38118372  1
  V  V71  1  -0.00617771  0.12517627  0.12855992  1
  V  V72  1  0.75215240  0.24714344  0.50068081  1
  V  V73  1  0.12011555  0.12431187  0.49551999  1
  V  V74  1  0.12774291  0.87643967  0.25064894  1
  V  V75  1  0.12055331  0.74956882  0.38069297  1
  V  V76  1  0.38057164  0.37623479  -0.00279782  1
  V  V77  1  0.00395353  0.37245602  0.37437039  1
  V  V78  1  0.00287964  0.49986035  0.00076146  1
  V  V79  1  0.24796624  0.12384441  0.87156989  1
  V  V80  1  0.87508255  0.01424273  0.37738511  1
  V  V81  1  0.12895379  0.36660924  0.25324994  1
  V  V82  1  0.74702212  0.75415411  0.00207739  1
  V  V83  1  0.12668838  0.37592459  0.75063637  1
  V  V84  1  0.12216766  0.12499422  -0.00042753  1
  Zn  Zn85  1  -0.00986801  0.12890898  0.62313110  1
  Zn  Zn86  1  0.37795155  0.74878499  0.62560867  1
  Zn  Zn87  1  0.24947159  0.25124961  0.49258165  1
  Zn  Zn88  1  0.36831673  0.75163820  0.12203613  1
  Zn  Zn89  1  0.62356778  0.88150653  0.26241701  1
  Zn  Zn90  1  0.61951288  0.37972006  0.74999460  1
  Zn  Zn91  1  0.86980984  0.88228696  -0.00140358  1
  Zn  Zn92  1  0.73167856  0.37803018  0.62555836  1
  Zn  Zn93  1  0.62124385  0.00353592  0.13417267  1
  Zn  Zn94  1  0.50029139  0.24487268  0.21023875  1
  Zn  Zn95  1  0.73748615  0.49975850  0.73972423  1
  Zn  Zn96  1  0.37554683  0.62538461  0.74308121  1
  Zn  Zn97  1  0.25344531  -0.00344651  0.24409750  1
  Zn  Zn98  1  0.38504935  0.49405361  0.37080222  1
  Zn  Zn99  1  0.00071441  0.62508978  0.62320494  1
  Zn  Zn100  1  0.11081110  -0.00679895  0.60280270  1
  Zn  Zn101  1  0.25329158  0.74959172  0.50021516  1
  Zn  Zn102  1  -0.00536826  0.74809715  0.25435696  1
  Zn  Zn103  1  0.12139469  0.87583279  0.74693451  1
  Zn  Zn104  1  0.12528440  0.75016327  0.87813188  1
  Zn  Zn105  1  0.49871713  0.63090246  0.12325004  1
  Zn  Zn106  1  0.50084645  0.75413594  0.74366764  1
  Zn  Zn107  1  0.18827758  0.18461834  0.18735732  1
  Zn  Zn108  1  0.15402270  0.20314994  0.66645568  1
  Zn  Zn109  1  0.18756929  0.68759329  0.21165178  1
  Zn  Zn110  1  0.18753041  0.69038841  0.68448062  1
  Zn  Zn111  1  0.68728908  0.19257333  0.19002198  1
  Zn  Zn112  1  0.68754463  0.18889245  0.68643152  1
  Zn  Zn113  1  0.68379395  0.68934510  0.19066349  1
  Zn  Zn114  1  0.69079540  0.68439637  0.68298749  1
  Zn  Zn115  1  0.32260829  0.30593077  0.30615360  1
  Zn  Zn116  1  0.30900612  0.31332309  0.81225589  1
  Zn  Zn117  1  0.31138653  0.81139645  0.31493367  1
  Zn  Zn118  1  0.31488336  0.81020135  0.80930161  1
  Zn  Zn119  1  0.80843406  0.30828328  0.31718831  1
  Zn  Zn120  1  0.80723361  0.31706129  0.81205680  1
  Zn  Zn121  1  0.81090316  0.81436063  0.31433177  1
  Zn  Zn122  1  0.81552484  0.81265346  0.81253969  1
  Zn  Zn123  1  0.19043918  0.43443651  0.43868990  1
  Zn  Zn124  1  0.18900368  0.44178688  0.93677572  1
  Zn  Zn125  1  0.19399489  0.94025131  0.43179989  1
  Zn  Zn126  1  0.17861213  0.93658306  0.93361825  1
  Zn  Zn127  1  0.68823021  0.43018946  0.43757922  1
  Zn  Zn128  1  0.67129307  0.45105945  0.91023781  1
  Zn  Zn129  1  0.69132141  0.93677351  0.43982536  1
  Zn  Zn130  1  0.68753838  0.93768349  0.93639320  1
  Zn  Zn131  1  0.30873321  0.05626936  0.05834140  1
  Zn  Zn132  1  0.30849843  0.06064918  0.55948104  1
  Zn  Zn133  1  0.31757130  0.55945825  0.06510230  1
  Zn  Zn134  1  0.31858544  0.55749138  0.56226041  1
  Zn  Zn135  1  0.81016333  0.06807988  0.06891710  1
  Zn  Zn136  1  0.81028679  0.06308599  0.56762710  1
  Zn  Zn137  1  0.81251498  0.56102718  0.06007141  1
  Zn  Zn138  1  0.81345429  0.55908175  0.56282603  1
  Zn  Zn139  1  0.44059107  0.43951106  0.18141973  1
  Zn  Zn140  1  0.44672169  0.43458144  0.68147481  1
  Zn  Zn141  1  0.43316344  0.93449934  0.18302690  1
  Zn  Zn142  1  0.43574332  0.93652797  0.68587737  1
  Zn  Zn143  1  0.93756044  0.43641507  0.18890849  1
  Zn  Zn144  1  0.94134283  0.43684903  0.69158087  1
  Zn  Zn145  1  0.93649486  0.93827165  0.19413184  1
  Zn  Zn146  1  0.93748312  0.94383778  0.68464057  1
  Zn  Zn147  1  0.06208151  0.06198632  0.31572312  1
  Zn  Zn148  1  0.05632118  0.06146053  0.80845771  1
  Zn  Zn149  1  0.06025693  0.55852094  0.30977545  1
  Zn  Zn150  1  0.06305773  0.56285434  0.81133138  1
  Zn  Zn151  1  0.56186614  0.06575951  0.31347710  1
  Zn  Zn152  1  0.56303395  0.06624465  0.81827699  1
  Zn  Zn153  1  0.56748174  0.56552311  0.31629523  1
  Zn  Zn154  1  0.55918103  0.56661136  0.81361648  1
  Zn  Zn155  1  0.43530156  0.18156627  0.43712637  1
  Zn  Zn156  1  0.45759749  0.20421390  0.99765714  1
  Zn  Zn157  1  0.44342798  0.68544500  0.43811632  1
  Zn  Zn158  1  0.43413530  0.68860488  0.93149169  1
  Zn  Zn159  1  0.93973827  0.19201987  0.43877090  1
  Zn  Zn160  1  0.93306816  0.18909790  0.93740617  1
  Zn  Zn161  1  0.93602073  0.68375252  0.43777315  1
  Zn  Zn162  1  0.93907711  0.68926450  0.94040655  1
  Zn  Zn163  1  0.06484082  0.31428277  0.06054239  1
  Zn  Zn164  1  0.06334552  0.30317030  0.55712082  1
  Zn  Zn165  1  0.05264396  0.81892094  0.06602424  1
  Zn  Zn166  1  0.05862335  0.81327848  0.56289198  1
  Zn  Zn167  1  0.56978531  0.32142649  0.05719379  1
  Zn  Zn168  1  0.56241738  0.30822337  0.56680762  1
  Zn  Zn169  1  0.55951348  0.81604456  0.06284630  1
  Zn  Zn170  1  0.56480777  0.81023674  0.56156305  1
  O  O171  1  0.11320037  0.12077440  0.11934758  1
  O  O172  1  0.15093018  0.11077788  0.59724242  1
  O  O173  1  0.12368369  0.62671614  0.12234018  1
  O  O174  1  0.12625762  0.61621749  0.61812619  1
  O  O175  1  0.63350735  0.12224967  0.11354040  1
  O  O176  1  0.61572600  0.11836843  0.61750058  1
  O  O177  1  0.62403579  0.61900371  0.11862883  1
  O  O178  1  0.61700557  0.62602471  0.61422021  1
  O  O179  1  0.37139221  0.37320030  0.38564948  1
  O  O180  1  0.36303019  0.39068264  0.88263535  1
  O  O181  1  0.36965600  0.88764894  0.38021175  1
  O  O182  1  0.37823951  0.88319870  0.88187374  1
  O  O183  1  0.88287181  0.38391483  0.37767627  1
  O  O184  1  0.88516420  0.38516929  0.87102947  1
  O  O185  1  0.88114671  0.88085480  0.38263008  1
  O  O186  1  0.88800481  0.86908984  0.88081440  1
  O  O187  1  0.26191803  0.00963029  0.36647344  1
  O  O188  1  0.25379282  0.00233490  0.86818375  1
  O  O189  1  0.25158395  0.50907691  0.36948778  1
  O  O190  1  0.26026547  0.51348248  0.87880167  1
  O  O191  1  0.75985413  -0.00172024  0.36554795  1
  O  O192  1  0.74191308  0.00841528  0.86180891  1
  O  O193  1  0.76556374  0.49462740  0.37711402  1
  O  O194  1  0.76935828  0.50924283  0.88792064  1
  O  O195  1  0.24541039  0.49292511  0.13078498  1
  O  O196  1  0.24402040  0.48686433  0.61901741  1
  O  O197  1  0.23061809  1.00371463  0.12476978  1
  O  O198  1  0.25297509  0.98706880  0.63163191  1
  O  O199  1  0.73745417  0.49302484  0.11638667  1
  O  O200  1  0.75968194  0.49087825  0.62933360  1
  O  O201  1  0.75256685  0.99524386  0.14040888  1
  O  O202  1  0.73594207  1.00386035  0.63846073  1
  O  O203  1  0.00964810  0.36798561  0.25382824  1
  O  O204  1  0.01444599  0.38036417  0.76447215  1
  O  O205  1  0.00634640  0.87270612  0.26423954  1
  O  O206  1  -0.00348418  0.86804259  0.75615083  1
  O  O207  1  0.50978217  0.36691471  0.23686715  1
  O  O208  1  0.49405129  0.35667097  0.75331490  1
  O  O209  1  0.50134507  0.86680321  0.24924349  1
  O  O210  1  0.49508287  0.87639135  0.76428033  1
  O  O211  1  0.48885113  0.12307728  0.24413922  1
  O  O212  1  0.49134250  0.12679254  0.74490999  1
  O  O213  1  0.48962784  0.63052856  0.25133858  1
  O  O214  1  0.50246203  0.62369186  0.73394575  1
  O  O215  1  1.00776364  0.13937009  0.24469107  1
  O  O216  1  0.97561133  0.12422967  0.76075435  1
  O  O217  1  0.99500424  0.62404624  0.23739113  1
  O  O218  1  0.99211339  0.63271695  0.74920607  1
  O  O219  1  0.36068005  0.26195385  -0.01264744  1
  O  O220  1  0.37521073  0.25456208  0.50779695  1
  O  O221  1  0.37551781  0.76395157  -0.00137088  1
  O  O222  1  0.37715696  0.76352661  0.49570580  1
  O  O223  1  0.86647105  0.24711767  0.01430150  1
  O  O224  1  0.86604008  0.25916654  0.49383703  1
  O  O225  1  0.86758982  0.74979021  0.01486454  1
  O  O226  1  0.87026420  0.75380005  0.50556595  1
  O  O227  1  0.13449492  0.23238799  0.49129502  1
  O  O228  1  0.13494589  0.24718318  0.99155186  1
  O  O229  1  0.12577930  0.74416002  0.49186759  1
  O  O230  1  0.12218555  0.74901346  1.00079878  1
  O  O231  1  0.62589262  0.24059348  0.49387240  1
  O  O232  1  0.63484990  0.23997777  0.99535836  1
  O  O233  1  0.63403429  0.74293428  0.49652676  1
  O  O234  1  0.63002311  0.74696982  0.99613551  1
  O  O235  1  0.49866095  0.24616258  0.09648091  1
  O  O236  1  0.49151833  0.23519275  0.63439663  1
  O  O237  1  0.49775672  0.74964769  0.13646529  1
  O  O238  1  0.50135969  0.73655609  0.62270646  1
  O  O239  1  0.99471730  0.24738572  0.12862249  1
  O  O240  1  1.04283349  0.22879110  0.63657083  1
  O  O241  1  0.98881502  0.74385762  0.12848574  1
  O  O242  1  0.98890498  0.74796103  0.63162505  1
  O  O243  1  -0.00481511  0.26289254  0.36489307  1
  O  O244  1  0.00864433  0.25982564  0.88521528  1
  O  O245  1  0.00558507  0.75596722  0.37617766  1
  O  O246  1  0.00159384  0.75440565  0.86744967  1
  O  O247  1  0.51140153  0.24581253  0.37939528  1
  O  O248  1  0.50659007  0.23493668  0.87279435  1
  O  O249  1  0.50871456  0.74703806  0.36566196  1
  O  O250  1  0.50909593  0.75700402  0.87229017  1
  O  O251  1  0.25562635  0.12505977  0.47957013  1
  O  O252  1  0.24381445  0.13115403  0.99362883  1
  O  O253  1  0.24680710  0.62440585  0.49340927  1
  O  O254  1  0.24577075  0.62533350  0.99540009  1
  O  O255  1  0.73949998  0.13022510  0.50433284  1
  O  O256  1  0.74548536  0.13013499  0.99436350  1
  O  O257  1  0.74314209  0.63173088  0.50387085  1
  O  O258  1  0.74475402  0.63410661  0.99569328  1
  O  O259  1  0.25493885  0.36918857  0.00569590  1
  O  O260  1  0.26020146  0.37186046  0.50639690  1
  O  O261  1  0.26142919  0.87957652  -0.00787524  1
  O  O262  1  0.25965841  0.87510416  0.50477459  1
  O  O263  1  0.74190367  0.36362594  0.01023146  1
  O  O264  1  0.76062538  0.36806686  0.50290424  1
  O  O265  1  0.75232924  0.87236537  0.00987118  1
  O  O266  1  0.76307303  0.86572877  0.49882521  1
  O  O267  1  0.13259755  0.48959879  0.24312037  1
  O  O268  1  0.12231909  0.49474123  0.73704119  1
  O  O269  1  0.12327900  0.99279033  0.24385097  1
  O  O270  1  0.13688669  0.99977968  0.75153844  1
  O  O271  1  0.61679136  0.49370750  0.23868320  1
  O  O272  1  0.63575731  0.48819218  0.79814332  1
  O  O273  1  0.63703395  1.00028579  0.25365172  1
  O  O274  1  0.63026704  1.00663769  0.74036953  1
  O  O275  1  0.37524796  0.00496517  0.25358478  1
  O  O276  1  0.36469819  0.00066672  0.75645309  1
  O  O277  1  0.37240996  0.50624081  0.25086038  1
  O  O278  1  0.38159140  0.49917123  0.76214921  1
  O  O279  1  0.86394719  -0.00140994  0.26429024  1
  O  O280  1  0.85769343  0.00677491  0.74640019  1
  O  O281  1  0.87882262  0.50387332  0.26253199  1
  O  O282  1  0.88147522  0.51115859  0.76063956  1
  O  O283  1  0.11916893  0.37861174  0.36465350  1
  O  O284  1  0.12284522  0.37072116  0.86964917  1
  O  O285  1  0.11742206  0.86801080  0.37477802  1
  O  O286  1  0.11077456  0.86969673  0.87037347  1
  O  O287  1  0.62555218  0.36822120  0.36246928  1
  O  O288  1  0.62114056  0.35220373  0.88170611  1
  O  O289  1  0.63005964  0.85928201  0.37999066  1
  O  O290  1  0.61569882  0.86533928  0.88127656  1
  O  O291  1  0.36983252  0.11563329  0.13522746  1
  O  O292  1  0.37983971  0.12587373  0.62924763  1
  O  O293  1  0.37598193  0.63002407  0.13491818  1
  O  O294  1  0.38877784  0.62657744  0.62122025  1
  O  O295  1  0.88805826  0.13436380  0.12647548  1
  O  O296  1  0.87110050  0.13001670  0.63869500  1
  O  O297  1  0.87979587  0.62924721  0.13196487  1
  O  O298  1  0.87851052  0.63171078  0.63363615  1
  O  O299  1  0.24543768  0.25698754  0.11403460  1
  O  O300  1  0.25256155  0.26248815  0.62368446  1
  O  O301  1  0.23991892  0.73670603  0.11711844  1
  O  O302  1  0.25287085  0.76158472  0.62082915  1
  O  O303  1  0.75756767  0.25743258  0.12170944  1
  O  O304  1  0.73879493  0.25468289  0.60686062  1
  O  O305  1  0.75354725  0.75897868  0.12446571  1
  O  O306  1  0.76291537  0.74689407  0.61598821  1
  O  O307  1  0.25897027  0.23353517  0.37019150  1
  O  O308  1  0.24263993  0.24315871  0.88134361  1
  O  O309  1  0.24135170  0.73703233  0.37579709  1
  O  O310  1  0.24712002  0.73464061  0.87168947  1
  O  O311  1  0.73553408  0.25531487  0.38941665  1
  O  O312  1  0.74462650  0.24346942  0.88414996  1
  O  O313  1  0.74760781  0.74913654  0.38751266  1
  O  O314  1  0.74487484  0.74742041  0.88020111  1
  O  O315  1  0.00358720  0.12126192  0.00655159  1
  O  O316  1  0.01610590  0.12853102  0.49655977  1
  O  O317  1  -0.00149883  0.61998561  0.01510501  1
  O  O318  1  0.00833821  0.61609394  0.50009364  1
  O  O319  1  0.51442853  0.10788708  -0.01045085  1
  O  O320  1  0.50397023  0.11317469  0.50935601  1
  O  O321  1  0.50342984  0.62181645  0.00051867  1
  O  O322  1  0.51073992  0.61788359  0.50708023  1
  O  O323  1  0.49146499  0.38115600  0.50559529  1
  O  O324  1  0.48675766  0.38643748  0.99828087  1
  O  O325  1  0.49481864  0.88742969  0.50607051  1
  O  O326  1  0.49208123  0.88168005  0.98897312  1
  O  O327  1  0.99832073  0.37410147  0.49108621  1
  O  O328  1  1.00629530  0.38458795  0.98802065  1
  O  O329  1  0.98939883  0.87214191  0.48912456  1
  O  O330  1  0.99426261  0.88572064  0.99412676  1
  O  O331  1  0.50079430  0.50482841  0.39017744  1
  O  O332  1  0.48257652  0.50979158  0.88594185  1
  O  O333  1  0.49338558  1.00406342  0.38525318  1
  O  O334  1  0.49211579  0.99360278  0.88037887  1
  O  O335  1  0.99765612  0.48730123  0.37879653  1
  O  O336  1  0.99524283  0.49740784  0.88271726  1
  O  O337  1  0.98468901  0.99399362  0.37079306  1
  O  O338  1  1.00257177  0.99243726  0.88517210  1
  O  O339  1  0.00377280  0.00863500  0.12329100  1
  O  O340  1  0.00548385  0.01545520  0.63461672  1
  O  O341  1  0.00590949  0.50547668  0.12050549  1
  O  O342  1  0.00987289  0.50033684  0.61758864  1
  O  O343  1  0.50315644  -0.00793373  0.11158336  1
  O  O344  1  0.50826399  0.00751889  0.62313650  1
  O  O345  1  0.50945950  0.50452705  0.11115841  1
  O  O346  1  0.49849426  0.51186432  0.61270821  1
  O  O347  1  0.24810060  0.37410373  0.24363377  1
  O  O348  1  0.23763219  0.37542644  0.74325126  1
  O  O349  1  0.23280321  0.87460743  0.25630885  1
  O  O350  1  0.24789043  0.88094868  0.74180557  1
  O  O351  1  0.73773399  0.36864720  0.23816283  1
  O  O352  1  0.74178570  0.37880026  0.74771984  1
  O  O353  1  0.74702594  0.88318368  0.24587634  1
  O  O354  1  0.75225795  0.88980845  0.75561808  1
  O  O355  1  0.25932089  0.12212896  0.25484598  1
  O  O356  1  0.25483642  0.11601512  0.75425268  1
  O  O357  1  0.26272474  0.61802651  0.25928793  1
  O  O358  1  0.25228686  0.62395595  0.75608979  1
  O  O359  1  0.75030177  0.11396142  0.24823877  1
  O  O360  1  0.75577853  0.12155811  0.75753789  1
  O  O361  1  0.76152159  0.62358733  0.24494503  1
  O  O362  1  0.75899838  0.62187406  0.75732768  1
  O  O363  1  0.37024070  0.11493624  0.36388361  1
  O  O364  1  0.36722176  0.10825464  0.87116864  1
  O  O365  1  0.36845776  0.62322535  0.37028474  1
  O  O366  1  0.36240185  0.61672424  0.87201655  1
  O  O367  1  0.87889276  0.11278598  0.37982238  1
  O  O368  1  0.86023975  0.12852017  0.87082000  1
  O  O369  1  0.88254887  0.60832531  0.36669169  1
  O  O370  1  0.87312193  0.62146015  0.86886112  1
  O  O371  1  0.13649903  0.37907548  0.13039236  1
  O  O372  1  0.13183061  0.38064553  0.63094243  1
  O  O373  1  0.11311825  0.88418065  0.13771153  1
  O  O374  1  0.13296905  0.87818917  0.62358803  1
  O  O375  1  0.63205302  0.38529192  0.13015432  1
  O  O376  1  0.61436936  0.37641152  0.63547752  1
  O  O377  1  0.63711356  0.87843902  0.12817808  1
  O  O378  1  0.62010392  0.89112984  0.62478226  1
  O  O379  1  0.11830433  0.26132539  0.24262419  1
  O  O380  1  0.13264946  0.25885146  0.76662433  1
  O  O381  1  0.11745890  0.75665985  0.26484339  1
  O  O382  1  0.10997101  0.75057105  0.74719670  1
  O  O383  1  0.61683062  0.25509527  0.25527950  1
  O  O384  1  0.61259182  0.24113335  0.76137528  1
  O  O385  1  0.61613511  0.75157602  0.25936502  1
  O  O386  1  0.62625042  0.74647922  0.75937098  1
  O  O387  1  0.38328418  0.23287166  0.24409993  1
  O  O388  1  0.37746088  0.24169448  0.74823318  1
  O  O389  1  0.37977485  0.74486710  0.24840341  1
  O  O390  1  0.38194312  0.74478584  0.74551330  1
  O  O391  1  0.88415060  0.25748032  0.23895175  1
  O  O392  1  0.86978526  0.23986771  0.75407779  1
  O  O393  1  0.87355634  0.74152774  0.24304922  1
  O  O394  1  0.88075896  0.74217399  0.74380373  1
  O  O395  1  0.38525155  0.48824383  0.49611057  1
  O  O396  1  0.37943631  0.49503283  0.99268165  1
  O  O397  1  0.38342746  0.99217355  0.49281733  1
  O  O398  1  0.38084008  0.99191003  0.99301399  1
  O  O399  1  0.88410201  0.49281309  0.48875647  1
  O  O400  1  0.89158049  0.50506034  0.99492780  1
  O  O401  1  0.86459511  0.99381662  0.48901261  1
  O  O402  1  0.88574335  1.00339962  1.00819003  1
  O  O403  1  0.11304086  0.00440697  0.00696686  1
  O  O404  1  0.12910978  0.01449515  0.48708970  1
  O  O405  1  0.11471644  0.49861309  0.00687036  1
  O  O406  1  0.12134865  0.50087285  0.50834097  1
  O  O407  1  0.61922382  0.00499678  0.00281723  1
  O  O408  1  0.62141607  0.00471474  0.50797827  1
  O  O409  1  0.61520313  0.50822966  -0.00058955  1
  O  O410  1  0.62213091  0.50759007  0.49251663  1
  O  O411  1  0.36261722  0.38194104  0.11386457  1
  O  O412  1  0.36908682  0.36950199  0.61994348  1
  O  O413  1  0.37030042  0.87258324  0.10831226  1
  O  O414  1  0.36927758  0.87384414  0.61411859  1
  O  O415  1  0.86550203  0.37105429  0.12736343  1
  O  O416  1  0.88724117  0.37407059  0.61254453  1
  O  O417  1  0.86595123  0.86752286  0.12857431  1
  O  O418  1  0.88064997  0.86748699  0.61465681  1
  O  O419  1  0.14185204  0.12091342  0.37606608  1
  O  O420  1  0.12589548  0.13207532  0.87948331  1
  O  O421  1  0.13076714  0.62966903  0.37708952  1
  O  O422  1  0.13971184  0.62462664  0.87228575  1
  O  O423  1  0.62146442  0.13069659  0.38798468  1
  O  O424  1  0.63625382  0.13031898  0.88465158  1
  O  O425  1  0.62553273  0.63708006  0.38660822  1
  O  O426  1  0.63039666  0.63715659  0.88292216  1
