# generated using pymatgen
data_V85Zn86O256
_symmetry_space_group_name_H-M   'P 1'
_cell_length_a   16.91498322
_cell_length_b   16.91251927
_cell_length_c   16.90888403
_cell_angle_alpha   90.06840998
_cell_angle_beta   90.02224065
_cell_angle_gamma   90.04097399
_symmetry_Int_Tables_number   1
_chemical_formula_structural   V85Zn86O256
_chemical_formula_sum   'V85 Zn86 O256'
_cell_volume   4837.20360388
_cell_formula_units_Z   1
loop_
 _symmetry_equiv_pos_site_id
 _symmetry_equiv_pos_as_xyz
  1  'x, y, z'
loop_
 _atom_site_type_symbol
 _atom_site_label
 _atom_site_symmetry_multiplicity
 _atom_site_fract_x
 _atom_site_fract_y
 _atom_site_fract_z
 _atom_site_occupancy
  V  V0  1  0.12889400  0.11926375  0.00325209  1
  V  V1  1  0.49551338  0.24982434  0.75858168  1
  V  V2  1  0.24898592  0.50228302  0.25160533  1
  V  V3  1  0.24922624  0.87559554  0.62777222  1
  V  V4  1  0.62128162  0.00634174  0.12838144  1
  V  V5  1  0.25442404  0.11955094  0.37561821  1
  V  V6  1  0.62578805  0.12590857  0.49543402  1
  V  V7  1  0.62207416  -0.00033768  0.62470559  1
  V  V8  1  0.37678062  0.50581758  0.37873070  1
  V  V9  1  0.74890857  0.88408182  0.13031908  1
  V  V10  1  0.85478690  0.91799365  0.47152353  1
  V  V11  1  0.50270703  0.24897611  0.24671226  1
  V  V12  1  0.62806021  0.62629434  -0.00037656  1
  V  V13  1  0.38178932  0.11826418  0.25297128  1
  V  V14  1  0.12770733  0.37237688  0.25239167  1
  V  V15  1  0.87257953  0.24497422  0.12012705  1
  V  V16  1  0.12765378  0.73781166  0.37302756  1
  V  V17  1  0.00355698  0.37284811  0.37390337  1
  V  V18  1  0.75261117  0.74028677  0.49893702  1
  V  V19  1  0.38328434  0.75524331  0.63295982  1
  V  V20  1  0.24721245  0.25177808  0.49166881  1
  V  V21  1  0.12154619  0.74141930  0.87919858  1
  V  V22  1  0.38269582  0.49719412  0.87857864  1
  V  V23  1  0.74919126  0.87044902  0.62528995  1
  V  V24  1  0.50070128  0.75490663  0.25633652  1
  V  V25  1  0.37130924  0.00396593  0.86141241  1
  V  V26  1  0.87576998  0.12297756  0.74765340  1
  V  V27  1  0.50191725  0.62208677  0.12712226  1
  V  V28  1  0.37914671  0.24717424  0.12674861  1
  V  V29  1  0.88022251  -0.00252507  0.87034479  1
  V  V30  1  -0.00197476  0.75735994  0.74967968  1
  V  V31  1  0.62488825  0.88108352  0.25481807  1
  V  V32  1  0.75077631  0.24726633  0.49024338  1
  V  V33  1  0.87346818  0.62211146  0.75027643  1
  V  V34  1  0.87365675  0.87805565  -0.00568210  1
  V  V35  1  0.24637524  0.38251991  0.62288850  1
  V  V36  1  0.37361541  0.24698289  0.62860182  1
  V  V37  1  0.49403854  -0.00089180  0.48788589  1
  V  V38  1  0.00278041  0.11729516  0.12744445  1
  V  V39  1  0.49576301  0.12387105  0.62926886  1
  V  V40  1  0.12672030  0.24990498  0.87483281  1
  V  V41  1  0.38131657  0.37890748  0.50076843  1
  V  V42  1  0.00482137  0.24538138  0.25158904  1
  V  V43  1  0.75084605  0.37061020  0.11610311  1
  V  V44  1  0.49663113  0.00385144  0.00306846  1
  V  V45  1  0.12205556  0.88117116  0.75726159  1
  V  V46  1  0.87629850  0.75255526  0.12778746  1
  V  V47  1  0.24647647  0.00218896  0.24311230  1
  V  V48  1  0.50414817  0.37895754  0.37591342  1
  V  V49  1  0.86863001  0.62040539  0.24952983  1
  V  V50  1  0.12243154  0.87775984  0.24530619  1
  V  V51  1  0.25287927  0.12269892  0.86059508  1
  V  V52  1  0.87730396  0.74607735  0.61965247  1
  V  V53  1  0.87480671  0.24791389  0.62462268  1
  V  V54  1  0.62996420  0.12725366  0.00228723  1
  V  V55  1  0.24963201  0.50840570  0.75031953  1
  V  V56  1  0.12269229  0.12447365  0.49205514  1
  V  V57  1  0.64315482  0.50433338  0.12957041  1
  V  V58  1  0.00408452  -0.00334628  -0.00225716  1
  V  V59  1  0.00176156  0.37886566  0.88513407  1
  V  V60  1  0.86247131  0.11265256  0.26188154  1
  V  V61  1  0.86827838  0.49724628  0.37045141  1
  V  V62  1  0.13220912  0.61750172  0.50834321  1
  V  V63  1  0.12071634  0.50325258  0.11432250  1
  V  V64  1  0.62435564  0.75269450  0.37786445  1
  V  V65  1  0.00067292  0.25089757  0.75049640  1
  V  V66  1  0.37183999  0.62540587  0.25335083  1
  V  V67  1  0.37521320  0.87832576  0.48721270  1
  V  V68  1  0.49580893  0.87208314  0.87044492  1
  V  V69  1  0.61882502  0.37657342  0.75551207  1
  V  V70  1  0.61956066  0.75066415  0.86732258  1
  V  V71  1  0.74728711  0.00003213  0.74894710  1
  V  V72  1  0.13222759  0.00115865  0.62332416  1
  V  V73  1  0.12215275  0.38350422  0.74604791  1
  V  V74  1  0.00210509  0.12092427  0.62024026  1
  V  V75  1  0.87505806  0.49920528  0.87940216  1
  V  V76  1  0.63169282  0.25166541  0.87898932  1
  V  V77  1  0.25365794  0.24901540  0.00042370  1
  V  V78  1  0.87736574  0.37502201  0.49990264  1
  V  V79  1  0.74797261  0.37420662  0.62728272  1
  V  V80  1  0.63530457  0.37929150  0.25156177  1
  V  V81  1  0.49776424  0.61389553  0.62545266  1
  V  V82  1  0.00409886  0.88402131  0.38512200  1
  V  V83  1  0.37327954  0.75340981  0.12157745  1
  V  V84  1  0.74693577  0.75443911  -0.00126445  1
  Zn  Zn85  1  0.75330344  0.12695325  0.88056734  1
  Zn  Zn86  1  0.24634141  0.88010992  0.12273038  1
  Zn  Zn87  1  0.24820923  0.62259559  0.89005674  1
  Zn  Zn88  1  0.61802852  0.49433876  0.61874264  1
  Zn  Zn89  1  0.50660983  0.49374227  -0.00286254  1
  Zn  Zn90  1  0.74559997  0.50021178  0.74933894  1
  Zn  Zn91  1  0.74411626  0.61681232  0.37311513  1
  Zn  Zn92  1  0.25305954  0.37546155  0.12407504  1
  Zn  Zn93  1  0.23852572  0.74947624  0.00728372  1
  Zn  Zn94  1  -0.00224316  0.74887591  0.25279768  1
  Zn  Zn95  1  0.62923783  0.24648712  0.37110785  1
  Zn  Zn96  1  0.38414342  0.37034672  -0.00370536  1
  Zn  Zn97  1  0.37749657  0.63318649  0.75634636  1
  Zn  Zn98  1  0.61849589  0.87153454  0.74665093  1
  Zn  Zn99  1  0.74737400  0.62427554  0.87210766  1
  Zn  Zn100  1  0.00483607  0.49822133  0.50473286  1
  Zn  Zn101  1  0.00582409  0.62506768  0.11613469  1
  Zn  Zn102  1  0.25211401  0.74791514  0.49610874  1
  Zn  Zn103  1  0.87300900  0.36553474  -0.00294307  1
  Zn  Zn104  1  0.36987961  0.87867065  0.00134459  1
  Zn  Zn105  1  0.61384926  0.61336755  0.49455385  1
  Zn  Zn106  1  0.00435511  0.61569681  0.62541785  1
  Zn  Zn107  1  0.18850701  0.18613828  0.18639540  1
  Zn  Zn108  1  0.18592087  0.19405743  0.68259357  1
  Zn  Zn109  1  0.18799029  0.68578843  0.18724074  1
  Zn  Zn110  1  0.18927077  0.69485407  0.68607616  1
  Zn  Zn111  1  0.68922900  0.18691408  0.18827483  1
  Zn  Zn112  1  0.68458431  0.18801329  0.68631928  1
  Zn  Zn113  1  0.69313717  0.69170703  0.18972412  1
  Zn  Zn114  1  0.68407926  0.68289854  0.68523192  1
  Zn  Zn115  1  0.31449058  0.31259485  0.31294180  1
  Zn  Zn116  1  0.31142675  0.31610663  0.81150282  1
  Zn  Zn117  1  0.30742640  0.81182931  0.30899776  1
  Zn  Zn118  1  0.30512555  0.81659150  0.81382219  1
  Zn  Zn119  1  0.81763085  0.30793275  0.30654158  1
  Zn  Zn120  1  0.81114470  0.31274997  0.81147444  1
  Zn  Zn121  1  0.81064218  0.81302295  0.31238658  1
  Zn  Zn122  1  0.80959317  0.81198775  0.81126786  1
  Zn  Zn123  1  0.19111905  0.43925445  0.43213679  1
  Zn  Zn124  1  0.19402902  0.43537859  0.93531978  1
  Zn  Zn125  1  0.18826231  0.93926004  0.43613081  1
  Zn  Zn126  1  0.19064454  0.93393465  0.93668722  1
  Zn  Zn127  1  0.68745837  0.43714489  0.44206985  1
  Zn  Zn128  1  0.68854792  0.43920858  0.93672649  1
  Zn  Zn129  1  0.68474500  0.93714377  0.43968837  1
  Zn  Zn130  1  0.68574485  0.93983628  0.93622721  1
  Zn  Zn131  1  0.31644173  0.06602662  0.06341829  1
  Zn  Zn132  1  0.31160035  0.06162942  0.56349354  1
  Zn  Zn133  1  0.30906164  0.56577611  0.06268064  1
  Zn  Zn134  1  0.31253522  0.56667842  0.56165276  1
  Zn  Zn135  1  0.81277175  0.06330534  0.06586796  1
  Zn  Zn136  1  0.81045682  0.05965936  0.55317178  1
  Zn  Zn137  1  0.84413419  0.57956612  0.04226610  1
  Zn  Zn138  1  0.81352171  0.55888477  0.56042797  1
  Zn  Zn139  1  0.44158525  0.43568407  0.18474714  1
  Zn  Zn140  1  0.43276598  0.43565274  0.69352079  1
  Zn  Zn141  1  0.43941185  0.93832521  0.19030068  1
  Zn  Zn142  1  0.43722129  0.93738072  0.68637072  1
  Zn  Zn143  1  0.93742336  0.43646923  0.18584227  1
  Zn  Zn144  1  0.93768369  0.43989447  0.68730273  1
  Zn  Zn145  1  0.93952657  0.93822507  0.19142721  1
  Zn  Zn146  1  0.93640998  0.93814729  0.66833896  1
  Zn  Zn147  1  0.06333377  0.06028154  0.31518045  1
  Zn  Zn148  1  0.06439609  0.06169326  0.81169584  1
  Zn  Zn149  1  0.05417237  0.56117786  0.30635652  1
  Zn  Zn150  1  0.05706192  0.56267096  0.80957766  1
  Zn  Zn151  1  0.56475489  0.06374103  0.31301540  1
  Zn  Zn152  1  0.56020595  0.06432729  0.81456978  1
  Zn  Zn153  1  0.56234645  0.56228331  0.31210869  1
  Zn  Zn154  1  0.55915584  0.56691620  0.80523851  1
  Zn  Zn155  1  0.43780395  0.19083532  0.43678530  1
  Zn  Zn156  1  0.44011031  0.18208640  0.93872471  1
  Zn  Zn157  1  0.43690506  0.69221021  0.44074508  1
  Zn  Zn158  1  0.43702228  0.68280704  0.93836786  1
  Zn  Zn159  1  0.93978968  0.18816146  0.43527929  1
  Zn  Zn160  1  0.93950172  0.18470707  0.93674947  1
  Zn  Zn161  1  0.94437975  0.68481406  0.43574720  1
  Zn  Zn162  1  0.94284000  0.69023687  0.93529297  1
  Zn  Zn163  1  0.06626040  0.30992463  0.06693796  1
  Zn  Zn164  1  0.06421080  0.31116761  0.56174693  1
  Zn  Zn165  1  0.05801267  0.81590337  0.06285566  1
  Zn  Zn166  1  0.06116015  0.80983400  0.55809406  1
  Zn  Zn167  1  0.56278710  0.31430522  0.06244434  1
  Zn  Zn168  1  0.56223201  0.31129717  0.56397355  1
  Zn  Zn169  1  0.55869294  0.81586211  0.06213010  1
  Zn  Zn170  1  0.55955673  0.81297238  0.55820987  1
  O  O171  1  0.11879207  0.12747736  0.11159724  1
  O  O172  1  0.12217805  0.12073268  0.61725614  1
  O  O173  1  0.12307423  0.60934151  0.12999337  1
  O  O174  1  0.12686394  0.62970811  0.61129193  1
  O  O175  1  0.62808349  0.11401191  0.12099301  1
  O  O176  1  0.61517158  0.12172196  0.61601751  1
  O  O177  1  0.62382549  0.62168847  0.12233380  1
  O  O178  1  0.60852704  0.62163506  0.62526263  1
  O  O179  1  0.38255234  0.38179096  0.38168800  1
  O  O180  1  0.37020895  0.39190635  0.87542203  1
  O  O181  1  0.36955294  0.87141129  0.38859967  1
  O  O182  1  0.37722881  0.88532246  0.87661384  1
  O  O183  1  0.88219565  0.37818972  0.37680735  1
  O  O184  1  0.88467855  0.37724509  0.87293145  1
  O  O185  1  0.88756471  0.87253586  0.37742512  1
  O  O186  1  0.86982254  0.88189253  0.88567022  1
  O  O187  1  0.24844188  0.01325383  0.36624170  1
  O  O188  1  0.26312610  0.00690754  0.87798481  1
  O  O189  1  0.26334425  0.49540747  0.36080193  1
  O  O190  1  0.25616799  0.50373333  0.86658121  1
  O  O191  1  0.78558020  -0.00795097  0.43769286  1
  O  O192  1  0.76003917  0.00119422  0.86574465  1
  O  O193  1  0.76386821  0.49595011  0.37672556  1
  O  O194  1  0.75695862  0.50219930  0.86859505  1
  O  O195  1  0.24514958  0.49667335  0.13695168  1
  O  O196  1  0.25872716  0.48889166  0.63171865  1
  O  O197  1  0.25327177  1.00297103  0.13831231  1
  O  O198  1  0.24031864  0.99546535  0.62586619  1
  O  O199  1  0.74405751  0.49264155  0.12299184  1
  O  O200  1  0.75209672  0.48363584  0.62654058  1
  O  O201  1  0.74130113  0.98985328  0.12117685  1
  O  O202  1  0.74237781  0.99324379  0.63055702  1
  O  O203  1  0.00671631  0.36587980  0.25368694  1
  O  O204  1  0.00741937  0.36932162  0.75585355  1
  O  O205  1  0.00652305  0.87345950  0.26052080  1
  O  O206  1  0.00619347  0.86498579  0.73777883  1
  O  O207  1  0.51072027  0.36934354  0.25594766  1
  O  O208  1  0.50827976  0.36375330  0.74422147  1
  O  O209  1  0.51279433  0.86707933  0.24697702  1
  O  O210  1  0.50112648  0.88128068  0.76494384  1
  O  O211  1  0.49248586  0.13501602  0.25839651  1
  O  O212  1  0.50377607  0.13197028  0.73646089  1
  O  O213  1  0.49241760  0.63208252  0.24544128  1
  O  O214  1  0.49404536  0.62936598  0.73279378  1
  O  O215  1  1.00165266  0.12873398  0.24302214  1
  O  O216  1  0.99665633  0.13156678  0.74339610  1
  O  O217  1  0.98510104  0.62843339  0.24062575  1
  O  O218  1  0.98875240  0.63469297  0.74662919  1
  O  O219  1  0.37112389  0.24500421  0.00783552  1
  O  O220  1  0.36782677  0.25932363  0.50682522  1
  O  O221  1  0.38353909  0.75170033  0.01631251  1
  O  O222  1  0.37306381  0.76419161  0.50844321  1
  O  O223  1  0.87973408  0.24594792  0.01382206  1
  O  O224  1  0.86912885  0.25331162  0.50543567  1
  O  O225  1  0.86756534  0.76361744  0.00515185  1
  O  O226  1  0.86798947  0.73968318  0.50761296  1
  O  O227  1  0.13849531  0.24024942  0.50732813  1
  O  O228  1  0.13370346  0.24209777  0.99501690  1
  O  O229  1  0.12683223  0.74024338  0.48865105  1
  O  O230  1  0.11516308  0.75726775  0.98220379  1
  O  O231  1  0.63233360  0.24391666  0.49866424  1
  O  O232  1  0.61760167  0.23999158  0.99113288  1
  O  O233  1  0.63174909  0.75093003  0.49143674  1
  O  O234  1  0.62771314  0.74528219  0.99510018  1
  O  O235  1  0.49542464  0.25241309  0.13890992  1
  O  O236  1  0.49222329  0.24315589  0.63194839  1
  O  O237  1  0.49865587  0.74125898  0.13636051  1
  O  O238  1  0.48557925  0.75458642  0.62730279  1
  O  O239  1  0.99619214  0.23774145  0.13024692  1
  O  O240  1  0.99734424  0.24084990  0.63088854  1
  O  O241  1  0.98552103  0.75124348  0.12627530  1
  O  O242  1  0.99222519  0.74494044  0.62993318  1
  O  O243  1  -0.00263236  0.26214752  0.36499413  1
  O  O244  1  0.00677568  0.25446427  0.86891676  1
  O  O245  1  0.01280918  0.75740261  0.37298216  1
  O  O246  1  0.00832191  0.75091552  0.86351451  1
  O  O247  1  0.50043799  0.26256895  0.36576307  1
  O  O248  1  0.50582619  0.24141193  0.86245061  1
  O  O249  1  0.50637407  0.74870337  0.36407256  1
  O  O250  1  0.50605487  0.75962835  0.88232908  1
  O  O251  1  0.24727668  0.13175746  0.49296532  1
  O  O252  1  0.24452916  0.13162856  0.99395653  1
  O  O253  1  0.23802172  0.62810358  0.49810014  1
  O  O254  1  0.24952590  0.63725362  1.00292986  1
  O  O255  1  0.73877718  0.13757728  0.51205301  1
  O  O256  1  0.73573674  0.11839920  0.99941571  1
  O  O257  1  0.74518903  0.63162099  0.49752654  1
  O  O258  1  0.74125334  0.63353337  0.99887260  1
  O  O259  1  0.25573458  0.35906375  0.00010212  1
  O  O260  1  0.25547843  0.37016694  0.50427989  1
  O  O261  1  0.25164693  0.86727944  0.00536586  1
  O  O262  1  0.25975730  0.87797297  0.50872705  1
  O  O263  1  0.74647645  0.37077917  0.01273240  1
  O  O264  1  0.75708801  0.36509834  0.50771092  1
  O  O265  1  0.75609042  0.87542698  0.00666051  1
  O  O266  1  0.76106369  0.85957736  0.50652540  1
  O  O267  1  0.13350371  0.49344785  0.24767192  1
  O  O268  1  0.13153034  0.48998143  0.75479641  1
  O  O269  1  0.13389089  0.99170933  0.25402485  1
  O  O270  1  0.12159822  0.99027646  0.74248917  1
  O  O271  1  0.62418332  0.49196291  0.24256677  1
  O  O272  1  0.62340585  0.49023094  0.74420097  1
  O  O273  1  0.62085883  0.99353818  0.24301620  1
  O  O274  1  0.63191602  1.00063857  0.74480483  1
  O  O275  1  0.37087490  0.01283139  0.24847332  1
  O  O276  1  0.37625952  0.00119763  0.76240398  1
  O  O277  1  0.37154345  0.50685711  0.25401926  1
  O  O278  1  0.36626412  0.50242117  0.76068914  1
  O  O279  1  0.87496140  0.01330613  0.24720700  1
  O  O280  1  0.87061259  0.00126866  0.75281712  1
  O  O281  1  0.87838974  0.50744634  0.25588572  1
  O  O282  1  0.87201980  0.50660867  0.75831978  1
  O  O283  1  0.11926377  0.37792635  0.36226837  1
  O  O284  1  0.12016375  0.37058478  0.86813986  1
  O  O285  1  0.11674532  0.86853568  0.37158823  1
  O  O286  1  0.12680102  0.86877048  0.86077848  1
  O  O287  1  0.61965737  0.37297329  0.36855552  1
  O  O288  1  0.62771545  0.36755037  0.86530649  1
  O  O289  1  0.63020231  0.86667131  0.36836465  1
  O  O290  1  0.61574019  0.86800025  0.87515095  1
  O  O291  1  0.37325837  0.13779433  0.13681170  1
  O  O292  1  0.37991423  0.13778305  0.61937101  1
  O  O293  1  0.38561595  0.62983543  0.13404971  1
  O  O294  1  0.38022603  0.63979479  0.62495483  1
  O  O295  1  0.88292048  0.12876473  0.13258978  1
  O  O296  1  0.88410952  0.12830712  0.62689354  1
  O  O297  1  0.85712340  0.64197333  0.13687196  1
  O  O298  1  0.87370239  0.63163005  0.63189835  1
  O  O299  1  0.25789853  0.24919586  0.11660442  1
  O  O300  1  0.25805192  0.26037059  0.61784393  1
  O  O301  1  0.26115092  0.75478608  0.13140000  1
  O  O302  1  0.25864550  0.75967957  0.61854122  1
  O  O303  1  0.76072751  0.25673193  0.12966084  1
  O  O304  1  0.75382143  0.25817551  0.62002230  1
  O  O305  1  0.75457755  0.76535050  0.11900988  1
  O  O306  1  0.75287458  0.74964594  0.61723234  1
  O  O307  1  0.25398774  0.24384396  0.38594928  1
  O  O308  1  0.24828626  0.24335663  0.88100248  1
  O  O309  1  0.23233707  0.75538804  0.37647955  1
  O  O310  1  0.23177144  0.74776062  0.87174765  1
  O  O311  1  0.75118843  0.25465329  0.38666465  1
  O  O312  1  0.73631330  0.24582465  0.87024573  1
  O  O313  1  0.74283199  0.74854745  0.38383507  1
  O  O314  1  0.73993354  0.75030720  0.88271779  1
  O  O315  1  0.00763852  0.11568277  0.00507385  1
  O  O316  1  0.01076062  0.13305352  0.50767995  1
  O  O317  1  -0.04540878  0.61643088  0.01558365  1
  O  O318  1  0.01652358  0.62204427  0.50048912  1
  O  O319  1  0.51171162  0.11148556  -0.00355340  1
  O  O320  1  0.50350132  0.12228110  0.50891703  1
  O  O321  1  0.51278133  0.62324198  0.01018578  1
  O  O322  1  0.49892882  0.63742034  0.51972398  1
  O  O323  1  0.48934955  0.36801303  0.49245972  1
  O  O324  1  0.49675461  0.38160219  1.00527323  1
  O  O325  1  0.48483479  0.88437825  0.50299624  1
  O  O326  1  0.49824954  0.88741559  0.98963714  1
  O  O327  1  0.99593937  0.37152487  0.49074828  1
  O  O328  1  1.00147265  0.36656262  0.98767740  1
  O  O329  1  0.99075893  0.86978061  0.48703524  1
  O  O330  1  0.98909920  0.88921241  1.00531777  1
  O  O331  1  0.49149794  0.48712196  0.36840124  1
  O  O332  1  0.48597288  0.50686917  0.87419284  1
  O  O333  1  0.50028339  1.00496866  0.38877994  1
  O  O334  1  0.48837092  0.99707774  0.88031368  1
  O  O335  1  0.99199732  0.48589642  0.37425791  1
  O  O336  1  0.99115633  0.48894546  0.86925392  1
  O  O337  1  1.00523769  0.98416748  0.37953692  1
  O  O338  1  0.98780239  1.00443755  0.88085768  1
  O  O339  1  -0.00372104  0.01084440  0.11619733  1
  O  O340  1  0.01551608  0.01565855  0.63246400  1
  O  O341  1  0.01762536  0.49559462  0.12785565  1
  O  O342  1  -0.00066571  0.50117096  0.61980334  1
  O  O343  1  0.50951472  -0.00456252  0.11639627  1
  O  O344  1  0.50243220  0.00811329  0.61939083  1
  O  O345  1  0.50973164  0.51357861  0.12843519  1
  O  O346  1  0.49014664  0.51138424  0.62514304  1
  O  O347  1  0.24317090  0.37983237  0.24991660  1
  O  O348  1  0.24261331  0.38376937  0.74198297  1
  O  O349  1  0.24193965  0.88634970  0.25069192  1
  O  O350  1  0.23718331  0.87228463  0.73586836  1
  O  O351  1  0.73968700  0.36834674  0.24249680  1
  O  O352  1  0.73961825  0.37280006  0.74233586  1
  O  O353  1  0.73709129  0.87230988  0.24309599  1
  O  O354  1  0.74581451  0.88554753  0.74514180  1
  O  O355  1  0.25517469  0.12169864  0.25739589  1
  O  O356  1  0.24209214  0.13177155  0.76175664  1
  O  O357  1  0.26430298  0.61863611  0.24813809  1
  O  O358  1  0.24851724  0.61369408  0.74556224  1
  O  O359  1  0.76293956  0.12806268  0.25253070  1
  O  O360  1  0.75584043  0.11301378  0.74593750  1
  O  O361  1  0.76165945  0.63021036  0.25771560  1
  O  O362  1  0.76112436  0.62440834  0.74983686  1
  O  O363  1  0.36587182  0.13199162  0.36688333  1
  O  O364  1  0.36796250  0.11321325  0.87622003  1
  O  O365  1  0.38400366  0.61550152  0.36917889  1
  O  O366  1  0.37019542  0.61631987  0.87278610  1
  O  O367  1  0.88179843  0.12702557  0.36041860  1
  O  O368  1  0.87311900  0.11747273  0.86665085  1
  O  O369  1  0.87688489  0.61383266  0.36855537  1
  O  O370  1  0.87307809  0.61675552  0.86657204  1
  O  O371  1  0.12874070  0.38155213  0.13651872  1
  O  O372  1  0.13506654  0.37005554  0.63315578  1
  O  O373  1  0.12384469  0.86888044  0.14090551  1
  O  O374  1  0.12989315  0.88246232  0.62492313  1
  O  O375  1  0.63304809  0.38249387  0.13235084  1
  O  O376  1  0.63157269  0.37149134  0.63480430  1
  O  O377  1  0.63030433  0.88368364  0.13122418  1
  O  O378  1  0.62976411  0.87958624  0.62510227  1
  O  O379  1  0.11413822  0.25578138  0.24347601  1
  O  O380  1  0.12207255  0.26181738  0.75546585  1
  O  O381  1  0.12360197  0.75493052  0.25979983  1
  O  O382  1  0.11560155  0.75681964  0.75457284  1
  O  O383  1  0.61859967  0.25591134  0.25155033  1
  O  O384  1  0.61651034  0.25447305  0.75727675  1
  O  O385  1  0.61938420  0.75731780  0.25684365  1
  O  O386  1  0.62923939  0.75030304  0.76387451  1
  O  O387  1  0.38219538  0.24348005  0.24590627  1
  O  O388  1  0.38165409  0.25705341  0.74051414  1
  O  O389  1  0.38205381  0.74480165  0.24628978  1
  O  O390  1  0.36645225  0.75257442  0.73664369  1
  O  O391  1  0.88824575  0.24122796  0.23980545  1
  O  O392  1  0.87922983  0.24270755  0.74417077  1
  O  O393  1  0.87520520  0.74689311  0.24302383  1
  O  O394  1  0.88026595  0.74250815  0.74736086  1
  O  O395  1  0.36854584  0.49163922  0.49023402  1
  O  O396  1  0.37448551  0.49995550  0.98830273  1
  O  O397  1  0.37975508  0.98818138  0.50455250  1
  O  O398  1  0.38299026  1.00096174  0.99512319  1
  O  O399  1  0.87811672  0.49053507  0.49044724  1
  O  O400  1  0.86455973  0.48394664  0.98239620  1
  O  O401  1  0.89329871  0.97771813  0.54629204  1
  O  O402  1  0.87974782  0.99701306  0.99115179  1
  O  O403  1  0.11615115  0.00621807  -0.00893700  1
  O  O404  1  0.13064934  0.01171706  0.50883715  1
  O  O405  1  0.13354970  0.49134729  0.01620781  1
  O  O406  1  0.12765976  0.51430815  0.49096274  1
  O  O407  1  0.61814290  0.00502306  0.00702552  1
  O  O408  1  0.61594677  0.00626450  0.50619309  1
  O  O409  1  0.62732118  0.51083267  0.00853177  1
  O  O410  1  0.62249155  0.50001270  0.50476955  1
  O  O411  1  0.37274296  0.36084967  0.12762307  1
  O  O412  1  0.36985730  0.36843408  0.61724769  1
  O  O413  1  0.37501207  0.86656126  0.12668320  1
  O  O414  1  0.36816325  0.86941955  0.62206640  1
  O  O415  1  0.86825060  0.36548403  0.12424205  1
  O  O416  1  0.86836549  0.36586276  0.62223910  1
  O  O417  1  0.86729311  0.87330497  0.12018685  1
  O  O418  1  0.86458225  0.85311898  0.63516978  1
  O  O419  1  0.13220410  0.12448144  0.38556916  1
  O  O420  1  0.13112333  0.12953683  0.88362387  1
  O  O421  1  0.11975689  0.63479626  0.37517487  1
  O  O422  1  0.12256255  0.63811212  0.86966172  1
  O  O423  1  0.62386510  0.12681434  0.39018894  1
  O  O424  1  0.62779970  0.13154513  0.88280983  1
  O  O425  1  0.62428352  0.63712882  0.37528666  1
  O  O426  1  0.62266261  0.63182190  0.88262242  1
