# generated using pymatgen
data_V85Zn86O256
_symmetry_space_group_name_H-M   'P 1'
_cell_length_a   16.93371078
_cell_length_b   16.91889116
_cell_length_c   16.93165743
_cell_angle_alpha   90.01004930
_cell_angle_beta   89.95927694
_cell_angle_gamma   89.99590200
_symmetry_Int_Tables_number   1
_chemical_formula_structural   V85Zn86O256
_chemical_formula_sum   'V85 Zn86 O256'
_cell_volume   4850.91193069
_cell_formula_units_Z   1
loop_
 _symmetry_equiv_pos_site_id
 _symmetry_equiv_pos_as_xyz
  1  'x, y, z'
loop_
 _atom_site_type_symbol
 _atom_site_label
 _atom_site_symmetry_multiplicity
 _atom_site_fract_x
 _atom_site_fract_y
 _atom_site_fract_z
 _atom_site_occupancy
  V  V0  1  0.14611445  0.62944653  0.49272501  1
  V  V1  1  0.88009212  0.87331329  0.49333583  1
  V  V2  1  0.46991435  0.34895331  0.84051932  1
  V  V3  1  0.50286377  0.50168553  -0.00468819  1
  V  V4  1  0.87481942  0.87815193  -0.00314776  1
  V  V5  1  -0.00296730  0.25508750  0.24704936  1
  V  V6  1  0.12823393  0.87834118  0.73779410  1
  V  V7  1  0.62206310  0.37457985  0.24968636  1
  V  V8  1  0.12673555  0.12270303  0.50634250  1
  V  V9  1  0.62597368  0.75692172  0.37480167  1
  V  V10  1  0.75230059  0.37122790  0.12364251  1
  V  V11  1  0.12075505  0.37115895  0.75252211  1
  V  V12  1  0.62909420  0.87833144  0.75458573  1
  V  V13  1  0.49200799  0.00487940  0.49906794  1
  V  V14  1  0.86856919  0.11401818  0.74735834  1
  V  V15  1  0.87424693  0.36851822  0.00215694  1
  V  V16  1  0.51208944  0.11949480  0.12060594  1
  V  V17  1  0.87274769  0.49862529  0.87617972  1
  V  V18  1  0.37477068  0.62363894  0.74539147  1
  V  V19  1  0.49110325  0.14064042  0.63708279  1
  V  V20  1  0.49471629  0.75575644  0.74368195  1
  V  V21  1  0.24947036  0.37384617  0.13142834  1
  V  V22  1  0.75266256  0.24488939  0.49011367  1
  V  V23  1  0.13189322  0.74971537  0.87064772  1
  V  V24  1  0.00271710  0.11944848  0.62532813  1
  V  V25  1  0.12092621  0.25191108  0.37831114  1
  V  V26  1  0.74775851  0.23978037  0.00432620  1
  V  V27  1  0.38126436  0.37035063  0.49880269  1
  V  V28  1  0.25360329  0.51521428  0.25555405  1
  V  V29  1  0.25239482  0.00584742  0.74059780  1
  V  V30  1  0.87782554  0.75021880  0.12570723  1
  V  V31  1  0.62312569  0.24831138  0.88001927  1
  V  V32  1  0.87511369  0.75091253  0.62481885  1
  V  V33  1  0.88243290  0.37425984  0.49661533  1
  V  V34  1  0.62749311  0.12431427  0.49453645  1
  V  V35  1  0.37565524  0.87584076  -0.00708666  1
  V  V36  1  0.51036702  -0.00193419  -0.00175936  1
  V  V37  1  0.87526009  0.62630029  0.75046521  1
  V  V38  1  0.87563154  0.24695294  0.62423047  1
  V  V39  1  0.25038289  0.74603015  -0.00408605  1
  V  V40  1  0.12583149  0.50045017  0.62459630  1
  V  V41  1  0.61448835  0.75038740  0.87812059  1
  V  V42  1  0.27082589  0.86225051  0.61868474  1
  V  V43  1  0.37501871  0.24620120  0.12694360  1
  V  V44  1  0.36850428  0.50496324  0.87893130  1
  V  V45  1  0.74926242  0.75260720  0.50198026  1
  V  V46  1  0.37176535  0.74704444  0.12634282  1
  V  V47  1  0.25158044  0.12563718  0.37692496  1
  V  V48  1  0.44457852  0.82557180  0.43140814  1
  V  V49  1  0.50084694  0.62672878  0.12234168  1
  V  V50  1  0.62826157  0.00180032  0.62818203  1
  V  V51  1  -0.00192478  0.50052447  0.00096862  1
  V  V52  1  0.13212957  0.76271491  0.37522327  1
  V  V53  1  0.74542057  0.11913849  0.87089670  1
  V  V54  1  0.24663743  -0.00539091  0.24955111  1
  V  V55  1  0.00528402  0.12758269  0.12256110  1
  V  V56  1  0.87500343  0.00429745  0.37344049  1
  V  V57  1  0.74997325  0.50161274  0.24917031  1
  V  V58  1  0.75167995  0.62684933  0.37384623  1
  V  V59  1  0.00623305  -0.00493508  0.49509936  1
  V  V60  1  0.37663129  0.37447469  0.00588913  1
  V  V61  1  0.73898338  0.62304076  0.87835580  1
  V  V62  1  0.87329610  0.12949742  0.24679625  1
  V  V63  1  0.75185350  0.50068792  0.74728455  1
  V  V64  1  0.00539628  0.50011389  0.49446865  1
  V  V65  1  0.00082019  0.75129351  0.75078219  1
  V  V66  1  0.00637328  0.00526118  -0.00375043  1
  V  V67  1  0.74670063  0.00569618  0.25286707  1
  V  V68  1  0.37699721  0.00540455  0.87297363  1
  V  V69  1  0.24226375  0.12288307  0.88135017  1
  V  V70  1  0.62588268  0.50788354  0.12005499  1
  V  V71  1  0.49561662  0.75072985  0.24768666  1
  V  V72  1  0.38046007  0.50782037  0.37292756  1
  V  V73  1  0.61968505  0.88174195  0.24881480  1
  V  V74  1  0.12283741  0.37851208  0.25853359  1
  V  V75  1  0.37607889  0.12234892  0.25077456  1
  V  V76  1  0.12596233  0.62407549  -0.00538712  1
  V  V77  1  0.61891783  0.50084754  0.61871614  1
  V  V78  1  0.74309571  0.74622796  0.00125647  1
  V  V79  1  0.75393766  0.37352003  0.62231618  1
  V  V80  1  0.74419019  0.88263237  0.12417640  1
  V  V81  1  0.88057357  0.49751606  0.37376823  1
  V  V82  1  0.12491401  0.50256071  0.12684060  1
  V  V83  1  0.63138074  0.36735739  0.75087310  1
  V  V84  1  0.24593018  0.50438615  0.75740334  1
  Zn  Zn85  1  -0.00467817  0.75456536  0.26429873  1
  Zn  Zn86  1  0.75282810  0.88134648  0.63009560  1
  Zn  Zn87  1  0.87850197  0.62601710  0.24813538  1
  Zn  Zn88  1  0.61993607  0.62047264  0.49590342  1
  Zn  Zn89  1  0.62634234  0.24799128  0.37233749  1
  Zn  Zn90  1  -0.00160743  0.24629400  0.75352322  1
  Zn  Zn91  1  0.50281174  0.24745026  0.25177855  1
  Zn  Zn92  1  0.10674142  0.88115498  0.24924283  1
  Zn  Zn93  1  0.25392121  0.36854205  0.62596267  1
  Zn  Zn94  1  0.11529805  0.24228345  0.88363925  1
  Zn  Zn95  1  0.00111793  0.87941708  0.87223444  1
  Zn  Zn96  1  0.37779913  -0.00398402  0.37579338  1
  Zn  Zn97  1  0.12617567  0.00084260  0.12094922  1
  Zn  Zn98  1  -0.00068096  0.62840217  0.12641590  1
  Zn  Zn99  1  0.50358519  0.37635613  0.37867589  1
  Zn  Zn100  1  0.24561313  0.87611996  0.12347295  1
  Zn  Zn101  1  0.49485271  0.62186197  0.62193011  1
  Zn  Zn102  1  0.87116011  -0.00142816  0.87088566  1
  Zn  Zn103  1  0.25608251  0.24759613  0.51337272  1
  Zn  Zn104  1  0.24374507  0.24269952  0.00512165  1
  Zn  Zn105  1  0.00301862  0.62640490  0.62332082  1
  Zn  Zn106  1  -0.00205841  0.37089340  0.87584719  1
  Zn  Zn107  1  0.18612323  0.18616537  0.19017546  1
  Zn  Zn108  1  0.18968524  0.18865587  0.69057348  1
  Zn  Zn109  1  0.18169909  0.69337520  0.18659481  1
  Zn  Zn110  1  0.19151281  0.68504312  0.68279087  1
  Zn  Zn111  1  0.68921582  0.18768501  0.18757109  1
  Zn  Zn112  1  0.68547206  0.18498510  0.68370533  1
  Zn  Zn113  1  0.68752986  0.69004893  0.18819675  1
  Zn  Zn114  1  0.68499346  0.68837595  0.68936699  1
  Zn  Zn115  1  0.31277445  0.31286909  0.31693860  1
  Zn  Zn116  1  0.30156586  0.30986277  0.80759000  1
  Zn  Zn117  1  0.30340743  0.80324400  0.31149939  1
  Zn  Zn118  1  0.31367959  0.81633535  0.80943919  1
  Zn  Zn119  1  0.81303674  0.31530577  0.31108703  1
  Zn  Zn120  1  0.81450481  0.30556579  0.81412064  1
  Zn  Zn121  1  0.81476265  0.81836641  0.31054905  1
  Zn  Zn122  1  0.80831381  0.81092608  0.81499771  1
  Zn  Zn123  1  0.19509918  0.43703953  0.43735575  1
  Zn  Zn124  1  0.18682859  0.42778158  0.94110432  1
  Zn  Zn125  1  0.19460556  0.93847459  0.44288817  1
  Zn  Zn126  1  0.18768996  0.93396289  0.93235823  1
  Zn  Zn127  1  0.69215086  0.43433261  0.43679247  1
  Zn  Zn128  1  0.68578850  0.43281662  0.93750159  1
  Zn  Zn129  1  0.68736938  0.93951632  0.43704588  1
  Zn  Zn130  1  0.68568976  0.93440269  0.93532788  1
  Zn  Zn131  1  0.31354690  0.06032205  0.06214134  1
  Zn  Zn132  1  0.31566712  0.06708032  0.56680050  1
  Zn  Zn133  1  0.31037013  0.56508017  0.06586892  1
  Zn  Zn134  1  0.31526941  0.54842288  0.56498039  1
  Zn  Zn135  1  0.81749745  0.06248469  0.06621030  1
  Zn  Zn136  1  0.81156510  0.06078002  0.56069031  1
  Zn  Zn137  1  0.81148560  0.56356988  0.06089570  1
  Zn  Zn138  1  0.81344824  0.56472891  0.56068026  1
  Zn  Zn139  1  0.43806575  0.44051483  0.18939320  1
  Zn  Zn140  1  0.43274640  0.42263312  0.69088582  1
  Zn  Zn141  1  0.43406571  0.93604691  0.18253203  1
  Zn  Zn142  1  0.44143738  0.94218796  0.68811598  1
  Zn  Zn143  1  0.93812195  0.43738125  0.18698656  1
  Zn  Zn144  1  0.94064013  0.43728686  0.68476237  1
  Zn  Zn145  1  0.93759988  0.93812359  0.18423297  1
  Zn  Zn146  1  0.93982167  0.93678677  0.68176880  1
  Zn  Zn147  1  0.06176083  0.06384175  0.31451804  1
  Zn  Zn148  1  0.06350946  0.05899014  0.80997924  1
  Zn  Zn149  1  0.06199430  0.57156410  0.31252484  1
  Zn  Zn150  1  0.06045497  0.56234891  0.81502850  1
  Zn  Zn151  1  0.56077249  0.06226691  0.31520739  1
  Zn  Zn152  1  0.56133055  0.06359337  0.81294184  1
  Zn  Zn153  1  0.56164695  0.56698134  0.31009792  1
  Zn  Zn154  1  0.55793369  0.55642348  0.80986150  1
  Zn  Zn155  1  0.44333424  0.19076727  0.43684215  1
  Zn  Zn156  1  0.43261437  0.18237960  0.94032486  1
  Zn  Zn157  1  0.42640642  0.65790148  0.45016248  1
  Zn  Zn158  1  0.43567660  0.68272006  0.93615957  1
  Zn  Zn159  1  0.94012918  0.18474563  0.43364846  1
  Zn  Zn160  1  0.93344611  0.18608073  0.93632435  1
  Zn  Zn161  1  0.94368064  0.68449453  0.43722874  1
  Zn  Zn162  1  0.93593265  0.68825417  0.93649797  1
  Zn  Zn163  1  0.06303159  0.31263070  0.06517338  1
  Zn  Zn164  1  0.06381433  0.31196755  0.56481093  1
  Zn  Zn165  1  0.06299020  0.81914664  0.06280044  1
  Zn  Zn166  1  0.06654473  0.80929757  0.55965516  1
  Zn  Zn167  1  0.56253799  0.31257617  0.06390215  1
  Zn  Zn168  1  0.56290988  0.31378416  0.55974026  1
  Zn  Zn169  1  0.56165437  0.81739902  0.06224995  1
  Zn  Zn170  1  0.56585190  0.81236399  0.56908421  1
  O  O171  1  0.11040207  0.12384864  0.12890321  1
  O  O172  1  0.11765543  0.12862690  0.61450023  1
  O  O173  1  0.12316093  0.62219641  0.11174918  1
  O  O174  1  0.12504669  0.61786357  0.61368782  1
  O  O175  1  0.61019978  0.12601212  0.12750419  1
  O  O176  1  0.61851246  0.11861454  0.61589937  1
  O  O177  1  0.62268534  0.61429559  0.12626781  1
  O  O178  1  0.63048874  0.60807730  0.62661387  1
  O  O179  1  0.37746758  0.38305350  0.38093318  1
  O  O180  1  0.37200145  0.38272350  0.89097321  1
  O  O181  1  0.37798026  0.87586830  0.37190246  1
  O  O182  1  0.37076141  0.88511695  0.88565812  1
  O  O183  1  0.87023704  0.38965141  0.38067042  1
  O  O184  1  0.87117992  0.38126298  0.88406420  1
  O  O185  1  0.87193561  0.88462952  0.38655677  1
  O  O186  1  0.87178232  0.87626834  0.88558984  1
  O  O187  1  0.25441982  0.01118580  0.37038324  1
  O  O188  1  0.25578200  0.00714623  0.86938917  1
  O  O189  1  0.25848310  0.49761793  0.36013707  1
  O  O190  1  0.25674952  0.49538305  0.87053608  1
  O  O191  1  0.75853164  -0.00415718  0.36227512  1
  O  O192  1  0.74819120  0.01536181  0.88265372  1
  O  O193  1  0.75616418  0.50982353  0.37159129  1
  O  O194  1  0.75129603  0.50521766  0.86889990  1
  O  O195  1  0.24551098  0.49538264  0.13617769  1
  O  O196  1  0.23693044  0.49554758  0.63422523  1
  O  O197  1  0.24717852  1.00112336  0.13391239  1
  O  O198  1  0.25668089  0.99626606  0.63840389  1
  O  O199  1  0.74234893  0.49550835  0.12729038  1
  O  O200  1  0.74967473  0.49389744  0.63187290  1
  O  O201  1  0.75475652  0.99224440  0.13634163  1
  O  O202  1  0.73415128  0.99955146  0.62002751  1
  O  O203  1  0.00895780  0.36814366  0.24704066  1
  O  O204  1  0.00598159  0.37204981  0.75136943  1
  O  O205  1  -0.00710722  0.86808917  0.24848458  1
  O  O206  1  0.00763442  0.86938735  0.74922515  1
  O  O207  1  0.51502324  0.37306348  0.24191040  1
  O  O208  1  0.52539945  0.39679089  0.75713769  1
  O  O209  1  0.51054906  0.86781713  0.23976171  1
  O  O210  1  0.50726922  0.86097442  0.74878590  1
  O  O211  1  0.49276298  0.12181474  0.23890180  1
  O  O212  1  0.50392374  0.12427708  0.73608859  1
  O  O213  1  0.50709582  0.64354398  0.24126875  1
  O  O214  1  0.49301564  0.63170639  0.74767613  1
  O  O215  1  0.99366361  0.13279521  0.24502784  1
  O  O216  1  0.99355204  0.12242157  0.73988575  1
  O  O217  1  0.99680991  0.63487986  0.24426504  1
  O  O218  1  0.99330820  0.63315892  0.74927187  1
  O  O219  1  0.37045160  0.25727159  0.00968053  1
  O  O220  1  0.37388272  0.26566195  0.49208384  1
  O  O221  1  0.36858649  0.75482350  0.00002084  1
  O  O222  1  0.38988822  0.76219114  0.48405560  1
  O  O223  1  0.86521645  0.26267962  -0.00289369  1
  O  O224  1  0.87242547  0.25169719  0.50284092  1
  O  O225  1  0.86206488  0.75690939  0.00160922  1
  O  O226  1  0.87114832  0.75553529  0.50186839  1
  O  O227  1  0.12483536  0.24295227  0.49245832  1
  O  O228  1  0.13652741  0.27505154  0.99127830  1
  O  O229  1  0.12641139  0.73609149  0.49428689  1
  O  O230  1  0.13034481  0.74573232  0.99151879  1
  O  O231  1  0.63623391  0.24335978  0.50027943  1
  O  O232  1  0.63473893  0.25594619  0.99245039  1
  O  O233  1  0.63353043  0.75278702  0.49237640  1
  O  O234  1  0.63410903  0.75564632  0.99372124  1
  O  O235  1  0.49277208  0.23750035  0.12519498  1
  O  O236  1  0.50688923  0.23987208  0.62518392  1
  O  O237  1  0.49400418  0.74698198  0.12816510  1
  O  O238  1  0.50477549  0.74489222  0.64126916  1
  O  O239  1  1.00224442  0.24512183  0.13829140  1
  O  O240  1  0.99201014  0.23670746  0.62315642  1
  O  O241  1  0.98265096  0.75151355  0.11415102  1
  O  O242  1  0.99542295  0.74905648  0.63592630  1
  O  O243  1  0.01368395  0.24453537  0.36483536  1
  O  O244  1  -0.00138358  0.25224376  0.87217517  1
  O  O245  1  0.02252435  0.74082723  0.37949228  1
  O  O246  1  0.00681105  0.75185515  0.86397649  1
  O  O247  1  0.50749999  0.25579036  0.36872337  1
  O  O248  1  0.50473993  0.25687480  0.88552740  1
  O  O249  1  0.50491705  0.75882662  0.36912370  1
  O  O250  1  0.51104961  0.74226591  0.86999966  1
  O  O251  1  0.24424456  0.12540263  0.49441942  1
  O  O252  1  0.25147350  0.12317980  0.98618228  1
  O  O253  1  0.24388301  0.62007802  0.50500390  1
  O  O254  1  0.24279081  0.63727655  1.00107564  1
  O  O255  1  0.74228010  0.13360906  0.50434845  1
  O  O256  1  0.75779765  0.13560689  0.99660160  1
  O  O257  1  0.74812657  0.63625857  0.49073121  1
  O  O258  1  0.75065028  0.63387656  0.99054314  1
  O  O259  1  0.26430298  0.38136015  0.01456314  1
  O  O260  1  0.26169242  0.37032750  0.49971503  1
  O  O261  1  0.25575423  0.86331372  -0.00139146  1
  O  O262  1  0.25273917  0.88188343  0.52089075  1
  O  O263  1  0.75478550  0.36763038  0.00652251  1
  O  O264  1  0.76060320  0.36738367  0.50504501  1
  O  O265  1  0.75331447  0.87024204  0.00642139  1
  O  O266  1  0.75714357  0.86457911  0.50021282  1
  O  O267  1  0.13329928  0.49593147  0.25007734  1
  O  O268  1  0.12788509  0.49895437  0.74398155  1
  O  O269  1  0.13321764  1.00020381  0.25148438  1
  O  O270  1  0.14006008  0.99010996  0.75400521  1
  O  O271  1  0.63102767  0.49559061  0.24116559  1
  O  O272  1  0.64050733  0.49551005  0.74390299  1
  O  O273  1  0.63143400  0.99165060  0.25616531  1
  O  O274  1  0.61706272  0.98896453  0.74362778  1
  O  O275  1  0.37022012  0.00983989  0.24991790  1
  O  O276  1  0.36407685  -0.00721141  0.76082217  1
  O  O277  1  0.36078984  0.49451179  0.25513766  1
  O  O278  1  0.36619341  0.50149289  0.75989757  1
  O  O279  1  0.86842673  0.00663692  0.25647826  1
  O  O280  1  0.87534430  0.00950403  0.74725078  1
  O  O281  1  0.86889782  0.50133827  0.25724469  1
  O  O282  1  0.86645248  0.50301990  0.75320454  1
  O  O283  1  0.12961444  0.36810517  0.36632491  1
  O  O284  1  0.12013177  0.38138526  0.86063856  1
  O  O285  1  0.13065104  0.86605258  0.37781571  1
  O  O286  1  0.12358346  0.86443578  0.86226119  1
  O  O287  1  0.62581390  0.37787661  0.36315565  1
  O  O288  1  0.62757367  0.36163613  0.86720256  1
  O  O289  1  0.63172490  0.86466239  0.36524982  1
  O  O290  1  0.62659166  0.86301189  0.86794028  1
  O  O291  1  0.37853785  0.13253819  0.13076131  1
  O  O292  1  0.39157949  0.12728921  0.62429471  1
  O  O293  1  0.38192437  0.63965862  0.11857910  1
  O  O294  1  0.37544236  0.61222671  0.64101948  1
  O  O295  1  0.88553265  0.12336583  0.14009061  1
  O  O296  1  0.88009698  0.12766878  0.62864805  1
  O  O297  1  0.87312170  0.63597018  0.12452468  1
  O  O298  1  0.87623128  0.63262940  0.63227167  1
  O  O299  1  0.25823017  0.25349757  0.12712395  1
  O  O300  1  0.25175647  0.25430458  0.62761192  1
  O  O301  1  0.25632074  0.75137854  0.11621081  1
  O  O302  1  0.25525201  0.76291427  0.63153022  1
  O  O303  1  0.74584005  0.25927381  0.11655261  1
  O  O304  1  0.75846169  0.25410967  0.61557890  1
  O  O305  1  0.75508099  0.75667063  0.11722525  1
  O  O306  1  0.75477590  0.75016610  0.61623782  1
  O  O307  1  0.23941661  0.23766138  0.37315325  1
  O  O308  1  0.25274063  0.23105205  0.87184844  1
  O  O309  1  0.23295547  0.74356802  0.37604135  1
  O  O310  1  0.23945926  0.75201911  0.87831555  1
  O  O311  1  0.75001119  0.25406004  0.38667984  1
  O  O312  1  0.74326468  0.24088028  0.88383061  1
  O  O313  1  0.74559053  0.74514840  0.37918080  1
  O  O314  1  0.73925129  0.74131833  0.88171448  1
  O  O315  1  -0.00983362  0.11777047  0.00978634  1
  O  O316  1  0.00783450  0.11847930  0.50467156  1
  O  O317  1  0.00595321  0.61816721  0.00023435  1
  O  O318  1  0.00495821  0.61043284  0.50415722  1
  O  O319  1  0.49525970  0.11411358  0.01243050  1
  O  O320  1  0.50735859  0.11855633  0.50735593  1
  O  O321  1  0.49719332  0.60970185  0.00370613  1
  O  O322  1  0.50841336  0.62152538  0.50996267  1
  O  O323  1  0.48843645  0.37621693  0.49736917  1
  O  O324  1  0.48638624  0.38452307  1.00894808  1
  O  O325  1  0.50190916  0.88235239  0.49830817  1
  O  O326  1  0.49152867  0.88933271  1.00502399  1
  O  O327  1  0.99701080  0.38879944  0.50459625  1
  O  O328  1  0.98848157  0.38258221  1.00294984  1
  O  O329  1  0.99306625  0.88322268  0.50608456  1
  O  O330  1  0.98946945  0.88189164  0.99567524  1
  O  O331  1  0.48513108  0.49598119  0.35888878  1
  O  O332  1  0.49015110  0.48870992  0.88205167  1
  O  O333  1  0.49836444  1.00261312  0.39195998  1
  O  O334  1  0.49217731  1.00844355  0.88947590  1
  O  O335  1  0.99129729  0.50486655  0.38071545  1
  O  O336  1  0.98984418  0.49819955  0.88326835  1
  O  O337  1  0.99159540  1.00411788  0.38697535  1
  O  O338  1  0.99310900  1.00010548  0.88079154  1
  O  O339  1  -0.00082593  0.00991704  0.11521589  1
  O  O340  1  -0.00478273  0.01189079  0.61137352  1
  O  O341  1  0.00693453  0.50269398  0.11818343  1
  O  O342  1  0.01208575  0.50280944  0.61936909  1
  O  O343  1  0.49389750  0.01121713  0.11382901  1
  O  O344  1  0.50932803  0.00470377  0.61499562  1
  O  O345  1  0.50637807  0.50675481  0.11984983  1
  O  O346  1  0.51872780  0.49612841  0.63416858  1
  O  O347  1  0.24128446  0.37844685  0.24646128  1
  O  O348  1  0.23836225  0.38792351  0.74918031  1
  O  O349  1  0.25347004  0.88945650  0.25036145  1
  O  O350  1  0.24601106  0.88379962  0.74215994  1
  O  O351  1  0.74351467  0.38108521  0.24181102  1
  O  O352  1  0.74876997  0.38139952  0.74543685  1
  O  O353  1  0.74265070  0.88279160  0.24197630  1
  O  O354  1  0.73481783  0.86730036  0.74793096  1
  O  O355  1  0.25609936  0.11686467  0.25697815  1
  O  O356  1  0.24653633  0.11036531  0.75876304  1
  O  O357  1  0.24570173  0.61282390  0.24344326  1
  O  O358  1  0.25513056  0.61250185  0.74976857  1
  O  O359  1  0.75819376  0.11735139  0.24536896  1
  O  O360  1  0.75626031  0.12838821  0.75766746  1
  O  O361  1  0.75118597  0.62035668  0.25916203  1
  O  O362  1  0.75494391  0.61895958  0.75690469  1
  O  O363  1  0.36895655  0.12567337  0.36730370  1
  O  O364  1  0.36475887  0.11264933  0.87717321  1
  O  O365  1  0.37386268  0.60832840  0.36599686  1
  O  O366  1  0.37824452  0.61080558  0.86605160  1
  O  O367  1  0.87845073  0.11269986  0.36518793  1
  O  O368  1  0.86401531  0.12437820  0.86339350  1
  O  O369  1  0.86645515  0.61746072  0.37537494  1
  O  O370  1  0.86347742  0.61984034  0.86992482  1
  O  O371  1  0.13001693  0.38413834  0.13785385  1
  O  O372  1  0.12308333  0.38300642  0.63616922  1
  O  O373  1  0.12869772  0.88023848  0.13000999  1
  O  O374  1  0.12976094  0.86968432  0.63582688  1
  O  O375  1  0.63467222  0.38401514  0.12901503  1
  O  O376  1  0.63451214  0.38241952  0.63084067  1
  O  O377  1  0.63662545  0.87098091  0.13330175  1
  O  O378  1  0.62750711  0.88322130  0.63458864  1
  O  O379  1  0.11894091  0.25852461  0.25676483  1
  O  O380  1  0.12137304  0.25912641  0.75609910  1
  O  O381  1  0.12470556  0.75583338  0.26322872  1
  O  O382  1  0.11966273  0.75149606  0.75451241  1
  O  O383  1  0.62725510  0.26014809  0.25068714  1
  O  O384  1  0.63298163  0.26125348  0.75557339  1
  O  O385  1  0.61978988  0.75958612  0.25619921  1
  O  O386  1  0.61444045  0.75353014  0.75770355  1
  O  O387  1  0.37528831  0.23869404  0.24408610  1
  O  O388  1  0.40434477  0.31757832  0.76068016  1
  O  O389  1  0.38297704  0.75854761  0.23888152  1
  O  O390  1  0.38860461  0.74065087  0.76214715  1
  O  O391  1  0.88454262  0.24301841  0.25887974  1
  O  O392  1  0.87504136  0.23869391  0.73952147  1
  O  O393  1  0.86984966  0.74878252  0.23828807  1
  O  O394  1  0.88199543  0.74834072  0.74721556  1
  O  O395  1  0.36998596  0.49404681  0.47880304  1
  O  O396  1  0.37907554  0.49641159  0.99702415  1
  O  O397  1  0.38873355  1.00382811  0.50006843  1
  O  O398  1  0.37982044  0.99230479  0.99360016  1
  O  O399  1  0.88354406  0.49706223  0.49325024  1
  O  O400  1  0.87670346  0.49108101  0.99602106  1
  O  O401  1  0.87965286  0.99366108  0.49199193  1
  O  O402  1  0.88177091  0.99172364  0.99851535  1
  O  O403  1  0.10995783  -0.00719277  -0.00307707  1
  O  O404  1  0.11721909  0.00996678  0.49399543  1
  O  O405  1  0.12069786  0.50641463  0.00355907  1
  O  O406  1  0.12312315  0.50432366  0.50523720  1
  O  O407  1  0.60928580  -0.00508529  -0.00201637  1
  O  O408  1  0.61863945  0.00555855  0.50561212  1
  O  O409  1  0.61532260  0.49189853  0.00757114  1
  O  O410  1  0.63523188  0.49766870  0.51558082  1
  O  O411  1  0.37180414  0.36397917  0.12643668  1
  O  O412  1  0.37065495  0.39503931  0.60152179  1
  O  O413  1  0.37136147  0.86482445  0.11139318  1
  O  O414  1  0.37034440  0.87323613  0.63098698  1
  O  O415  1  0.86037513  0.38179211  0.11830105  1
  O  O416  1  0.87303431  0.36767610  0.61791713  1
  O  O417  1  0.86321995  0.86996596  0.11299250  1
  O  O418  1  0.87176821  0.86998165  0.61328963  1
  O  O419  1  0.13160445  0.13157424  0.38420203  1
  O  O420  1  0.13819190  0.12286957  0.87336101  1
  O  O421  1  0.13011548  0.62042948  0.39153496  1
  O  O422  1  0.12052962  0.63289082  0.88663842  1
  O  O423  1  0.62311740  0.12553279  0.38978920  1
  O  O424  1  0.62977982  0.13938540  0.86859826  1
  O  O425  1  0.63379907  0.63650585  0.37372610  1
  O  O426  1  0.63393014  0.62812931  0.86849767  1
