# generated using pymatgen
data_V85Zn86O256
_symmetry_space_group_name_H-M   'P 1'
_cell_length_a   16.93483904
_cell_length_b   16.92960592
_cell_length_c   16.93896410
_cell_angle_alpha   89.96470244
_cell_angle_beta   90.00890071
_cell_angle_gamma   90.05447589
_symmetry_Int_Tables_number   1
_chemical_formula_structural   V85Zn86O256
_chemical_formula_sum   'V85 Zn86 O256'
_cell_volume   4856.40039668
_cell_formula_units_Z   1
loop_
 _symmetry_equiv_pos_site_id
 _symmetry_equiv_pos_as_xyz
  1  'x, y, z'
loop_
 _atom_site_type_symbol
 _atom_site_label
 _atom_site_symmetry_multiplicity
 _atom_site_fract_x
 _atom_site_fract_y
 _atom_site_fract_z
 _atom_site_occupancy
  V  V0  1  0.38020752  0.63144748  0.75607921  1
  V  V1  1  0.11694903  0.24536513  0.87796447  1
  V  V2  1  0.25826777  0.50037293  0.26079147  1
  V  V3  1  0.49929920  0.25299932  0.24939464  1
  V  V4  1  0.74562586  0.00141973  0.75571899  1
  V  V5  1  0.51505954  0.86977623  0.37039616  1
  V  V6  1  0.62251189  0.86311992  0.75039647  1
  V  V7  1  0.00180634  0.11220333  0.62133714  1
  V  V8  1  0.86788276  0.74721135  0.11971793  1
  V  V9  1  0.25379547  0.50175862  0.75424425  1
  V  V10  1  0.12328353  0.10262891  0.50217081  1
  V  V11  1  0.25189523  0.62977434  0.39334854  1
  V  V12  1  0.49674499  0.38507077  0.37313320  1
  V  V13  1  0.25277900  0.61854813  0.87921984  1
  V  V14  1  0.37441233  0.24983546  0.62549400  1
  V  V15  1  0.24554755  0.38028738  0.12342263  1
  V  V16  1  0.24388271  0.87442994  0.62054263  1
  V  V17  1  0.75065124  0.62732954  0.89380937  1
  V  V18  1  0.87537143  0.25118795  0.62559488  1
  V  V19  1  0.62890958  0.74695943  0.89280808  1
  V  V20  1  0.74847804  0.25021854  0.50076600  1
  V  V21  1  0.12238769  0.62115879  0.00101460  1
  V  V22  1  0.87242093  0.50218487  0.37607136  1
  V  V23  1  0.37174886  0.87544823  0.01059348  1
  V  V24  1  0.88973580  0.49083716  0.88375665  1
  V  V25  1  0.00357071  0.62112719  0.12466863  1
  V  V26  1  0.37250834  0.12485948  0.75179643  1
  V  V27  1  0.51299028  0.74550777  0.25419418  1
  V  V28  1  0.24830789  0.75262141  0.00892219  1
  V  V29  1  0.62776388  0.37668740  0.24183642  1
  V  V30  1  0.87105456  0.75146665  0.62308755  1
  V  V31  1  -0.00049105  0.37452200  0.37807196  1
  V  V32  1  0.62279754  0.50202064  0.10933856  1
  V  V33  1  0.00651749  0.00684356  0.00163242  1
  V  V34  1  0.75044282  0.50828527  0.74945936  1
  V  V35  1  0.50087860  -0.00017821  0.49914231  1
  V  V36  1  0.00773291  0.62840188  0.61736587  1
  V  V37  1  0.49656492  0.39048937  0.87859397  1
  V  V38  1  0.86832067  0.12668478  0.75095767  1
  V  V39  1  -0.00222180  0.24027369  0.25119756  1
  V  V40  1  0.24710251  0.37653024  0.62679309  1
  V  V41  1  0.00087099  0.88259306  0.37425013  1
  V  V42  1  0.13056216  0.87190128  0.24127878  1
  V  V43  1  0.50012356  0.12554333  0.62521521  1
  V  V44  1  0.64054762  0.12468948  -0.00609588  1
  V  V45  1  0.49971180  0.25365273  0.75530926  1
  V  V46  1  0.86643460  0.87148447  0.00111514  1
  V  V47  1  0.12423302  0.88642681  0.75010057  1
  V  V48  1  0.50194632  0.00431147  -0.00028322  1
  V  V49  1  0.49795734  0.86494835  0.87243579  1
  V  V50  1  0.37817261  0.86231484  0.50065897  1
  V  V51  1  0.74844159  0.49809391  0.24246788  1
  V  V52  1  0.62628942  0.62504278  0.49763361  1
  V  V53  1  0.87660277  0.88731102  0.49659447  1
  V  V54  1  0.75724505  0.26831319  -0.00579114  1
  V  V55  1  0.75561856  0.12672391  0.36401239  1
  V  V56  1  0.62360831  0.00074371  0.62842100  1
  V  V57  1  0.24840047  0.24013939  -0.00110834  1
  V  V58  1  0.00043031  0.75126705  0.75124607  1
  V  V59  1  -0.00239649  0.87419934  0.87682865  1
  V  V60  1  0.87581678  0.62454310  0.24977456  1
  V  V61  1  0.25510663  -0.00913934  0.24157747  1
  V  V62  1  0.12506457  0.24737638  0.37796553  1
  V  V63  1  0.50660980  0.49916243  0.51077502  1
  V  V64  1  0.74671073  0.75302564  0.48891605  1
  V  V65  1  0.62932119  -0.00264924  0.13176130  1
  V  V66  1  0.62231404  0.38343037  0.74800577  1
  V  V67  1  0.74535259  0.38398382  0.62413470  1
  V  V68  1  0.12332460  0.37990162  0.25115173  1
  V  V69  1  0.37436290  0.38579151  -0.00501557  1
  V  V70  1  0.86853225  0.25441368  0.12873760  1
  V  V71  1  0.62405115  0.25193464  0.37385057  1
  V  V72  1  0.37634939  0.12516116  0.25107877  1
  V  V73  1  0.87557288  0.37754847  0.50139377  1
  V  V74  1  0.37364029  0.38108140  0.49693224  1
  V  V75  1  0.50408213  0.63308952  0.62938615  1
  V  V76  1  0.37480111  -0.00217810  0.87407940  1
  V  V77  1  0.25198656  0.12076757  0.37611207  1
  V  V78  1  -0.00014404  0.25657320  0.74832762  1
  V  V79  1  0.87013328  0.00490732  0.87899603  1
  V  V80  1  0.00257782  0.75049211  0.25137750  1
  V  V81  1  0.37457850  0.25160485  0.12294306  1
  V  V82  1  0.49894109  0.62221207  0.11137205  1
  V  V83  1  0.24924790  0.24669360  0.50092472  1
  V  V84  1  0.37503609  -0.00580099  0.37507694  1
  Zn  Zn85  1  0.24596060  0.00167011  0.74867808  1
  Zn  Zn86  1  0.11796074  0.38165784  0.74883066  1
  Zn  Zn87  1  0.00527217  0.50983785  0.49557698  1
  Zn  Zn88  1  0.88387699  0.01053109  0.36605592  1
  Zn  Zn89  1  0.13238251  0.51202968  0.61900769  1
  Zn  Zn90  1  0.74313647  0.62925682  0.37049340  1
  Zn  Zn91  1  0.37735294  0.62441141  0.25509004  1
  Zn  Zn92  1  0.62552999  0.12543241  0.49928773  1
  Zn  Zn93  1  0.37415564  0.74950802  0.62899919  1
  Zn  Zn94  1  0.12613326  0.75039046  0.87664148  1
  Zn  Zn95  1  0.12305904  0.73932119  0.39210851  1
  Zn  Zn96  1  0.63056073  0.24889204  0.87318409  1
  Zn  Zn97  1  0.73984153  0.86338936  0.12834812  1
  Zn  Zn98  1  0.87629741  0.62541174  0.75217822  1
  Zn  Zn99  1  0.75715287  -0.00885100  0.24906861  1
  Zn  Zn100  1  0.74816605  0.87593419  0.62365420  1
  Zn  Zn101  1  0.06227230  0.45969210  0.07167591  1
  Zn  Zn102  1  0.37349141  0.74995584  0.13221189  1
  Zn  Zn103  1  0.50378061  0.12860679  0.12282954  1
  Zn  Zn104  1  0.00055144  0.12307040  0.12698169  1
  Zn  Zn105  1  0.24491512  0.11998537  0.87842330  1
  Zn  Zn106  1  0.13331476  0.00380646  0.11866654  1
  Zn  Zn107  1  0.18411410  0.18362570  0.18635128  1
  Zn  Zn108  1  0.18380716  0.18404530  0.68579223  1
  Zn  Zn109  1  0.18651662  0.68392575  0.18851047  1
  Zn  Zn110  1  0.18894789  0.69514402  0.68962349  1
  Zn  Zn111  1  0.68728316  0.18893847  0.18056858  1
  Zn  Zn112  1  0.68672252  0.19127455  0.68787972  1
  Zn  Zn113  1  0.68596154  0.68075300  0.18271934  1
  Zn  Zn114  1  0.68492122  0.68742180  0.68137018  1
  Zn  Zn115  1  0.31176373  0.31291905  0.31357442  1
  Zn  Zn116  1  0.30843854  0.31366373  0.81683979  1
  Zn  Zn117  1  0.31669297  0.80645993  0.31282950  1
  Zn  Zn118  1  0.30752257  0.80891174  0.81585960  1
  Zn  Zn119  1  0.81190787  0.31278552  0.31026057  1
  Zn  Zn120  1  0.81246411  0.31744973  0.81382963  1
  Zn  Zn121  1  0.81240936  0.81793737  0.30718959  1
  Zn  Zn122  1  0.80961810  0.81228262  0.81346414  1
  Zn  Zn123  1  0.18454230  0.44175566  0.44020531  1
  Zn  Zn124  1  0.16085184  0.42042213  0.94445038  1
  Zn  Zn125  1  0.16919367  0.89852096  0.45366875  1
  Zn  Zn126  1  0.18798565  0.93437715  0.93480684  1
  Zn  Zn127  1  0.68512028  0.44025622  0.43433037  1
  Zn  Zn128  1  0.68807417  0.43874327  0.92871648  1
  Zn  Zn129  1  0.69084453  0.94261129  0.43867153  1
  Zn  Zn130  1  0.68681983  0.93564174  0.93870934  1
  Zn  Zn131  1  0.31754341  0.06304639  0.06432015  1
  Zn  Zn132  1  0.31120654  0.05437436  0.56310704  1
  Zn  Zn133  1  0.30922615  0.56336666  0.06806564  1
  Zn  Zn134  1  0.31988800  0.56167039  0.56613954  1
  Zn  Zn135  1  0.81806260  0.06660289  0.06903033  1
  Zn  Zn136  1  0.80883383  0.06488413  0.56325765  1
  Zn  Zn137  1  0.81773137  0.55328652  0.06340245  1
  Zn  Zn138  1  0.81440071  0.56711241  0.56230813  1
  Zn  Zn139  1  0.43747200  0.43960606  0.18214218  1
  Zn  Zn140  1  0.43251156  0.44252262  0.68916020  1
  Zn  Zn141  1  0.44852628  0.93565867  0.18999294  1
  Zn  Zn142  1  0.43722262  0.93484526  0.68810068  1
  Zn  Zn143  1  0.93131822  0.42913303  0.19112428  1
  Zn  Zn144  1  0.93392979  0.44337723  0.68959972  1
  Zn  Zn145  1  0.93110545  0.93706417  0.18821992  1
  Zn  Zn146  1  0.93286421  0.93612726  0.68913803  1
  Zn  Zn147  1  0.07030728  0.05826848  0.30992318  1
  Zn  Zn148  1  0.05501268  0.06734728  0.81358720  1
  Zn  Zn149  1  0.06695185  0.56296066  0.31434106  1
  Zn  Zn150  1  0.06765229  0.56650924  0.80752051  1
  Zn  Zn151  1  0.56325517  0.06566528  0.31327928  1
  Zn  Zn152  1  0.56036300  0.06282109  0.81572462  1
  Zn  Zn153  1  0.56286281  0.56321331  0.31221939  1
  Zn  Zn154  1  0.56621836  0.56726367  0.81430444  1
  Zn  Zn155  1  0.43868926  0.18978869  0.43749540  1
  Zn  Zn156  1  0.43807666  0.18927212  0.93768583  1
  Zn  Zn157  1  0.43707971  0.68099868  0.43108763  1
  Zn  Zn158  1  0.43247117  0.68915000  0.93644783  1
  Zn  Zn159  1  0.93889878  0.18689614  0.44198185  1
  Zn  Zn160  1  0.93220190  0.18899841  0.93673397  1
  Zn  Zn161  1  0.93329047  0.69406637  0.43579255  1
  Zn  Zn162  1  0.93614140  0.68211644  0.93837486  1
  Zn  Zn163  1  0.06049875  0.29676900  0.06049182  1
  Zn  Zn164  1  0.06319802  0.31001479  0.56249033  1
  Zn  Zn165  1  0.05805856  0.81174200  0.06309266  1
  Zn  Zn166  1  0.05801926  0.81581233  0.56400151  1
  Zn  Zn167  1  0.56321946  0.31359848  0.05787507  1
  Zn  Zn168  1  0.56317606  0.31371302  0.56436964  1
  Zn  Zn169  1  0.55553252  0.81318187  0.06477838  1
  Zn  Zn170  1  0.56375830  0.81159292  0.56042768  1
  O  O171  1  0.11541395  0.11627210  0.13189552  1
  O  O172  1  0.11559041  0.12365983  0.61472560  1
  O  O173  1  0.11357161  0.62785532  0.11857737  1
  O  O174  1  0.11103554  0.63339263  0.62731368  1
  O  O175  1  0.62381650  0.11859302  0.11132997  1
  O  O176  1  0.61720065  0.11946950  0.62706547  1
  O  O177  1  0.61121415  0.61464440  0.12555758  1
  O  O178  1  0.61619905  0.62431792  0.61378410  1
  O  O179  1  0.38499675  0.36735834  0.38524788  1
  O  O180  1  0.38281428  0.37161811  0.88332394  1
  O  O181  1  0.38282843  0.87978633  0.38251503  1
  O  O182  1  0.38143536  0.88000405  0.87884011  1
  O  O183  1  0.87788062  0.38242436  0.38051307  1
  O  O184  1  0.87584004  0.39155351  0.87100170  1
  O  O185  1  0.88307985  0.87630603  0.38184756  1
  O  O186  1  0.87693180  0.88468886  0.87969248  1
  O  O187  1  0.26702330  0.00189225  0.36559315  1
  O  O188  1  0.26224197  0.00093539  0.87251406  1
  O  O189  1  0.24871832  0.50492648  0.36519753  1
  O  O190  1  0.24058901  0.51222657  0.86815576  1
  O  O191  1  0.74593286  0.01903626  0.37312607  1
  O  O192  1  0.75476922  -0.00306296  0.86412591  1
  O  O193  1  0.76016390  0.50068557  0.36680383  1
  O  O194  1  0.75373027  0.51298944  0.86794247  1
  O  O195  1  0.25196978  0.48470773  0.13682388  1
  O  O196  1  0.25192167  0.49179081  0.63112704  1
  O  O197  1  0.25575520  1.00047132  0.13758872  1
  O  O198  1  0.25982447  0.98166977  0.63459593  1
  O  O199  1  0.74139988  0.50447185  0.13532474  1
  O  O200  1  0.75761673  0.49075386  0.63137744  1
  O  O201  1  0.73666997  1.00426539  0.12354933  1
  O  O202  1  0.74251506  0.99938874  0.63698115  1
  O  O203  1  0.00732223  0.36696043  0.25853545  1
  O  O204  1  -0.00085891  0.36126761  0.73903984  1
  O  O205  1  0.00368666  0.86650466  0.25390600  1
  O  O206  1  0.00397062  0.87143720  0.75534522  1
  O  O207  1  0.50323265  0.37317889  0.25743880  1
  O  O208  1  0.50385537  0.37222555  0.75271402  1
  O  O209  1  0.50143984  0.85986948  0.25770156  1
  O  O210  1  0.50936731  0.88080214  0.76222701  1
  O  O211  1  0.49378176  0.13502370  0.24896049  1
  O  O212  1  0.49151562  0.13360310  0.74766645  1
  O  O213  1  0.49820901  0.63288808  0.24837697  1
  O  O214  1  0.49314974  0.61738435  0.74155287  1
  O  O215  1  1.00328238  0.13846313  0.25942250  1
  O  O216  1  0.98641674  0.13241382  0.74217841  1
  O  O217  1  0.99736570  0.63216364  0.24654999  1
  O  O218  1  0.99831343  0.63753443  0.74051048  1
  O  O219  1  0.36804529  0.25506156  0.00770641  1
  O  O220  1  0.37069243  0.25796748  0.50622998  1
  O  O221  1  0.36796633  0.75974234  0.00374562  1
  O  O222  1  0.38207369  0.76032356  0.49906277  1
  O  O223  1  0.86272734  0.25116159  0.00366436  1
  O  O224  1  0.86663394  0.25726210  0.50581458  1
  O  O225  1  0.88150235  0.75810785  0.00814166  1
  O  O226  1  0.86619431  0.75881900  0.50653261  1
  O  O227  1  0.13310487  0.24369482  0.49368599  1
  O  O228  1  0.13252844  0.24140197  0.98512283  1
  O  O229  1  0.13641821  0.79240111  0.49093657  1
  O  O230  1  0.13167231  0.74382186  1.00080595  1
  O  O231  1  0.63176124  0.25286197  0.49315067  1
  O  O232  1  0.63892689  0.24117786  1.00224786  1
  O  O233  1  0.63649005  0.74213981  0.50450708  1
  O  O234  1  0.62642089  0.75754378  0.99171097  1
  O  O235  1  0.49104892  0.25195386  0.12997623  1
  O  O236  1  0.49464016  0.24766153  0.63608385  1
  O  O237  1  0.50020059  0.73863522  0.13376680  1
  O  O238  1  0.49915267  0.73675475  0.62260356  1
  O  O239  1  0.99529930  0.24640734  0.13591462  1
  O  O240  1  0.99257472  0.24175297  0.63057435  1
  O  O241  1  0.99128183  0.74048886  0.13235350  1
  O  O242  1  0.99271888  0.74614779  0.63041199  1
  O  O243  1  0.00358756  0.25563657  0.37132463  1
  O  O244  1  0.00878683  0.24405015  0.86667348  1
  O  O245  1  0.00229080  0.75653944  0.36605962  1
  O  O246  1  -0.00313607  0.75541717  0.86627281  1
  O  O247  1  0.50620329  0.26001977  0.37031657  1
  O  O248  1  0.50006059  0.25624154  0.86294838  1
  O  O249  1  0.50086315  0.75436312  0.36371261  1
  O  O250  1  0.50839888  0.75892124  0.87976756  1
  O  O251  1  0.24555539  0.12584244  0.49629545  1
  O  O252  1  0.25653413  0.13612204  1.00145128  1
  O  O253  1  0.25431220  0.62096275  0.49267503  1
  O  O254  1  0.24774651  0.63249489  0.99605501  1
  O  O255  1  0.74585178  0.13629648  0.49499521  1
  O  O256  1  0.74162382  0.12729563  0.99856252  1
  O  O257  1  0.74338690  0.63329658  0.49948771  1
  O  O258  1  0.75217718  0.62213945  0.99168358  1
  O  O259  1  0.25197406  0.36269767  0.00838403  1
  O  O260  1  0.25816851  0.36990244  0.50523365  1
  O  O261  1  0.25965872  0.86639904  -0.00558902  1
  O  O262  1  0.26619742  0.88602934  0.51438830  1
  O  O263  1  0.74584682  0.36602599  -0.00001827  1
  O  O264  1  0.75327026  0.37238896  0.50648322  1
  O  O265  1  0.76267311  0.87888099  0.00474369  1
  O  O266  1  0.75586568  0.86940660  0.50129958  1
  O  O267  1  0.13432884  0.48530576  0.25646651  1
  O  O268  1  0.13704051  0.50005774  0.74058432  1
  O  O269  1  0.14030321  0.99023813  0.24908845  1
  O  O270  1  0.12277132  0.99021541  0.75771180  1
  O  O271  1  0.63217159  0.49402572  0.24661813  1
  O  O272  1  0.63290175  0.49004921  0.75361598  1
  O  O273  1  0.62497127  1.00846652  0.23344785  1
  O  O274  1  0.62988747  0.99555842  0.74879428  1
  O  O275  1  0.37528129  0.00211819  0.25530569  1
  O  O276  1  0.37876626  0.00835187  0.75909399  1
  O  O277  1  0.36054795  0.49366114  0.25145595  1
  O  O278  1  0.36126961  0.51254429  0.74730062  1
  O  O279  1  0.87143285  0.00351312  0.25275628  1
  O  O280  1  0.86549923  0.00564051  0.75680370  1
  O  O281  1  0.86602691  0.50171526  0.25557857  1
  O  O282  1  0.86448402  0.50465905  0.75792305  1
  O  O283  1  0.12066443  0.36656917  0.37135247  1
  O  O284  1  0.13906019  0.34817007  0.85804045  1
  O  O285  1  0.11433288  0.87346251  0.35541802  1
  O  O286  1  0.11663447  0.87063821  0.86789176  1
  O  O287  1  0.61749160  0.37083483  0.36476453  1
  O  O288  1  0.61593280  0.37109867  0.86588856  1
  O  O289  1  0.61319751  0.88073821  0.38109060  1
  O  O290  1  0.61897219  0.86788759  0.87047707  1
  O  O291  1  0.37788852  0.13739787  0.13157848  1
  O  O292  1  0.38088675  0.12872291  0.63163984  1
  O  O293  1  0.38843188  0.62259965  0.12996139  1
  O  O294  1  0.38424076  0.62891657  0.63410168  1
  O  O295  1  0.88426683  0.14485808  0.11818916  1
  O  O296  1  0.87857240  0.13183059  0.63000696  1
  O  O297  1  0.88187550  0.62865966  0.13025320  1
  O  O298  1  0.88233411  0.63953079  0.62705215  1
  O  O299  1  0.25556726  0.25736476  0.12242533  1
  O  O300  1  0.25647378  0.25433890  0.62080007  1
  O  O301  1  0.25380208  0.74355841  0.11359503  1
  O  O302  1  0.25555574  0.76848550  0.63107664  1
  O  O303  1  0.76113502  0.24888030  0.11460227  1
  O  O304  1  0.75497450  0.26134779  0.62103165  1
  O  O305  1  0.76370515  0.74394827  0.12636016  1
  O  O306  1  0.75789123  0.75380495  0.61782441  1
  O  O307  1  0.24643085  0.24153900  0.38108469  1
  O  O308  1  0.24616190  0.24221133  0.88397634  1
  O  O309  1  0.24822150  0.73250412  0.37117917  1
  O  O310  1  0.24838649  0.73801931  0.88694088  1
  O  O311  1  0.74472152  0.24478748  0.37981912  1
  O  O312  1  0.74985898  0.25465226  0.88865892  1
  O  O313  1  0.75803583  0.74807672  0.38596752  1
  O  O314  1  0.74517743  0.73590585  0.87314843  1
  O  O315  1  -0.00363520  0.10836867  -0.00646840  1
  O  O316  1  0.01104843  0.12599930  0.50826815  1
  O  O317  1  0.00961071  0.62811027  0.01018588  1
  O  O318  1  -0.00444401  0.63201043  0.51365052  1
  O  O319  1  0.50637175  0.11886178  0.00077029  1
  O  O320  1  0.50201484  0.11967320  0.50630637  1
  O  O321  1  0.49633450  0.62966130  0.01267448  1
  O  O322  1  0.50491606  0.61724259  0.50542389  1
  O  O323  1  0.49543759  0.38066245  0.49589184  1
  O  O324  1  0.48852828  0.36866865  0.98928529  1
  O  O325  1  0.49493634  0.88052249  0.49392830  1
  O  O326  1  0.49240992  0.88303775  0.99061594  1
  O  O327  1  0.98984882  0.37190949  0.49507526  1
  O  O328  1  1.05702307  0.38441412  0.99175726  1
  O  O329  1  0.98682159  0.87267592  0.48886357  1
  O  O330  1  0.98992954  0.88200244  0.99298372  1
  O  O331  1  0.50371332  0.48847073  0.38448535  1
  O  O332  1  0.50306513  0.48962069  0.87171101  1
  O  O333  1  0.49313601  0.99356239  0.37611271  1
  O  O334  1  0.49113114  0.99259984  0.88087724  1
  O  O335  1  0.98827738  0.49466775  0.37306490  1
  O  O336  1  0.98747056  0.50864646  0.86465803  1
  O  O337  1  1.00120914  0.98745938  0.37037914  1
  O  O338  1  0.99014922  0.99444061  0.88231217  1
  O  O339  1  -0.00432592  -0.00126728  0.10745843  1
  O  O340  1  -0.00782015  0.01309454  0.62920601  1
  O  O341  1  -0.00527220  0.51341163  0.13979510  1
  O  O342  1  -0.00440801  0.52187722  0.62719620  1
  O  O343  1  0.51109148  0.00384680  0.11743287  1
  O  O344  1  0.50445428  0.00573917  0.62122843  1
  O  O345  1  0.50753689  0.51263402  0.12802191  1
  O  O346  1  0.49559677  0.50714399  0.61521118  1
  O  O347  1  0.24396803  0.38142729  0.24757911  1
  O  O348  1  0.25545706  0.38436334  0.74178335  1
  O  O349  1  0.24475774  0.87972189  0.25463751  1
  O  O350  1  0.23990753  0.87606231  0.74688123  1
  O  O351  1  0.73865702  0.38326446  0.25315574  1
  O  O352  1  0.74208275  0.38450502  0.74393811  1
  O  O353  1  0.74778819  0.87669775  0.24087457  1
  O  O354  1  0.74081293  0.88391230  0.74854688  1
  O  O355  1  0.25818273  0.11687730  0.25782129  1
  O  O356  1  0.26333286  0.12342936  0.74808986  1
  O  O357  1  0.25112672  0.60645708  0.24584341  1
  O  O358  1  0.25447779  0.62200241  0.75797437  1
  O  O359  1  0.74596863  0.13136129  0.26309305  1
  O  O360  1  0.76030192  0.12023546  0.74550071  1
  O  O361  1  0.75618783  0.61612095  0.25226980  1
  O  O362  1  0.74905411  0.61459507  0.74588213  1
  O  O363  1  0.37368222  0.11704993  0.37077229  1
  O  O364  1  0.37568335  0.11645665  0.86754748  1
  O  O365  1  0.35927168  0.62085786  0.37240368  1
  O  O366  1  0.36704714  0.62385444  0.86962049  1
  O  O367  1  0.85930780  0.12837185  0.38222991  1
  O  O368  1  0.87703079  0.11276445  0.86611270  1
  O  O369  1  0.87451061  0.61702400  0.36812727  1
  O  O370  1  0.86140203  0.62226412  0.87176184  1
  O  O371  1  0.13167634  0.37071486  0.13730577  1
  O  O372  1  0.14043552  0.36783391  0.62838882  1
  O  O373  1  0.11821568  0.87983124  0.13713700  1
  O  O374  1  0.13626728  0.87743982  0.63366434  1
  O  O375  1  0.61400385  0.38366204  0.13647405  1
  O  O376  1  0.63446858  0.37266150  0.63390196  1
  O  O377  1  0.62386737  0.89365384  0.11371326  1
  O  O378  1  0.62252852  0.88261860  0.63449306  1
  O  O379  1  0.11974420  0.25792841  0.25939152  1
  O  O380  1  0.11236443  0.24654797  0.75255041  1
  O  O381  1  0.11451975  0.75410112  0.24729424  1
  O  O382  1  0.11245848  0.76193505  0.75080036  1
  O  O383  1  0.61990206  0.25862910  0.25091273  1
  O  O384  1  0.61690273  0.26067596  0.75101167  1
  O  O385  1  0.61264754  0.74326349  0.24695158  1
  O  O386  1  0.63086504  0.76126653  0.75566910  1
  O  O387  1  0.37856360  0.24768220  0.24238161  1
  O  O388  1  0.38062861  0.24416607  0.74673054  1
  O  O389  1  0.38751586  0.74565218  0.24762808  1
  O  O390  1  0.37341816  0.73611635  0.75302541  1
  O  O391  1  0.88225893  0.25504141  0.23961247  1
  O  O392  1  0.87757812  0.24375444  0.74744388  1
  O  O393  1  0.88557515  0.74341435  0.24377657  1
  O  O394  1  0.88352602  0.75426056  0.74154182  1
  O  O395  1  0.38447340  0.48606848  0.50321034  1
  O  O396  1  0.36562862  0.48416191  1.00596867  1
  O  O397  1  0.38381622  0.99392499  0.49114682  1
  O  O398  1  0.38053726  0.99498730  0.99325415  1
  O  O399  1  0.87836775  0.49728180  0.49150993  1
  O  O400  1  0.87902133  0.50242777  0.98442438  1
  O  O401  1  0.86628181  0.98982374  0.49532211  1
  O  O402  1  0.87945007  0.99478624  0.99340427  1
  O  O403  1  0.11050312  -0.00728505  -0.00195227  1
  O  O404  1  0.13248686  0.00426677  0.49215657  1
  O  O405  1  0.14156926  0.51919005  0.00418906  1
  O  O406  1  0.11558817  0.49196054  0.50957730  1
  O  O407  1  0.62259782  0.01111348  0.00230454  1
  O  O408  1  0.61956123  0.00216683  0.51103917  1
  O  O409  1  0.62888023  0.49249234  0.01083979  1
  O  O410  1  0.61656855  0.50489251  0.50072202  1
  O  O411  1  0.36831285  0.36561727  0.12011762  1
  O  O412  1  0.36673203  0.36945545  0.61890737  1
  O  O413  1  0.38355748  0.87596817  0.11267795  1
  O  O414  1  0.37355560  0.87008161  0.61796064  1
  O  O415  1  0.88503916  0.35532037  0.11831460  1
  O  O416  1  0.86722289  0.37172790  0.62062237  1
  O  O417  1  0.87694798  0.86286497  0.11552791  1
  O  O418  1  0.87463799  0.86724120  0.61599381  1
  O  O419  1  0.13247251  0.12793156  0.38271383  1
  O  O420  1  0.12944608  0.13848211  0.86434002  1
  O  O421  1  0.14234532  0.62453650  0.37381370  1
  O  O422  1  0.13126158  0.63043574  0.88269966  1
  O  O423  1  0.63246271  0.13567084  0.37680522  1
  O  O424  1  0.62053970  0.12936037  0.88930264  1
  O  O425  1  0.62608046  0.61895518  0.39119226  1
  O  O426  1  0.63955627  0.63327106  0.87328160  1
