# generated using pymatgen
data_V85Zn86O256
_symmetry_space_group_name_H-M   'P 1'
_cell_length_a   16.93760753
_cell_length_b   16.92956062
_cell_length_c   16.93280987
_cell_angle_alpha   90.00315118
_cell_angle_beta   89.93995769
_cell_angle_gamma   90.05880160
_symmetry_Int_Tables_number   1
_chemical_formula_structural   V85Zn86O256
_chemical_formula_sum   'V85 Zn86 O256'
_cell_volume   4855.41455957
_cell_formula_units_Z   1
loop_
 _symmetry_equiv_pos_site_id
 _symmetry_equiv_pos_as_xyz
  1  'x, y, z'
loop_
 _atom_site_type_symbol
 _atom_site_label
 _atom_site_symmetry_multiplicity
 _atom_site_fract_x
 _atom_site_fract_y
 _atom_site_fract_z
 _atom_site_occupancy
  V  V0  1  0.01335009  0.87387751  0.36394899  1
  V  V1  1  0.01499870  0.37259395  0.37117281  1
  V  V2  1  -0.00431698  0.50385333  0.01147669  1
  V  V3  1  0.25903993  0.12532722  0.87092413  1
  V  V4  1  0.75228431  0.87391532  0.12738536  1
  V  V5  1  0.24503499  0.37900057  0.12229699  1
  V  V6  1  0.63171676  0.74355760  0.37295374  1
  V  V7  1  0.49958709  0.75013305  0.74811403  1
  V  V8  1  0.25171192  0.50516902  0.76451466  1
  V  V9  1  0.75411510  0.00846586  0.25563703  1
  V  V10  1  0.62312649  0.61843045  -0.00115655  1
  V  V11  1  0.75267071  0.50862886  0.25128092  1
  V  V12  1  0.62591637  0.37394578  0.25052181  1
  V  V13  1  0.01194942  0.73840645  0.25154554  1
  V  V14  1  0.12974812  0.63823869  0.49937257  1
  V  V15  1  0.24837425  0.37144545  0.62037672  1
  V  V16  1  0.62862561  0.25666067  0.86261233  1
  V  V17  1  0.24867293  0.87050444  0.61140878  1
  V  V18  1  0.24340035  0.49671015  0.25314662  1
  V  V19  1  0.74372343  0.49244876  0.74885201  1
  V  V20  1  0.00091751  0.50154451  0.49928932  1
  V  V21  1  0.12862983  0.12675003  0.00752924  1
  V  V22  1  0.62539937  0.00342085  0.12134207  1
  V  V23  1  0.49040130  0.37010028  0.85625331  1
  V  V24  1  0.75301965  0.74670980  0.00175311  1
  V  V25  1  0.00078643  0.25021162  0.74958827  1
  V  V26  1  0.49626935  0.62202886  0.12230231  1
  V  V27  1  0.12667612  0.87792606  0.74928950  1
  V  V28  1  0.87247521  0.37519306  0.49561626  1
  V  V29  1  0.25604743  -0.01087691  0.24973535  1
  V  V30  1  0.13072698  0.13914842  0.48786278  1
  V  V31  1  0.00027446  0.74820047  0.75186140  1
  V  V32  1  0.12575749  0.37736321  0.75130438  1
  V  V33  1  0.12509073  0.62195139  0.00446832  1
  V  V34  1  0.62718174  0.24122416  0.37540465  1
  V  V35  1  0.12623874  0.50331824  0.62589162  1
  V  V36  1  0.49907514  0.87623917  0.37801520  1
  V  V37  1  0.12567298  0.24911731  0.87777340  1
  V  V38  1  0.48489543  0.49007262  -0.00723778  1
  V  V39  1  0.36984060  0.75069189  0.61606739  1
  V  V40  1  0.37501123  0.24338461  0.63776909  1
  V  V41  1  0.37059964  0.87618149  0.00623252  1
  V  V42  1  0.00775035  0.25637219  0.24524505  1
  V  V43  1  0.37664319  0.50282690  0.38541493  1
  V  V44  1  0.75070237  0.24010560  0.49505766  1
  V  V45  1  0.37419456  0.62258299  0.25134085  1
  V  V46  1  0.49014244  0.12453868  0.12545086  1
  V  V47  1  0.62683677  0.87383225  0.24983952  1
  V  V48  1  0.62328038  0.61673675  0.49588382  1
  V  V49  1  0.62655823  0.74767922  0.87525444  1
  V  V50  1  0.50115761  0.74725970  0.24919715  1
  V  V51  1  -0.00856665  0.12919710  0.12722982  1
  V  V52  1  0.12779135  0.00310425  0.62076187  1
  V  V53  1  -0.00115389  0.37577306  0.87881380  1
  V  V54  1  0.75225510  0.36098727  0.12371786  1
  V  V55  1  0.87855295  0.87467273  0.00355206  1
  V  V56  1  0.87359125  0.49822840  0.87728668  1
  V  V57  1  0.87961952  0.73606861  0.13552411  1
  V  V58  1  0.12788178  -0.00914413  0.13383495  1
  V  V59  1  0.75298378  0.00260276  0.75274056  1
  V  V60  1  0.74888833  0.62093358  0.87451984  1
  V  V61  1  0.00065663  0.00101242  0.49479953  1
  V  V62  1  0.87073616  0.36081324  0.00338449  1
  V  V63  1  0.24929690  0.74897408  0.00970557  1
  V  V64  1  0.50286854  0.87789792  0.88101069  1
  V  V65  1  0.50037593  0.37869051  0.38061832  1
  V  V66  1  0.37028673  0.62670898  0.76042712  1
  V  V67  1  0.37543300  0.25878891  0.11837902  1
  V  V68  1  0.24854908  0.63859758  0.37937259  1
  V  V69  1  0.87147936  0.51089995  0.37310302  1
  V  V70  1  0.87520314  0.87437320  0.49363253  1
  V  V71  1  0.25710726  0.14004428  0.36580676  1
  V  V72  1  0.49127779  0.24680947  0.25212545  1
  V  V73  1  0.87517357  0.62318270  0.75017262  1
  V  V74  1  0.00399411  0.12700450  0.62252725  1
  V  V75  1  0.62888802  0.87292758  0.74918372  1
  V  V76  1  0.13860738  0.74656685  0.87567346  1
  V  V77  1  0.49734836  0.62116561  0.62086153  1
  V  V78  1  0.62075821  0.49384193  0.62488716  1
  V  V79  1  0.87375169  0.25001488  0.62474658  1
  V  V80  1  0.87569851  0.74785158  0.62406052  1
  V  V81  1  0.62241989  -0.00004694  0.62229309  1
  V  V82  1  0.75211130  0.74161866  0.49654082  1
  V  V83  1  0.00279850  0.87560256  0.87769345  1
  V  V84  1  0.37079532  0.36430754  0.49761559  1
  Zn  Zn85  1  0.25741369  0.00847218  0.74288657  1
  Zn  Zn86  1  0.87332000  0.00762305  0.37569825  1
  Zn  Zn87  1  0.36902198  0.87565848  0.49460483  1
  Zn  Zn88  1  0.50101538  0.13415531  0.63374095  1
  Zn  Zn89  1  0.49524340  0.00504600  0.49894162  1
  Zn  Zn90  1  0.75613922  0.13580020  0.88450669  1
  Zn  Zn91  1  0.86864346  0.14318897  0.25747481  1
  Zn  Zn92  1  0.37677449  0.00672234  0.37287061  1
  Zn  Zn93  1  0.87739048  0.12322797  0.75295205  1
  Zn  Zn94  1  0.73998442  0.36974018  0.62545593  1
  Zn  Zn95  1  0.25678047  0.25694006  -0.00227155  1
  Zn  Zn96  1  0.36960284  0.75347397  0.12916375  1
  Zn  Zn97  1  0.62802394  0.13896432  -0.00124404  1
  Zn  Zn98  1  0.11516240  0.50039501  0.13479870  1
  Zn  Zn99  1  0.62453049  0.49570061  0.12296209  1
  Zn  Zn100  1  0.75226170  0.87366148  0.62304195  1
  Zn  Zn101  1  0.87646156  0.00165351  0.87621417  1
  Zn  Zn102  1  0.49716487  0.00200704  0.00207253  1
  Zn  Zn103  1  0.00126011  0.62513881  0.62465828  1
  Zn  Zn104  1  0.62392271  0.12139616  0.49996370  1
  Zn  Zn105  1  0.00385616  0.00017596  0.00337208  1
  Zn  Zn106  1  0.38068722  0.00755944  0.87348002  1
  Zn  Zn107  1  0.18650542  0.19143439  0.19202871  1
  Zn  Zn108  1  0.19040137  0.18974702  0.68696778  1
  Zn  Zn109  1  0.18605814  0.68182716  0.18716988  1
  Zn  Zn110  1  0.18933168  0.68890824  0.68831117  1
  Zn  Zn111  1  0.68096000  0.18592656  0.18727763  1
  Zn  Zn112  1  0.68741338  0.18515220  0.69159624  1
  Zn  Zn113  1  0.68712866  0.68500534  0.18345084  1
  Zn  Zn114  1  0.68805448  0.68300192  0.68445813  1
  Zn  Zn115  1  0.31126370  0.31605684  0.30778951  1
  Zn  Zn116  1  0.31177056  0.31762319  0.81374248  1
  Zn  Zn117  1  0.31350577  0.81381120  0.30942047  1
  Zn  Zn118  1  0.32675229  0.83895151  0.79752613  1
  Zn  Zn119  1  0.81600713  0.31372252  0.31240844  1
  Zn  Zn120  1  0.81151910  0.31263721  0.81171370  1
  Zn  Zn121  1  0.81469212  0.81253210  0.31245628  1
  Zn  Zn122  1  0.81360884  0.81312168  0.81499607  1
  Zn  Zn123  1  0.19116282  0.44595320  0.44046240  1
  Zn  Zn124  1  0.18679471  0.43711141  0.94386454  1
  Zn  Zn125  1  0.18710434  0.94400954  0.43191197  1
  Zn  Zn126  1  0.18995626  0.93968591  0.94257309  1
  Zn  Zn127  1  0.68949255  0.43359623  0.43692631  1
  Zn  Zn128  1  0.68121016  0.42825045  0.93740132  1
  Zn  Zn129  1  0.68724480  0.93293753  0.43712567  1
  Zn  Zn130  1  0.69090450  0.94100447  0.93983739  1
  Zn  Zn131  1  0.31164948  0.06345899  0.06284802  1
  Zn  Zn132  1  0.31135061  0.06279810  0.55271018  1
  Zn  Zn133  1  0.30815615  0.56499955  0.06042416  1
  Zn  Zn134  1  0.31054599  0.56193128  0.56469384  1
  Zn  Zn135  1  0.81164701  0.06301419  0.06162441  1
  Zn  Zn136  1  0.81207643  0.06128549  0.56523810  1
  Zn  Zn137  1  0.80990460  0.55495720  0.06559926  1
  Zn  Zn138  1  0.81044684  0.56173077  0.56261440  1
  Zn  Zn139  1  0.43494168  0.43840315  0.18919979  1
  Zn  Zn140  1  0.43043417  0.44216543  0.68385869  1
  Zn  Zn141  1  0.43679768  0.93715812  0.19029174  1
  Zn  Zn142  1  0.44882092  0.97037859  0.70571099  1
  Zn  Zn143  1  0.93153268  0.43222361  0.19129647  1
  Zn  Zn144  1  0.93661252  0.43630452  0.68725525  1
  Zn  Zn145  1  0.93962531  0.93774387  0.18682897  1
  Zn  Zn146  1  0.93921379  0.93631277  0.68392863  1
  Zn  Zn147  1  0.06158640  0.06575561  0.30927611  1
  Zn  Zn148  1  0.06514101  0.06297589  0.81263949  1
  Zn  Zn149  1  0.06323108  0.56427535  0.31876856  1
  Zn  Zn150  1  0.06301246  0.56394245  0.81875283  1
  Zn  Zn151  1  0.56226153  0.06195355  0.30819260  1
  Zn  Zn152  1  0.56308374  0.07219853  0.80870055  1
  Zn  Zn153  1  0.56319074  0.55942297  0.31197715  1
  Zn  Zn154  1  0.55624347  0.55716273  0.81071980  1
  Zn  Zn155  1  0.43906151  0.18502743  0.44391079  1
  Zn  Zn156  1  0.44711506  0.19440250  0.93901345  1
  Zn  Zn157  1  0.44125350  0.68877700  0.43707324  1
  Zn  Zn158  1  0.43660449  0.69208255  0.93947437  1
  Zn  Zn159  1  0.93966863  0.18821455  0.43118965  1
  Zn  Zn160  1  0.93996813  0.18311112  0.93778982  1
  Zn  Zn161  1  0.94438710  0.68851801  0.43405308  1
  Zn  Zn162  1  0.94031787  0.68752747  0.93906283  1
  Zn  Zn163  1  0.06369326  0.31502500  0.06460762  1
  Zn  Zn164  1  0.06166446  0.31539894  0.55982039  1
  Zn  Zn165  1  0.06224322  0.80816069  0.06725075  1
  Zn  Zn166  1  0.05809922  0.81544702  0.56157608  1
  Zn  Zn167  1  0.56479487  0.31092264  0.05919655  1
  Zn  Zn168  1  0.55642079  0.30935440  0.56115849  1
  Zn  Zn169  1  0.56309822  0.80992561  0.06336540  1
  Zn  Zn170  1  0.56352251  0.81112436  0.56289855  1
  O  O171  1  0.11909213  0.12270416  0.11969260  1
  O  O172  1  0.12599339  0.11946843  0.61588632  1
  O  O173  1  0.12549746  0.61955073  0.11060366  1
  O  O174  1  0.12491366  0.61780869  0.62003198  1
  O  O175  1  0.61488029  0.11716577  0.12322351  1
  O  O176  1  0.62354930  0.11234700  0.62624302  1
  O  O177  1  0.61671179  0.62063811  0.11552561  1
  O  O178  1  0.61706026  0.61806160  0.61653820  1
  O  O179  1  0.37910100  0.38136034  0.38031564  1
  O  O180  1  0.39024100  0.37170484  0.87494302  1
  O  O181  1  0.38613531  0.87420524  0.37477382  1
  O  O182  1  0.39109494  0.86384398  0.89129281  1
  O  O183  1  0.88119308  0.38269977  0.38642498  1
  O  O184  1  0.87780059  0.38031545  0.88269435  1
  O  O185  1  0.88080031  0.87727610  0.38476253  1
  O  O186  1  0.88565532  0.87288448  0.88461330  1
  O  O187  1  0.24912178  0.00782321  0.36024149  1
  O  O188  1  0.24495593  0.01894026  0.87663093  1
  O  O189  1  0.25908224  0.50728912  0.36868265  1
  O  O190  1  0.24231502  0.49620299  0.86341071  1
  O  O191  1  0.74799605  -0.00641632  0.35808306  1
  O  O192  1  0.75420953  -0.00725979  0.86093973  1
  O  O193  1  0.75688327  0.49154260  0.36146242  1
  O  O194  1  0.75118528  0.50187833  0.86811479  1
  O  O195  1  0.25106059  0.49212885  0.13314257  1
  O  O196  1  0.23908466  0.49305251  0.63138160  1
  O  O197  1  0.23897171  1.00933610  0.13811146  1
  O  O198  1  0.24050058  0.99414608  0.62434232  1
  O  O199  1  0.74651990  0.49096078  0.13831014  1
  O  O200  1  0.73968715  0.49938659  0.63166794  1
  O  O201  1  0.74362397  0.99213066  0.13419020  1
  O  O202  1  0.74353755  0.99504987  0.63433220  1
  O  O203  1  0.00163423  0.37208321  0.26147600  1
  O  O204  1  0.00615529  0.37114038  0.75758586  1
  O  O205  1  -0.00336420  0.86855949  0.26048862  1
  O  O206  1  0.00949236  0.87055628  0.75526700  1
  O  O207  1  0.50781905  0.37039411  0.25736186  1
  O  O208  1  0.49634395  0.38614459  0.75813854  1
  O  O209  1  0.50740706  0.86796221  0.25668865  1
  O  O210  1  0.51446358  0.87041062  0.75923938  1
  O  O211  1  0.50635167  0.13748900  0.24101443  1
  O  O212  1  0.48317469  0.08011464  0.73266695  1
  O  O213  1  0.49567955  0.62527631  0.24122887  1
  O  O214  1  0.49382467  0.63086403  0.74167230  1
  O  O215  1  1.00006683  0.13872796  0.24325300  1
  O  O216  1  1.00239631  0.13203695  0.74097782  1
  O  O217  1  0.99971258  0.63898203  0.25869098  1
  O  O218  1  0.99297464  0.63012668  0.75088401  1
  O  O219  1  0.37564577  0.24852463  0.01456167  1
  O  O220  1  0.37283414  0.26225471  0.50438125  1
  O  O221  1  0.36484262  0.75307310  0.00481041  1
  O  O222  1  0.38114978  0.75243949  0.51228837  1
  O  O223  1  0.87892216  0.26195839  -0.00402401  1
  O  O224  1  0.87013117  0.25631435  0.50369503  1
  O  O225  1  0.87447147  0.75680281  0.00925823  1
  O  O226  1  0.87039956  0.75293376  0.50174032  1
  O  O227  1  0.12405217  0.23697832  0.50343567  1
  O  O228  1  0.12762841  0.24540658  0.99329460  1
  O  O229  1  0.12062368  0.73689109  0.50779929  1
  O  O230  1  0.12982174  0.74480522  0.99560445  1
  O  O231  1  0.63290769  0.25078101  0.49276091  1
  O  O232  1  0.61686600  0.25287381  0.97982906  1
  O  O233  1  0.63356650  0.74138282  0.49281296  1
  O  O234  1  0.63121767  0.73707458  0.99684288  1
  O  O235  1  0.49412067  0.24713032  0.13206674  1
  O  O236  1  0.48116834  0.25144736  0.62556358  1
  O  O237  1  0.50156362  0.73556167  0.13015832  1
  O  O238  1  0.49553748  0.74171294  0.63020297  1
  O  O239  1  1.00374758  0.24629360  0.13570788  1
  O  O240  1  0.99461029  0.24702263  0.62844969  1
  O  O241  1  0.98884168  0.75240837  0.13833857  1
  O  O242  1  0.99231169  0.74880955  0.63298605  1
  O  O243  1  0.00233602  0.26745540  0.37056938  1
  O  O244  1  0.00801762  0.25488137  0.87024866  1
  O  O245  1  -0.00466333  0.76191439  0.36175653  1
  O  O246  1  0.00743961  0.76098374  0.87151599  1
  O  O247  1  0.50490884  0.25659768  0.36888321  1
  O  O248  1  0.50412764  0.26338018  0.86812195  1
  O  O249  1  0.51113649  0.75400625  0.36749547  1
  O  O250  1  0.50933277  0.75724851  0.87035724  1
  O  O251  1  0.23675035  0.12116329  0.48327626  1
  O  O252  1  0.24101697  0.13134539  0.99318227  1
  O  O253  1  0.24112760  0.62053980  0.49317669  1
  O  O254  1  0.24067979  0.63467992  0.99788831  1
  O  O255  1  0.74885432  0.13724932  0.50338050  1
  O  O256  1  0.73864165  0.10801164  0.99390201  1
  O  O257  1  0.74225081  0.63528496  0.50286013  1
  O  O258  1  0.74219361  0.62558394  0.99605852  1
  O  O259  1  0.25155877  0.37588323  0.01587228  1
  O  O260  1  0.25706625  0.38192431  0.50906913  1
  O  O261  1  0.25972072  0.86545958  -0.00447655  1
  O  O262  1  0.24305674  0.87670598  0.50827749  1
  O  O263  1  0.75512111  0.38169899  0.01552767  1
  O  O264  1  0.75883756  0.36712405  0.50436020  1
  O  O265  1  0.75895604  0.86681117  0.00585287  1
  O  O266  1  0.75827822  0.86137251  0.49917480  1
  O  O267  1  0.13872704  0.50912692  0.25101584  1
  O  O268  1  0.12824095  0.49737339  0.74452700  1
  O  O269  1  0.13217303  1.00292612  0.23939522  1
  O  O270  1  0.12721530  0.99328066  0.74023232  1
  O  O271  1  0.63317479  0.48759166  0.25119083  1
  O  O272  1  0.63322644  0.50855613  0.73826470  1
  O  O273  1  0.63460547  0.99542643  0.24081580  1
  O  O274  1  0.63486699  0.98920645  0.74400952  1
  O  O275  1  0.36079060  0.00005697  0.25031166  1
  O  O276  1  0.35705970  -0.04206748  0.77024629  1
  O  O277  1  0.36747810  0.50621948  0.26030692  1
  O  O278  1  0.36232110  0.51354995  0.74431608  1
  O  O279  1  0.85925590  -0.00385772  0.24854677  1
  O  O280  1  0.86729467  -0.00253861  0.74809747  1
  O  O281  1  0.86141698  0.49681941  0.25725397  1
  O  O282  1  0.86881264  0.50461040  0.75543045  1
  O  O283  1  0.11252907  0.38455599  0.38155561  1
  O  O284  1  0.12153423  0.36441506  0.87418459  1
  O  O285  1  0.11122723  0.87457697  0.37737955  1
  O  O286  1  0.12094280  0.87161395  0.86817401  1
  O  O287  1  0.61650766  0.36946824  0.36996082  1
  O  O288  1  0.61186646  0.36639319  0.87301835  1
  O  O289  1  0.62085666  0.86440016  0.36795785  1
  O  O290  1  0.62284910  0.86717887  0.87157619  1
  O  O291  1  0.38493113  0.13265706  0.12396107  1
  O  O292  1  0.36229423  0.14288778  0.61930881  1
  O  O293  1  0.38179690  0.62577457  0.13127688  1
  O  O294  1  0.38126989  0.63109222  0.62852507  1
  O  O295  1  0.88927341  0.11895560  0.12788784  1
  O  O296  1  0.88314080  0.13694823  0.62362911  1
  O  O297  1  0.87110135  0.63851948  0.11967287  1
  O  O298  1  0.87776494  0.63011891  0.63059614  1
  O  O299  1  0.25682262  0.26241701  0.12844886  1
  O  O300  1  0.25472865  0.26521315  0.62754998  1
  O  O301  1  0.24820324  0.74857292  0.11415335  1
  O  O302  1  0.25764682  0.75680689  0.62536810  1
  O  O303  1  0.74606685  0.26194352  0.12971046  1
  O  O304  1  0.75824506  0.25116697  0.61957588  1
  O  O305  1  0.76006063  0.75321188  0.12139057  1
  O  O306  1  0.75884641  0.74885751  0.61621519  1
  O  O307  1  0.25005880  0.23955706  0.36693665  1
  O  O308  1  0.24302993  0.24326076  0.87630064  1
  O  O309  1  0.25587457  0.73764104  0.37288080  1
  O  O310  1  0.23876903  0.75837929  0.88013715  1
  O  O311  1  0.73940880  0.25978584  0.38297915  1
  O  O312  1  0.73616024  0.25331505  0.87050208  1
  O  O313  1  0.73999162  0.75120035  0.37985826  1
  O  O314  1  0.74666755  0.74137063  0.88230079  1
  O  O315  1  0.01156925  0.12424485  0.00854832  1
  O  O316  1  0.01160683  0.12154195  0.50281834  1
  O  O317  1  0.00577727  0.61305791  -0.00384684  1
  O  O318  1  0.00991401  0.61821895  0.50083446  1
  O  O319  1  0.50443540  0.12153182  0.01025961  1
  O  O320  1  0.50492308  0.12198276  0.51164708  1
  O  O321  1  0.50543530  0.61921359  0.00403692  1
  O  O322  1  0.51071794  0.62950828  0.50874706  1
  O  O323  1  0.49058719  0.37265550  0.48668877  1
  O  O324  1  0.49830999  0.38992653  1.00379649  1
  O  O325  1  0.50444316  0.87041112  0.48384608  1
  O  O326  1  0.49670081  0.87370853  0.99454077  1
  O  O327  1  0.99428223  0.38084568  0.49044725  1
  O  O328  1  0.99165101  0.38101171  0.99679435  1
  O  O329  1  0.99329051  0.87895081  0.48898462  1
  O  O330  1  0.99599540  0.87313158  0.99375179  1
  O  O331  1  0.48970161  0.49030312  0.36892485  1
  O  O332  1  0.50405222  0.48765329  0.88586154  1
  O  O333  1  0.50087121  0.99056039  0.37327310  1
  O  O334  1  0.50327060  0.98652573  0.87915468  1
  O  O335  1  0.99192569  0.49077493  0.37794620  1
  O  O336  1  0.99350951  0.49233912  0.88299595  1
  O  O337  1  0.99931438  0.98872339  0.37597754  1
  O  O338  1  1.00268754  0.98684519  0.87720987  1
  O  O339  1  0.01203113  0.00955221  0.12844085  1
  O  O340  1  0.01027296  0.00547682  0.61776417  1
  O  O341  1  -0.00310352  0.49210999  0.11578158  1
  O  O342  1  0.01177314  0.49935522  0.62144551  1
  O  O343  1  0.50690684  0.00857700  0.12963655  1
  O  O344  1  0.51954214  -0.02377158  0.61499383  1
  O  O345  1  0.50098785  0.50812798  0.11699179  1
  O  O346  1  0.50488547  0.51319819  0.62762840  1
  O  O347  1  0.25220745  0.38700742  0.24056993  1
  O  O348  1  0.24305200  0.38424585  0.74342787  1
  O  O349  1  0.24974346  0.88941251  0.25052862  1
  O  O350  1  0.23175796  0.86849038  0.73672083  1
  O  O351  1  0.74357957  0.37836421  0.24160676  1
  O  O352  1  0.75623716  0.38894446  0.74312875  1
  O  O353  1  0.74464458  0.87935883  0.24449027  1
  O  O354  1  0.74121309  0.87588075  0.74957807  1
  O  O355  1  0.24362443  0.11978237  0.26297666  1
  O  O356  1  0.24457831  0.12472789  0.76601466  1
  O  O357  1  0.25686655  0.61981369  0.25739341  1
  O  O358  1  0.25745670  0.61812735  0.74759145  1
  O  O359  1  0.75123012  0.11202416  0.24263843  1
  O  O360  1  0.75517665  0.11354430  0.75347621  1
  O  O361  1  0.74169398  0.60725037  0.24807198  1
  O  O362  1  0.75598145  0.61596334  0.75494323  1
  O  O363  1  0.36085787  0.12739735  0.37894065  1
  O  O364  1  0.36190228  0.12770639  0.88228731  1
  O  O365  1  0.37208564  0.61895606  0.37294241  1
  O  O366  1  0.38141693  0.63338960  0.85912325  1
  O  O367  1  0.87853772  0.12019447  0.36978739  1
  O  O368  1  0.87497670  0.11967612  0.87158262  1
  O  O369  1  0.87642682  0.60989699  0.38490271  1
  O  O370  1  0.86859198  0.61881903  0.87173184  1
  O  O371  1  0.13956256  0.38032542  0.12445077  1
  O  O372  1  0.13008193  0.38207365  0.62890377  1
  O  O373  1  0.12117108  0.89287027  0.11986767  1
  O  O374  1  0.12536954  0.88362009  0.62946103  1
  O  O375  1  0.63280184  0.37522552  0.13308202  1
  O  O376  1  0.62022124  0.39026835  0.61495259  1
  O  O377  1  0.63062167  0.87774986  0.13221998  1
  O  O378  1  0.63208083  0.87294673  0.63488191  1
  O  O379  1  0.10878155  0.25248935  0.25215110  1
  O  O380  1  0.12072633  0.25717206  0.75692933  1
  O  O381  1  0.11088382  0.74839911  0.24299695  1
  O  O382  1  0.11863147  0.75452366  0.75758481  1
  O  O383  1  0.61850391  0.25943213  0.25671389  1
  O  O384  1  0.62291121  0.24977451  0.76041512  1
  O  O385  1  0.62274261  0.75100032  0.25597511  1
  O  O386  1  0.62256194  0.75353376  0.75404861  1
  O  O387  1  0.38752296  0.25567688  0.24259344  1
  O  O388  1  0.36767104  0.25287980  0.73597400  1
  O  O389  1  0.38327045  0.74170652  0.24800199  1
  O  O390  1  0.38128543  0.74838186  0.73842883  1
  O  O391  1  0.89417379  0.25625983  0.25464256  1
  O  O392  1  0.88220796  0.25148425  0.74033342  1
  O  O393  1  0.87814587  0.74986195  0.23894530  1
  O  O394  1  0.87936562  0.74481169  0.74530568  1
  O  O395  1  0.37134380  0.49335645  0.48956113  1
  O  O396  1  0.38749506  0.50738089  0.99878307  1
  O  O397  1  0.37731841  0.99343208  0.49260056  1
  O  O398  1  0.37479025  0.99130575  0.99552182  1
  O  O399  1  0.87936360  0.49258114  0.49735931  1
  O  O400  1  0.87973908  0.49410371  0.99496910  1
  O  O401  1  0.88073420  0.99079795  0.50072889  1
  O  O402  1  0.88109608  0.98438754  1.00241454  1
  O  O403  1  0.12662602  0.00998017  0.01248113  1
  O  O404  1  0.11905289  0.00806737  0.50549889  1
  O  O405  1  0.11341420  0.50637412  0.00043256  1
  O  O406  1  0.12011393  0.50741747  0.51036128  1
  O  O407  1  0.62069380  -0.00991840  0.01643340  1
  O  O408  1  0.63062913  0.00070224  0.50855466  1
  O  O409  1  0.61842300  0.50934951  -0.00019387  1
  O  O410  1  0.63271726  0.51140144  0.50420005  1
  O  O411  1  0.36393759  0.36911609  0.13072751  1
  O  O412  1  0.36655179  0.37136227  0.61661544  1
  O  O413  1  0.38443937  0.87127150  0.11121740  1
  O  O414  1  0.36108996  0.86632901  0.62135757  1
  O  O415  1  0.86027509  0.37577650  0.11889022  1
  O  O416  1  0.87895251  0.36435904  0.61325380  1
  O  O417  1  0.87233570  0.86605360  0.11943845  1
  O  O418  1  0.87686792  0.86605259  0.61166460  1
  O  O419  1  0.12924012  0.12549854  0.38390779  1
  O  O420  1  0.12855545  0.13550469  0.88301159  1
  O  O421  1  0.13544800  0.62171765  0.38856860  1
  O  O422  1  0.11958787  0.63720806  0.88704765  1
  O  O423  1  0.62167218  0.13836340  0.37470259  1
  O  O424  1  0.62277050  0.14022644  0.87418249  1
  O  O425  1  0.61876862  0.63181702  0.38278521  1
  O  O426  1  0.62774588  0.62757126  0.88047755  1
