# generated using pymatgen
data_V85Zn86O256
_symmetry_space_group_name_H-M   'P 1'
_cell_length_a   16.96326264
_cell_length_b   16.97625646
_cell_length_c   16.96457086
_cell_angle_alpha   89.92623442
_cell_angle_beta   89.99069682
_cell_angle_gamma   90.04577719
_symmetry_Int_Tables_number   1
_chemical_formula_structural   V85Zn86O256
_chemical_formula_sum   'V85 Zn86 O256'
_cell_volume   4885.32755151
_cell_formula_units_Z   1
loop_
 _symmetry_equiv_pos_site_id
 _symmetry_equiv_pos_as_xyz
  1  'x, y, z'
loop_
 _atom_site_type_symbol
 _atom_site_label
 _atom_site_symmetry_multiplicity
 _atom_site_fract_x
 _atom_site_fract_y
 _atom_site_fract_z
 _atom_site_occupancy
  V  V0  1  0.12694498  0.62249502  0.50030836  1
  V  V1  1  0.25837442  0.12734778  0.87282009  1
  V  V2  1  0.00071300  0.87395015  0.87572167  1
  V  V3  1  -0.00412818  -0.00103863  0.00201805  1
  V  V4  1  0.11839402  0.37582952  0.75568817  1
  V  V5  1  0.25294647  0.12660993  0.37105119  1
  V  V6  1  -0.00042563  0.12799873  0.62648942  1
  V  V7  1  0.62562375  0.24516375  0.87268458  1
  V  V8  1  0.12556000  0.12681334  0.49827444  1
  V  V9  1  0.50159855  0.00863080  0.49599061  1
  V  V10  1  0.12394094  0.87569670  0.25252226  1
  V  V11  1  0.87649759  0.87372056  0.00064726  1
  V  V12  1  -0.00204530  0.12649985  0.12705903  1
  V  V13  1  0.25131448  0.74831940  0.49899178  1
  V  V14  1  0.38438012  0.25412643  0.13042798  1
  V  V15  1  0.87535305  0.37633032  -0.00646373  1
  V  V16  1  -0.00032181  0.49615305  0.50174028  1
  V  V17  1  0.87204536  0.11103659  0.25374060  1
  V  V18  1  -0.00055284  0.24569819  0.75286344  1
  V  V19  1  0.51463625  0.11549006  0.12427788  1
  V  V20  1  0.12190801  0.49703104  0.62532373  1
  V  V21  1  0.25950610  0.62217819  0.37170980  1
  V  V22  1  0.75364105  0.61555771  0.87503857  1
  V  V23  1  0.12082082  0.12786416  -0.00115097  1
  V  V24  1  0.37643524  0.74896721  0.62457476  1
  V  V25  1  0.12640804  0.74932898  0.37345727  1
  V  V26  1  -0.00378449  0.49770797  -0.01186406  1
  V  V27  1  0.62384277  0.62656198  -0.00025311  1
  V  V28  1  0.12669743  0.61686585  0.00354356  1
  V  V29  1  0.50447827  0.37581401  0.87338766  1
  V  V30  1  0.87535846  0.49658325  0.37752061  1
  V  V31  1  0.25544328  0.25495144  0.50623450  1
  V  V32  1  0.51195557  0.76450872  0.26471839  1
  V  V33  1  0.87045460  0.35638890  0.50231701  1
  V  V34  1  0.74853159  0.50002665  0.25242999  1
  V  V35  1  0.50553051  0.61822684  0.62854527  1
  V  V36  1  0.87824784  0.00817989  0.86194926  1
  V  V37  1  0.25129915  0.50084234  0.23819333  1
  V  V38  1  0.74814341  0.37610263  0.12936410  1
  V  V39  1  0.88797981  0.86769911  0.48613380  1
  V  V40  1  0.74623240  0.62304519  0.37999337  1
  V  V41  1  0.37312730  0.88019435  0.49270851  1
  V  V42  1  0.24997134  0.87480264  0.62553523  1
  V  V43  1  0.25266265  0.75176884  0.00094261  1
  V  V44  1  0.11675407  0.25262590  0.87773049  1
  V  V45  1  0.82479786  0.17579121  0.69018873  1
  V  V46  1  0.74093276  -0.01257458  0.74449072  1
  V  V47  1  0.63287389  0.48698440  0.63482800  1
  V  V48  1  0.62200661  0.50009830  0.12783033  1
  V  V49  1  0.00420023  0.61556016  0.12592773  1
  V  V50  1  0.37988980  0.88506446  -0.00131295  1
  V  V51  1  0.12836055  0.25655400  0.37171892  1
  V  V52  1  0.87589606  0.62020856  0.75117421  1
  V  V53  1  0.62854877  0.61715806  0.50089797  1
  V  V54  1  0.37859568  0.48899566  0.37557757  1
  V  V55  1  0.74879808  0.74871480  -0.00096500  1
  V  V56  1  0.25336949  0.00320081  0.24524281  1
  V  V57  1  0.00243605  0.75140866  0.25118288  1
  V  V58  1  0.12376452  -0.00064367  0.62655144  1
  V  V59  1  0.87229806  0.25334949  0.13324542  1
  V  V60  1  0.49771717  0.62848890  0.13629364  1
  V  V61  1  0.87559223  0.74878472  0.12486782  1
  V  V62  1  0.25185117  0.87729605  0.12364496  1
  V  V63  1  0.24943763  0.50057865  0.75029204  1
  V  V64  1  0.00072672  -0.00292216  0.48393318  1
  V  V65  1  0.12807764  0.38025958  0.23281852  1
  V  V66  1  0.12831281  0.87477841  0.75184808  1
  V  V67  1  0.47932012  0.12347167  0.63138462  1
  V  V68  1  0.12682507  0.75005363  0.87674845  1
  V  V69  1  0.55966930  0.80759998  0.69157246  1
  V  V70  1  0.00207186  0.37617319  0.37241681  1
  V  V71  1  0.61667292  0.25099798  0.38243455  1
  V  V72  1  0.49751034  0.50235722  -0.00104657  1
  V  V73  1  0.25213280  0.62606290  0.87462061  1
  V  V74  1  0.63117772  0.13202062  0.51114734  1
  V  V75  1  -0.00102886  0.75007471  0.74570429  1
  V  V76  1  0.37997485  0.62921766  0.75167497  1
  V  V77  1  0.87518085  0.62289101  0.25045251  1
  V  V78  1  0.60869364  0.37107011  0.25849109  1
  V  V79  1  0.25104713  0.25848073  0.00685132  1
  V  V80  1  0.50767569  0.87108763  0.87403466  1
  V  V81  1  0.37808306  0.75181415  0.13403100  1
  V  V82  1  0.71991143  0.78248746  0.47983346  1
  V  V83  1  0.48368060  0.25676109  0.74564250  1
  V  V84  1  0.73831089  0.87829904  0.13583851  1
  Zn  Zn85  1  0.37178266  0.37834530  0.00262648  1
  Zn  Zn86  1  0.52989566  0.00794674  -0.00622309  1
  Zn  Zn87  1  0.75225896  0.12755671  0.38297862  1
  Zn  Zn88  1  0.38349184  0.00589413  0.86886235  1
  Zn  Zn89  1  0.25524096  0.36765143  0.63411722  1
  Zn  Zn90  1  0.37659634  0.49954971  0.87362719  1
  Zn  Zn91  1  0.75265910  0.49015664  0.75741286  1
  Zn  Zn92  1  0.87068648  0.74915212  0.61742590  1
  Zn  Zn93  1  0.75818897  0.87324525  0.62484968  1
  Zn  Zn94  1  0.37482704  -0.00188597  0.37110792  1
  Zn  Zn95  1  0.00142802  0.25196229  0.24950354  1
  Zn  Zn96  1  0.12464802  0.00051553  0.12308477  1
  Zn  Zn97  1  0.70907975  0.08813233  0.91477321  1
  Zn  Zn98  1  0.73559937  0.24705400  0.00520502  1
  Zn  Zn99  1  0.38914398  0.36703742  0.50806305  1
  Zn  Zn100  1  -0.00256484  0.62335472  0.62438953  1
  Zn  Zn101  1  0.25396614  0.00972880  0.74833454  1
  Zn  Zn102  1  0.62239882  0.74712786  0.86316265  1
  Zn  Zn103  1  0.75402722  0.35751171  0.62757242  1
  Zn  Zn104  1  0.50378841  0.49023429  0.49647578  1
  Zn  Zn105  1  0.38372748  0.12965925  0.24839213  1
  Zn  Zn106  1  0.74121706  -0.00430221  0.26301709  1
  Zn  Zn107  1  0.18816329  0.19118593  0.18461543  1
  Zn  Zn108  1  0.18559398  0.18774022  0.68927943  1
  Zn  Zn109  1  0.19048868  0.68457087  0.18640382  1
  Zn  Zn110  1  0.18704101  0.68605950  0.68632476  1
  Zn  Zn111  1  0.68735268  0.19488267  0.19923209  1
  Zn  Zn112  1  0.66117875  0.18237511  0.69728510  1
  Zn  Zn113  1  0.68451245  0.69103652  0.18950982  1
  Zn  Zn114  1  0.70035713  0.68389935  0.67372092  1
  Zn  Zn115  1  0.31086910  0.31642721  0.30763538  1
  Zn  Zn116  1  0.31108534  0.31649428  0.82082279  1
  Zn  Zn117  1  0.31303142  0.81195906  0.31052388  1
  Zn  Zn118  1  0.31849145  0.81603304  0.81184849  1
  Zn  Zn119  1  0.80590588  0.30841515  0.31842592  1
  Zn  Zn120  1  0.80878642  0.31073086  0.81562489  1
  Zn  Zn121  1  0.81755287  0.81074277  0.31547506  1
  Zn  Zn122  1  0.81460232  0.80994276  0.81341291  1
  Zn  Zn123  1  0.19074968  0.43748099  0.43407696  1
  Zn  Zn124  1  0.18520836  0.43859145  0.93604100  1
  Zn  Zn125  1  0.18727402  0.93816944  0.43474107  1
  Zn  Zn126  1  0.18814784  0.94194131  0.93885687  1
  Zn  Zn127  1  0.68825740  0.43217052  0.44242326  1
  Zn  Zn128  1  0.68354093  0.43383060  0.94017111  1
  Zn  Zn129  1  0.66634426  0.95675210  0.40123753  1
  Zn  Zn130  1  0.69269137  0.92348649  0.93317250  1
  Zn  Zn131  1  0.31574413  0.07146222  0.06152977  1
  Zn  Zn132  1  0.30921023  0.06503704  0.56116911  1
  Zn  Zn133  1  0.31753374  0.56772283  0.06233636  1
  Zn  Zn134  1  0.31418969  0.55531491  0.56397724  1
  Zn  Zn135  1  0.70087629  0.06297633  0.07477664  1
  Zn  Zn136  1  0.80916550  0.04381372  0.55097540  1
  Zn  Zn137  1  0.81345373  0.56024450  0.06242531  1
  Zn  Zn138  1  0.81569402  0.55953380  0.56446304  1
  Zn  Zn139  1  0.43033570  0.44054726  0.18676301  1
  Zn  Zn140  1  0.43620781  0.43757217  0.68554164  1
  Zn  Zn141  1  0.44427204  0.94107490  0.18707899  1
  Zn  Zn142  1  0.43006824  0.94439241  0.68464191  1
  Zn  Zn143  1  0.93864745  0.43819489  0.18660379  1
  Zn  Zn144  1  0.91228793  0.41696658  0.70408458  1
  Zn  Zn145  1  0.93671537  0.93414329  0.18557051  1
  Zn  Zn146  1  0.93868922  0.93462967  0.68184778  1
  Zn  Zn147  1  0.06859359  0.06655539  0.30701066  1
  Zn  Zn148  1  0.06542706  0.06457671  0.81293542  1
  Zn  Zn149  1  0.06847021  0.56087505  0.31245606  1
  Zn  Zn150  1  0.06157562  0.56453589  0.81351442  1
  Zn  Zn151  1  0.56390766  0.06868572  0.31180966  1
  Zn  Zn152  1  0.55507523  0.06081652  0.80619569  1
  Zn  Zn153  1  0.56147406  0.56364047  0.31189114  1
  Zn  Zn154  1  0.56646012  0.56309939  0.81163013  1
  Zn  Zn155  1  0.43877158  0.18919355  0.43484438  1
  Zn  Zn156  1  0.44184088  0.19048804  0.94536554  1
  Zn  Zn157  1  0.43988233  0.68161035  0.43996238  1
  Zn  Zn158  1  0.43864971  0.69333979  0.93979903  1
  Zn  Zn159  1  0.94460648  0.18447144  0.43297499  1
  Zn  Zn160  1  0.88144505  0.15153258  0.98082328  1
  Zn  Zn161  1  0.94125180  0.68187559  0.43301122  1
  Zn  Zn162  1  0.93785850  0.68568127  0.93564847  1
  Zn  Zn163  1  0.05606863  0.31203046  0.05945692  1
  Zn  Zn164  1  0.06271151  0.31286319  0.56420355  1
  Zn  Zn165  1  0.06529587  0.80899964  0.06632209  1
  Zn  Zn166  1  0.06246794  0.81249716  0.56126387  1
  Zn  Zn167  1  0.55945118  0.31272589  0.06148969  1
  Zn  Zn168  1  0.55986004  0.31232210  0.56699748  1
  Zn  Zn169  1  0.56112010  0.81246640  0.06094878  1
  Zn  Zn170  1  0.56443110  0.82165985  0.51725302  1
  O  O171  1  0.11203953  0.12676287  0.11927813  1
  O  O172  1  0.11939322  0.11784452  0.61896992  1
  O  O173  1  0.11651389  0.63130693  0.11428759  1
  O  O174  1  0.12238027  0.61629596  0.61798557  1
  O  O175  1  0.62014931  0.12934922  0.12893960  1
  O  O176  1  0.60727153  0.12734651  0.61384686  1
  O  O177  1  0.61820536  0.61905255  0.12048193  1
  O  O178  1  0.62146114  0.61331329  0.62102730  1
  O  O179  1  0.36924122  0.38690428  0.37814832  1
  O  O180  1  0.38685063  0.38024274  0.88145206  1
  O  O181  1  0.36458988  0.87723799  0.38911209  1
  O  O182  1  0.38688289  0.87276574  0.88397574  1
  O  O183  1  0.88034221  0.37803834  0.38191397  1
  O  O184  1  0.86961478  0.36816115  0.89584053  1
  O  O185  1  0.88693469  0.86847526  0.38624488  1
  O  O186  1  0.88336662  0.87845736  0.88148105  1
  O  O187  1  0.24911673  0.01069721  0.36614052  1
  O  O188  1  0.24629659  0.01961309  0.87797271  1
  O  O189  1  0.25755460  0.50591623  0.36848807  1
  O  O190  1  0.25109402  0.50934234  0.86891764  1
  O  O191  1  0.76165854  0.01446839  0.37782750  1
  O  O192  1  0.76437602  -0.00399088  0.86235001  1
  O  O193  1  0.75618874  0.50432452  0.37156047  1
  O  O194  1  0.74378439  0.51116920  0.87592891  1
  O  O195  1  0.25731678  0.50806581  0.13908979  1
  O  O196  1  0.23522419  0.50374289  0.63336397  1
  O  O197  1  0.24732007  0.99863076  0.12977275  1
  O  O198  1  0.23685267  0.99740603  0.62359782  1
  O  O199  1  0.74271766  0.49585237  0.13154616  1
  O  O200  1  0.73804982  0.50115023  0.62763125  1
  O  O201  1  0.75075677  0.98222693  0.13937223  1
  O  O202  1  0.75565973  0.99096520  0.63941828  1
  O  O203  1  0.00943853  0.37786171  0.25613274  1
  O  O204  1  0.00276762  0.35660158  0.74462876  1
  O  O205  1  0.01073273  0.86359959  0.24181474  1
  O  O206  1  0.00787023  0.86775323  0.75505109  1
  O  O207  1  0.51175733  0.38472083  0.24883074  1
  O  O208  1  0.49363500  0.36477096  0.75687903  1
  O  O209  1  0.49609822  0.86308896  0.25144422  1
  O  O210  1  0.50211709  0.87132736  0.75034824  1
  O  O211  1  0.49903242  0.11980038  0.23215893  1
  O  O212  1  0.49793829  0.13347392  0.73738599  1
  O  O213  1  0.50303917  0.63247004  0.23877179  1
  O  O214  1  0.49374306  0.62148150  0.73900443  1
  O  O215  1  0.99444381  0.12731529  0.24300734  1
  O  O216  1  1.00720116  0.13434044  0.74091549  1
  O  O217  1  0.99848576  0.62682533  0.24218366  1
  O  O218  1  0.99546647  0.63524442  0.75115858  1
  O  O219  1  0.36628237  0.25262447  0.00984383  1
  O  O220  1  0.35778821  0.25050500  0.49271179  1
  O  O221  1  0.37027652  0.76230320  0.00891765  1
  O  O222  1  0.37211713  0.75668696  0.50554809  1
  O  O223  1  0.87292048  0.26283857  0.01829425  1
  O  O224  1  0.87882122  0.25806770  0.49029627  1
  O  O225  1  0.86975997  0.75245387  0.00498854  1
  O  O226  1  0.89994187  0.76285303  0.50081720  1
  O  O227  1  0.13031405  0.24487981  0.49089895  1
  O  O228  1  0.12832329  0.24765621  0.99435537  1
  O  O229  1  0.12997821  0.74449230  0.49334627  1
  O  O230  1  0.13148746  0.74140223  0.99547781  1
  O  O231  1  0.62346003  0.23959302  0.49932821  1
  O  O232  1  0.62045196  0.25649038  0.98176287  1
  O  O233  1  0.62298733  0.72403107  0.50479822  1
  O  O234  1  0.63459189  0.74161712  1.00219027  1
  O  O235  1  0.48908966  0.24154440  0.12041950  1
  O  O236  1  0.49842177  0.24408431  0.64026535  1
  O  O237  1  0.49480768  0.74597530  0.13068000  1
  O  O238  1  0.49886893  0.74480886  0.62924397  1
  O  O239  1  0.99217481  0.24327190  0.12800918  1
  O  O240  1  1.00615466  0.23470377  0.62986274  1
  O  O241  1  0.99643172  0.73953811  0.13360961  1
  O  O242  1  1.00805649  0.74680769  0.63911664  1
  O  O243  1  0.01533304  0.25520745  0.37147060  1
  O  O244  1  0.01490042  0.24350468  0.86683024  1
  O  O245  1  0.01036483  0.73902411  0.35767698  1
  O  O246  1  0.00633209  0.75472373  0.86724348  1
  O  O247  1  0.51487336  0.24662624  0.37365355  1
  O  O248  1  0.50213322  0.25682820  0.86951494  1
  O  O249  1  0.49405702  0.74565659  0.36298938  1
  O  O250  1  0.50322480  0.76062038  0.87474562  1
  O  O251  1  0.24370682  0.13451711  0.49070746  1
  O  O252  1  0.24124999  0.13564490  0.99285735  1
  O  O253  1  0.24552576  0.62899268  0.49401112  1
  O  O254  1  0.24348697  0.62955064  0.99584144  1
  O  O255  1  0.73332923  0.11946065  0.51022662  1
  O  O256  1  0.76620607  0.13348427  1.00349231  1
  O  O257  1  0.74437249  0.61825157  0.49219237  1
  O  O258  1  0.74685799  0.62968463  0.99470408  1
  O  O259  1  0.24932510  0.36285577  -0.00665574  1
  O  O260  1  0.24438147  0.35871004  0.49973345  1
  O  O261  1  0.25487113  0.87108519  0.00502953  1
  O  O262  1  0.25261650  0.86967254  0.50621834  1
  O  O263  1  0.75659532  0.37652209  0.01370635  1
  O  O264  1  0.76613371  0.37328305  0.50511859  1
  O  O265  1  0.75785280  0.86451126  0.00957314  1
  O  O266  1  0.78005337  0.87640401  0.50078656  1
  O  O267  1  0.13846712  0.49270582  0.25128583  1
  O  O268  1  0.12472551  0.49353406  0.74526578  1
  O  O269  1  0.13466884  0.99226223  0.24652403  1
  O  O270  1  0.12920488  0.99429285  0.74248174  1
  O  O271  1  0.62963369  0.49241854  0.24701002  1
  O  O272  1  0.63171246  0.50026395  0.73838381  1
  O  O273  1  0.63077825  0.98265666  0.29321093  1
  O  O274  1  0.64382997  1.00352558  0.75579255  1
  O  O275  1  0.36321498  0.00110009  0.25010585  1
  O  O276  1  0.36424301  -0.00676475  0.75788814  1
  O  O277  1  0.36150264  0.49676217  0.26067045  1
  O  O278  1  0.36916098  0.51456522  0.75113670  1
  O  O279  1  0.87888977  0.01042990  0.24874828  1
  O  O280  1  0.87402220  -0.00671881  0.75931836  1
  O  O281  1  0.86959505  0.50494601  0.25637445  1
  O  O282  1  0.88272615  0.51851305  0.74918762  1
  O  O283  1  0.12164187  0.36992651  0.36778684  1
  O  O284  1  0.12413405  0.36918487  0.86367214  1
  O  O285  1  0.13280270  0.86695523  0.36006418  1
  O  O286  1  0.12097421  0.87062750  0.87197770  1
  O  O287  1  0.62922958  0.37133958  0.36440612  1
  O  O288  1  0.61113169  0.37047369  0.87580094  1
  O  O289  1  0.64649554  0.85146708  0.44050491  1
  O  O290  1  0.61384113  0.86632820  0.87486321  1
  O  O291  1  0.38433459  0.13561684  0.12706127  1
  O  O292  1  0.38051353  0.13011136  0.62386660  1
  O  O293  1  0.38686732  0.63979473  0.11843427  1
  O  O294  1  0.38542370  0.62780769  0.62899745  1
  O  O295  1  0.88639263  0.13619962  0.13729374  1
  O  O296  1  0.88026592  0.12037643  0.62148870  1
  O  O297  1  0.88200065  0.62964225  0.13073042  1
  O  O298  1  0.87761138  0.63137628  0.63226665  1
  O  O299  1  0.26178501  0.24329185  0.11456127  1
  O  O300  1  0.24205677  0.24820790  0.60950430  1
  O  O301  1  0.25885917  0.75488147  0.12077892  1
  O  O302  1  0.25458118  0.75303426  0.61647441  1
  O  O303  1  0.75429282  0.26097348  0.12748966  1
  O  O304  1  0.75762118  0.23743220  0.64402687  1
  O  O305  1  0.75636784  0.75071934  0.11591579  1
  O  O306  1  0.74814342  0.75742763  0.59433126  1
  O  O307  1  0.24215475  0.24706254  0.37893482  1
  O  O308  1  0.24059533  0.24274684  0.88254635  1
  O  O309  1  0.24652642  0.74113847  0.37804256  1
  O  O310  1  0.24714928  0.74572865  0.88173803  1
  O  O311  1  0.73008232  0.24070666  0.36643714  1
  O  O312  1  0.73083643  0.25425077  0.87497943  1
  O  O313  1  0.76025274  0.73970977  0.39077650  1
  O  O314  1  0.74825111  0.74537205  0.88771269  1
  O  O315  1  -0.00554441  0.11692102  0.01004794  1
  O  O316  1  0.00549215  0.11476358  0.50466275  1
  O  O317  1  0.00617718  0.61986684  0.00591492  1
  O  O318  1  0.00838359  0.61274300  0.49992742  1
  O  O319  1  0.49850794  0.12113627  0.01673633  1
  O  O320  1  0.49755430  0.12334372  0.51253633  1
  O  O321  1  0.50584769  0.62098746  0.00650555  1
  O  O322  1  0.50622701  0.61572723  0.51274984  1
  O  O323  1  0.50150679  0.37737478  0.49954000  1
  O  O324  1  0.49932617  0.38795973  0.99440583  1
  O  O325  1  0.48529055  0.89874127  0.50563262  1
  O  O326  1  0.49577732  0.88058622  0.99262718  1
  O  O327  1  0.99703982  0.37888868  0.49084130  1
  O  O328  1  0.98545929  0.38408077  1.00605047  1
  O  O329  1  1.00272970  0.88932079  0.49979951  1
  O  O330  1  0.99882877  0.87963485  0.99759338  1
  O  O331  1  0.48072355  0.50952096  0.37283892  1
  O  O332  1  0.50196572  0.49625068  0.88252755  1
  O  O333  1  0.48816211  1.01778166  0.39341268  1
  O  O334  1  0.50089131  0.99048203  0.87801805  1
  O  O335  1  0.99640544  0.49507023  0.38033836  1
  O  O336  1  0.99936403  0.50528000  0.88887073  1
  O  O337  1  1.01070857  1.00547285  0.38635621  1
  O  O338  1  0.99456730  0.99371514  0.87712942  1
  O  O339  1  -0.00005322  0.00624587  0.11692500  1
  O  O340  1  0.01098102  0.00925831  0.62244261  1
  O  O341  1  -0.00406135  0.51260535  0.11696805  1
  O  O342  1  0.01246440  0.49848793  0.61981671  1
  O  O343  1  0.50414427  0.01068960  0.11732342  1
  O  O344  1  0.49028903  0.01696752  0.61642215  1
  O  O345  1  0.50065015  0.50997433  0.12018282  1
  O  O346  1  0.51590586  0.50473929  0.62768504  1
  O  O347  1  0.24120617  0.39022744  0.25064793  1
  O  O348  1  0.23950819  0.38275242  0.75371785  1
  O  O349  1  0.24550329  0.88271226  0.24293673  1
  O  O350  1  0.24192225  0.87070311  0.74264006  1
  O  O351  1  0.74526473  0.38206688  0.24154217  1
  O  O352  1  0.79522559  0.38584527  0.73397257  1
  O  O353  1  0.75526051  0.86354276  0.23722027  1
  O  O354  1  0.75176138  0.88186533  0.74717995  1
  O  O355  1  0.24696482  0.11731395  0.25464253  1
  O  O356  1  0.24332655  0.12953256  0.76862610  1
  O  O357  1  0.24309447  0.61223236  0.25912991  1
  O  O358  1  0.25564372  0.62032757  0.75521274  1
  O  O359  1  0.76664378  0.12226508  0.24257977  1
  O  O360  1  0.75862912  0.11589726  0.74079258  1
  O  O361  1  0.75400501  0.62159733  0.25838399  1
  O  O362  1  0.75955547  0.62597863  0.75749486  1
  O  O363  1  0.36134985  0.12903311  0.36839489  1
  O  O364  1  0.36070465  0.12720908  0.88492044  1
  O  O365  1  0.36229819  0.61890158  0.37842712  1
  O  O366  1  0.37146670  0.62708877  0.86745112  1
  O  O367  1  0.87855708  0.13528457  0.35423566  1
  O  O368  1  0.88174341  0.10647977  0.87369458  1
  O  O369  1  0.86665698  0.61715092  0.37036810  1
  O  O370  1  0.86353392  0.63170465  0.86729332  1
  O  O371  1  0.12016477  0.37199852  0.13414154  1
  O  O372  1  0.12813261  0.38034224  0.63714017  1
  O  O373  1  0.13368776  0.87515037  0.13439351  1
  O  O374  1  0.12926894  0.88223206  0.62998111  1
  O  O375  1  0.62939206  0.37961161  0.13466174  1
  O  O376  1  0.63499411  0.38375172  0.62529965  1
  O  O377  1  0.64069555  0.86872778  0.12190546  1
  O  O378  1  0.61168243  0.86077122  0.62471477  1
  O  O379  1  0.12739054  0.26106042  0.25572957  1
  O  O380  1  0.11907563  0.25774681  0.75627966  1
  O  O381  1  0.12146150  0.75592339  0.25138202  1
  O  O382  1  0.11981050  0.75326499  0.75783881  1
  O  O383  1  0.62021953  0.26660052  0.25614001  1
  O  O384  1  0.60754043  0.25508709  0.76493880  1
  O  O385  1  0.61128805  0.75051596  0.25209462  1
  O  O386  1  0.62679711  0.74815007  0.74153917  1
  O  O387  1  0.36741849  0.24967488  0.23418354  1
  O  O388  1  0.38520103  0.25172135  0.75819628  1
  O  O389  1  0.37982271  0.75398341  0.23758697  1
  O  O390  1  0.36825795  0.73651487  0.74094763  1
  O  O391  1  0.87742458  0.25405118  0.24127362  1
  O  O392  1  0.88104980  0.23566185  0.75527785  1
  O  O393  1  0.88499968  0.74187961  0.24651069  1
  O  O394  1  0.88432764  0.74320104  0.74711425  1
  O  O395  1  0.37311776  0.49993435  0.48374080  1
  O  O396  1  0.38697919  0.50237069  0.99825456  1
  O  O397  1  0.37501097  0.99496900  0.49819320  1
  O  O398  1  0.36859111  0.98823240  0.99625918  1
  O  O399  1  0.88461945  0.49459287  0.49460423  1
  O  O400  1  0.88070281  0.48610133  1.00517951  1
  O  O401  1  0.89570038  0.98870624  0.50048331  1
  O  O402  1  0.88804999  0.99167231  0.98683871  1
  O  O403  1  0.11047866  0.00725664  -0.00059908  1
  O  O404  1  0.11822402  0.00478558  0.50568026  1
  O  O405  1  0.11764793  0.51068079  -0.00251549  1
  O  O406  1  0.12164295  0.50040019  0.50680198  1
  O  O407  1  0.64619247  0.01148600  -0.01296566  1
  O  O408  1  0.60590764  0.01433471  0.49794902  1
  O  O409  1  0.61490209  0.50538388  0.00793254  1
  O  O410  1  0.62608194  0.50392153  0.51079026  1
  O  O411  1  0.38189757  0.36030509  0.12074243  1
  O  O412  1  0.36335517  0.39058329  0.61716947  1
  O  O413  1  0.37182225  0.87158574  0.11754145  1
  O  O414  1  0.36737245  0.86830819  0.61597887  1
  O  O415  1  0.86585599  0.37190104  0.12409899  1
  O  O416  1  0.88517916  0.36872022  0.60261656  1
  O  O417  1  0.87081063  0.86612571  0.11787194  1
  O  O418  1  0.88215723  0.86696348  0.61305614  1
  O  O419  1  0.13506515  0.13519596  0.37603531  1
  O  O420  1  0.13013058  0.13336234  0.88296377  1
  O  O421  1  0.13561610  0.62847043  0.38180797  1
  O  O422  1  0.13116741  0.63134284  0.88303927  1
  O  O423  1  0.62213298  0.13415968  0.39428049  1
  O  O424  1  0.61908166  0.13952992  0.86711056  1
  O  O425  1  0.63837107  0.61452642  0.38273853  1
  O  O426  1  0.63365049  0.62940595  0.88047619  1
