# generated using pymatgen
data_V85Zn86O256
_symmetry_space_group_name_H-M   'P 1'
_cell_length_a   16.93360126
_cell_length_b   16.93903286
_cell_length_c   16.93780161
_cell_angle_alpha   90.04002509
_cell_angle_beta   90.07075884
_cell_angle_gamma   89.98488450
_symmetry_Int_Tables_number   1
_chemical_formula_structural   V85Zn86O256
_chemical_formula_sum   'V85 Zn86 O256'
_cell_volume   4858.41410601
_cell_formula_units_Z   1
loop_
 _symmetry_equiv_pos_site_id
 _symmetry_equiv_pos_as_xyz
  1  'x, y, z'
loop_
 _atom_site_type_symbol
 _atom_site_label
 _atom_site_symmetry_multiplicity
 _atom_site_fract_x
 _atom_site_fract_y
 _atom_site_fract_z
 _atom_site_occupancy
  V  V0  1  0.12766707  0.12225221  -0.00188368  1
  V  V1  1  0.00694042  0.62785030  0.12389565  1
  V  V2  1  0.62197805  0.37451297  0.24940723  1
  V  V3  1  0.25243635  0.74605741  0.49641585  1
  V  V4  1  0.12130562  0.87658041  0.73724904  1
  V  V5  1  0.62616176  0.62752799  0.50060950  1
  V  V6  1  0.37623578  0.75605348  0.62534712  1
  V  V7  1  0.62383289  0.24846799  0.37758884  1
  V  V8  1  0.75199278  -0.00120648  0.74614733  1
  V  V9  1  0.24876336  0.50193514  0.74533656  1
  V  V10  1  0.49839019  -0.00608634  0.49891926  1
  V  V11  1  0.62582137  0.50166537  0.12132954  1
  V  V12  1  0.86651875  0.74954808  0.12742276  1
  V  V13  1  0.12913917  0.74159083  0.37410120  1
  V  V14  1  0.36837441  0.74876349  0.12125323  1
  V  V15  1  0.81067808  0.80940335  0.56148508  1
  V  V16  1  0.37190012  -0.00587255  0.36985962  1
  V  V17  1  0.62266847  0.49861207  0.62573675  1
  V  V18  1  0.62017754  0.88264657  0.25158299  1
  V  V19  1  0.49821664  0.24787804  0.25030895  1
  V  V20  1  0.25138492  0.87613790  0.12497246  1
  V  V21  1  0.00902037  0.50239634  -0.00248940  1
  V  V22  1  0.36534841  0.49956885  0.37484583  1
  V  V23  1  0.62434775  -0.00835530  0.62736774  1
  V  V24  1  0.24934217  -0.00016071  0.74099972  1
  V  V25  1  0.87622404  -0.00300018  0.38480938  1
  V  V26  1  0.51078740  0.87205235  0.87642264  1
  V  V27  1  0.13254500  0.12952849  0.50742588  1
  V  V28  1  0.25257209  0.25009311  -0.00398225  1
  V  V29  1  0.74544087  0.64080658  0.87661765  1
  V  V30  1  0.49606535  0.49883877  0.49882785  1
  V  V31  1  0.87280870  0.50105949  0.87779042  1
  V  V32  1  0.49712042  0.36750171  0.87179312  1
  V  V33  1  0.63279838  0.25022977  0.88365586  1
  V  V34  1  0.63432924  0.12139406  0.00642200  1
  V  V35  1  0.24500191  0.63943385  0.87843746  1
  V  V36  1  -0.00096796  0.87530967  0.38348664  1
  V  V37  1  0.44063622  0.18884072  0.69242686  1
  V  V38  1  0.12229192  0.25220066  0.35740003  1
  V  V39  1  0.37164415  0.36175646  0.50071091  1
  V  V40  1  0.75251069  0.24685876  0.50534297  1
  V  V41  1  0.50105702  0.11713543  0.12315004  1
  V  V42  1  0.25448433  0.36365738  0.62127341  1
  V  V43  1  0.61915437  0.12471089  0.51229472  1
  V  V44  1  0.00213351  0.75416456  0.73868422  1
  V  V45  1  0.37454799  0.25172944  0.12434213  1
  V  V46  1  0.74567523  0.50234825  0.25022269  1
  V  V47  1  0.74703610  0.36232546  0.12258363  1
  V  V48  1  0.88473789  0.12922670  0.75277527  1
  V  V49  1  0.93303431  0.29855361  0.18068579  1
  V  V50  1  0.75123245  -0.00087699  0.24828359  1
  V  V51  1  0.25568107  0.12530774  0.86885638  1
  V  V52  1  0.05813557  0.81666499  0.92183881  1
  V  V53  1  0.74252180  0.87536979  0.12314121  1
  V  V54  1  0.62766019  0.64034407  -0.00228273  1
  V  V55  1  0.50916990  0.74986735  0.75309797  1
  V  V56  1  -0.00481400  0.12125120  0.13237482  1
  V  V57  1  0.87680399  0.62935634  0.74359945  1
  V  V58  1  0.62206972  0.75677876  0.37847771  1
  V  V59  1  0.75139559  0.12310907  0.37714972  1
  V  V60  1  0.37172240  0.87245318  -0.00346269  1
  V  V61  1  0.87394669  0.49949735  0.37813982  1
  V  V62  1  0.00191890  -0.00077904  -0.00275586  1
  V  V63  1  0.11881229  0.36923348  0.74720890  1
  V  V64  1  0.37440987  0.37651939  0.00113405  1
  V  V65  1  0.36410595  0.12337352  0.24987699  1
  V  V66  1  0.12979195  0.88012683  0.25657247  1
  V  V67  1  0.49683794  0.75420536  0.25525588  1
  V  V68  1  0.23104579  0.37795774  0.12313014  1
  V  V69  1  0.37461753  0.50134211  0.87539673  1
  V  V70  1  0.38019734  0.00221806  0.86840670  1
  V  V71  1  0.49876813  0.62473365  0.12427036  1
  V  V72  1  0.62127176  0.36468364  0.74921082  1
  V  V73  1  0.23613668  0.49872450  0.24439346  1
  V  V74  1  0.74812049  0.50103564  0.75214464  1
  V  V75  1  0.88896669  0.25050995  0.62843981  1
  V  V76  1  0.86835467  0.86881608  -0.00232564  1
  V  V77  1  0.87152191  0.36187043  -0.00323799  1
  V  V78  1  0.74998381  0.37446502  0.62469154  1
  V  V79  1  0.13323138  0.00263854  0.13171424  1
  V  V80  1  0.37594263  0.62761530  0.75014765  1
  V  V81  1  0.87547785  -0.00413166  0.87420380  1
  V  V82  1  0.36948955  0.62394546  0.25521135  1
  V  V83  1  0.74892192  0.63099255  0.37578875  1
  V  V84  1  0.00509251  0.49837014  0.49848539  1
  Zn  Zn85  1  0.87635914  0.12582361  0.24964568  1
  Zn  Zn86  1  0.49967862  0.62565146  0.62674809  1
  Zn  Zn87  1  0.49617217  0.37403523  0.37395124  1
  Zn  Zn88  1  0.00931650  0.00007675  0.51084831  1
  Zn  Zn89  1  0.00045993  0.36983767  0.36602444  1
  Zn  Zn90  1  0.12547945  0.50202260  0.62245968  1
  Zn  Zn91  1  -0.00311166  0.75072191  0.25432408  1
  Zn  Zn92  1  0.50069607  0.50108577  -0.00121758  1
  Zn  Zn93  1  0.25026595  0.13114490  0.38149071  1
  Zn  Zn94  1  0.87382129  0.62904578  0.25034264  1
  Zn  Zn95  1  0.50350369  -0.00110481  0.00075209  1
  Zn  Zn96  1  0.12724283  0.63445005  -0.00358622  1
  Zn  Zn97  1  0.13113067  0.62199292  0.49993390  1
  Zn  Zn98  1  0.00213770  0.62558692  0.62047867  1
  Zn  Zn99  1  0.63360945  0.86830793  0.75256323  1
  Zn  Zn100  1  -0.00431163  0.37117974  0.86711013  1
  Zn  Zn101  1  0.75591678  0.13119681  0.88072269  1
  Zn  Zn102  1  0.87781014  0.37190160  0.49857235  1
  Zn  Zn103  1  0.24980737  0.88000207  0.61890017  1
  Zn  Zn104  1  0.11970935  0.24251707  0.86417878  1
  Zn  Zn105  1  0.37856653  0.87350804  0.49424416  1
  Zn  Zn106  1  0.00827046  0.11963826  0.62953486  1
  Zn  Zn107  1  0.18554190  0.19145365  0.18371880  1
  Zn  Zn108  1  0.19530280  0.18677024  0.68539686  1
  Zn  Zn109  1  0.18755118  0.68852640  0.19038627  1
  Zn  Zn110  1  0.18521384  0.69041147  0.68542798  1
  Zn  Zn111  1  0.68646399  0.18363053  0.18909587  1
  Zn  Zn112  1  0.69164368  0.18327990  0.69137616  1
  Zn  Zn113  1  0.68513663  0.69063374  0.18896750  1
  Zn  Zn114  1  0.69026028  0.68628967  0.68527459  1
  Zn  Zn115  1  0.30493063  0.31481859  0.31250566  1
  Zn  Zn116  1  0.31037411  0.31187151  0.80725404  1
  Zn  Zn117  1  0.30886672  0.81515335  0.31205592  1
  Zn  Zn118  1  0.31542420  0.81755785  0.80773065  1
  Zn  Zn119  1  0.80602468  0.31635038  0.31788843  1
  Zn  Zn120  1  0.81139233  0.31248712  0.81058427  1
  Zn  Zn121  1  0.81133326  0.81361740  0.31744035  1
  Zn  Zn122  1  0.81855176  0.81527735  0.80527790  1
  Zn  Zn123  1  0.18570858  0.42985113  0.43306059  1
  Zn  Zn124  1  0.18866433  0.43819377  0.93119119  1
  Zn  Zn125  1  0.19206359  0.94102707  0.44101373  1
  Zn  Zn126  1  0.19548833  0.94198472  0.93726375  1
  Zn  Zn127  1  0.68628188  0.43657176  0.43768422  1
  Zn  Zn128  1  0.68857732  0.43994079  0.93899548  1
  Zn  Zn129  1  0.68917576  0.93678268  0.44078042  1
  Zn  Zn130  1  0.69027270  0.94258485  0.93734810  1
  Zn  Zn131  1  0.31667775  0.06111319  0.05797210  1
  Zn  Zn132  1  0.31813738  0.07113107  0.56199877  1
  Zn  Zn133  1  0.30761453  0.56359711  0.06202756  1
  Zn  Zn134  1  0.31329101  0.56589783  0.56354865  1
  Zn  Zn135  1  0.81395209  0.05812778  0.06559952  1
  Zn  Zn136  1  0.81656336  0.06130566  0.56795219  1
  Zn  Zn137  1  0.81038410  0.56335220  0.05936280  1
  Zn  Zn138  1  0.81058319  0.56543741  0.56086930  1
  Zn  Zn139  1  0.43426654  0.43792708  0.18648436  1
  Zn  Zn140  1  0.43650790  0.43384673  0.68727476  1
  Zn  Zn141  1  0.43608748  0.93755426  0.18936965  1
  Zn  Zn142  1  0.44305174  0.94101382  0.68757132  1
  Zn  Zn143  1  0.93466464  0.46094053  0.18473934  1
  Zn  Zn144  1  0.93662336  0.44103746  0.68380552  1
  Zn  Zn145  1  0.93786287  0.93725608  0.19217372  1
  Zn  Zn146  1  0.93552366  0.93322131  0.68122991  1
  Zn  Zn147  1  0.06496806  0.06367161  0.31905252  1
  Zn  Zn148  1  0.06407429  0.05716004  0.81152322  1
  Zn  Zn149  1  0.05772710  0.56335819  0.31283831  1
  Zn  Zn150  1  0.06320450  0.56249881  0.81056535  1
  Zn  Zn151  1  0.55940433  0.06338920  0.31780993  1
  Zn  Zn152  1  0.56517760  0.06487252  0.81352769  1
  Zn  Zn153  1  0.55711358  0.56382660  0.31355982  1
  Zn  Zn154  1  0.56268932  0.56110796  0.81477763  1
  Zn  Zn155  1  0.43957813  0.18075073  0.43681122  1
  Zn  Zn156  1  0.44146004  0.18650015  0.93269002  1
  Zn  Zn157  1  0.43709415  0.68563540  0.43713067  1
  Zn  Zn158  1  0.43871647  0.68795107  0.93744517  1
  Zn  Zn159  1  0.94533358  0.18471154  0.43746001  1
  Zn  Zn160  1  0.94170314  0.18594243  0.93801977  1
  Zn  Zn161  1  0.93826162  0.68836965  0.43971795  1
  Zn  Zn162  1  0.92951668  0.68375148  0.93809747  1
  Zn  Zn163  1  0.05872385  0.30797504  0.03789012  1
  Zn  Zn164  1  0.06871914  0.31180832  0.55379119  1
  Zn  Zn165  1  0.05900066  0.81366965  0.08416943  1
  Zn  Zn166  1  0.06367133  0.81062393  0.56055175  1
  Zn  Zn167  1  0.56067661  0.30974182  0.06045555  1
  Zn  Zn168  1  0.55733956  0.31109966  0.56375040  1
  Zn  Zn169  1  0.55715038  0.81478360  0.06751753  1
  Zn  Zn170  1  0.56399462  0.81392928  0.56457175  1
  O  O171  1  0.12054386  0.11747337  0.11850911  1
  O  O172  1  0.12588116  0.13302024  0.61369471  1
  O  O173  1  0.11120800  0.64109781  0.11651952  1
  O  O174  1  0.12312854  0.62075938  0.62029194  1
  O  O175  1  0.61731698  0.13010118  0.11389011  1
  O  O176  1  0.63212886  0.11716449  0.61579312  1
  O  O177  1  0.62147437  0.61893369  0.12025330  1
  O  O178  1  0.62174342  0.61732136  0.61605172  1
  O  O179  1  0.37436101  0.38285114  0.38171405  1
  O  O180  1  0.38000565  0.38123664  0.87833096  1
  O  O181  1  0.37518536  0.88964319  0.37126310  1
  O  O182  1  0.38279175  0.87997452  0.88197111  1
  O  O183  1  0.87556200  0.38510249  0.37705152  1
  O  O184  1  0.87312843  0.38284314  0.88071739  1
  O  O185  1  0.88721254  0.88294944  0.36839993  1
  O  O186  1  0.87173323  0.88414879  0.88495734  1
  O  O187  1  0.26857475  0.00639935  0.37796335  1
  O  O188  1  0.26035880  0.00705814  0.86794031  1
  O  O189  1  0.25887386  0.49358546  0.36166776  1
  O  O190  1  0.26095044  0.50275421  0.86355104  1
  O  O191  1  0.75522516  0.00281686  0.36744514  1
  O  O192  1  0.76259537  0.00713896  0.87281824  1
  O  O193  1  0.75271744  0.50830503  0.37116420  1
  O  O194  1  0.75590089  0.50525599  0.86925585  1
  O  O195  1  0.24986098  0.49306764  0.13425640  1
  O  O196  1  0.25243478  0.49843229  0.63689201  1
  O  O197  1  0.23935756  0.99642349  0.11798254  1
  O  O198  1  0.26044294  1.00052390  0.63831413  1
  O  O199  1  0.74269946  0.49540122  0.13142626  1
  O  O200  1  0.74288682  0.49477027  0.62995299  1
  O  O201  1  0.75249786  0.99044986  0.13974029  1
  O  O202  1  0.74225018  1.00573554  0.63617049  1
  O  O203  1  -0.01521620  0.36698641  0.23533143  1
  O  O204  1  0.01556933  0.38044923  0.74647824  1
  O  O205  1  0.01336038  0.87418066  0.25694049  1
  O  O206  1  0.00775316  0.86677776  0.74994112  1
  O  O207  1  0.50267417  0.36256261  0.24784974  1
  O  O208  1  0.51027184  0.38241303  0.76001675  1
  O  O209  1  0.50788179  0.86641811  0.24447192  1
  O  O210  1  0.50456042  0.86731158  0.75951708  1
  O  O211  1  0.49649045  0.13406429  0.24314277  1
  O  O212  1  0.49475652  0.12933109  0.75574590  1
  O  O213  1  0.49056269  0.63156884  0.24331407  1
  O  O214  1  0.49359791  0.63174493  0.75255529  1
  O  O215  1  1.00052916  0.11759452  0.23551959  1
  O  O216  1  0.98934780  0.12400813  0.75341180  1
  O  O217  1  0.99521870  0.62638922  0.23873177  1
  O  O218  1  0.99273791  0.63258225  0.75069509  1
  O  O219  1  0.36981998  0.25497214  0.00240952  1
  O  O220  1  0.38262840  0.26309094  0.49274072  1
  O  O221  1  0.38161077  0.75766412  0.01120697  1
  O  O222  1  0.37326989  0.75182982  0.50597139  1
  O  O223  1  0.87237963  0.26265783  -0.00425540  1
  O  O224  1  0.86718158  0.24864416  0.50825875  1
  O  O225  1  0.87792853  0.76302093  0.00686420  1
  O  O226  1  0.87474575  0.75278236  0.50503129  1
  O  O227  1  0.12346772  0.23642479  0.48878201  1
  O  O228  1  0.14041122  0.23790092  1.00042994  1
  O  O229  1  0.13412126  0.74919967  0.49095096  1
  O  O230  1  0.11124157  0.76117750  0.98916179  1
  O  O231  1  0.63004716  0.24280768  0.49824831  1
  O  O232  1  0.62221853  0.23837192  0.99427974  1
  O  O233  1  0.61207603  0.73917635  0.48990091  1
  O  O234  1  0.62032571  0.73916075  1.00788761  1
  O  O235  1  0.49403679  0.24212005  0.13162375  1
  O  O236  1  0.50448609  0.24432515  0.63407261  1
  O  O237  1  0.48918490  0.74533245  0.13689714  1
  O  O238  1  0.49421172  0.74841129  0.63305932  1
  O  O239  1  0.99680077  0.24255913  0.12036258  1
  O  O240  1  0.99025140  0.25165263  0.62084130  1
  O  O241  1  0.98401629  0.74483983  0.13013660  1
  O  O242  1  1.00193813  0.74603812  0.63437758  1
  O  O243  1  0.01118368  0.25281572  0.37332327  1
  O  O244  1  0.01314342  0.26267898  0.89995807  1
  O  O245  1  0.00824040  0.75815817  0.37430667  1
  O  O246  1  -0.00048965  0.75210404  0.86864052  1
  O  O247  1  0.50569368  0.24980294  0.36615533  1
  O  O248  1  0.51103292  0.26294895  0.87942109  1
  O  O249  1  0.50583845  0.74484876  0.36276666  1
  O  O250  1  0.49343630  0.75960446  0.86540989  1
  O  O251  1  0.23962970  0.12642115  0.50020099  1
  O  O252  1  0.24866017  0.12873432  0.99003620  1
  O  O253  1  0.25252037  0.64018984  0.50071390  1
  O  O254  1  0.24696832  0.62310397  0.98433248  1
  O  O255  1  0.74389057  0.13124076  0.49729819  1
  O  O256  1  0.73828410  0.12180819  1.00381005  1
  O  O257  1  0.73380670  0.61723086  0.49041589  1
  O  O258  1  0.74067882  0.62350637  0.98950610  1
  O  O259  1  0.25512251  0.37120078  0.00290827  1
  O  O260  1  0.25712530  0.38196654  0.51330924  1
  O  O261  1  0.26406138  0.87753325  0.00539681  1
  O  O262  1  0.25621899  0.86450194  0.50152726  1
  O  O263  1  0.76063774  0.38542978  0.01242613  1
  O  O264  1  0.74970444  0.36500400  0.50622676  1
  O  O265  1  0.75623842  0.88244698  0.01161078  1
  O  O266  1  0.75396413  0.86743931  0.49850460  1
  O  O267  1  0.13772672  0.50423305  0.25321234  1
  O  O268  1  0.13430032  0.49107123  0.74811732  1
  O  O269  1  0.12245249  0.99497291  0.24117535  1
  O  O270  1  0.13628999  0.98866224  0.75620406  1
  O  O271  1  0.62439007  0.49609275  0.24061550  1
  O  O272  1  0.62913550  0.49236033  0.74544449  1
  O  O273  1  0.62934981  0.98839808  0.25972976  1
  O  O274  1  0.63401228  1.00268442  0.74331292  1
  O  O275  1  0.38200170  0.00921844  0.26109914  1
  O  O276  1  0.36790848  -0.01035788  0.76290460  1
  O  O277  1  0.37067262  0.50715210  0.25631501  1
  O  O278  1  0.37010705  0.50615782  0.75608350  1
  O  O279  1  0.86506528  -0.00014776  0.25930468  1
  O  O280  1  0.87132283  0.00548562  0.75983733  1
  O  O281  1  0.86485626  0.50628914  0.26212254  1
  O  O282  1  0.87031701  0.50376580  0.76093103  1
  O  O283  1  0.11991252  0.36012507  0.37279978  1
  O  O284  1  0.12834490  0.37438828  0.85579685  1
  O  O285  1  0.12177995  0.87184907  0.36971830  1
  O  O286  1  0.12347735  0.87540107  0.87039929  1
  O  O287  1  0.62158721  0.36803748  0.36754466  1
  O  O288  1  0.61830564  0.37095248  0.87186851  1
  O  O289  1  0.62906468  0.86275838  0.36848469  1
  O  O290  1  0.61398237  0.87865030  0.87784385  1
  O  O291  1  0.38175422  0.13065976  0.12949053  1
  O  O292  1  0.37978800  0.13164277  0.63348925  1
  O  O293  1  0.37737479  0.63156075  0.13086193  1
  O  O294  1  0.37821452  0.63646452  0.63203062  1
  O  O295  1  0.88544287  0.11973752  0.12861633  1
  O  O296  1  0.87543583  0.13578736  0.63570371  1
  O  O297  1  0.87796160  0.63513071  0.12282972  1
  O  O298  1  0.87514922  0.61617596  0.64074004  1
  O  O299  1  0.25671856  0.25806921  0.11755902  1
  O  O300  1  0.25568238  0.26535511  0.62658271  1
  O  O301  1  0.26209723  0.75576034  0.12965654  1
  O  O302  1  0.26042882  0.75351430  0.61874969  1
  O  O303  1  0.74314598  0.26318109  0.12851535  1
  O  O304  1  0.75330562  0.25284916  0.61666570  1
  O  O305  1  0.75805435  0.75941951  0.12950413  1
  O  O306  1  0.74820413  0.74638098  0.61304802  1
  O  O307  1  0.23357197  0.24845367  0.36773666  1
  O  O308  1  0.24956328  0.24162920  0.87857841  1
  O  O309  1  0.24125995  0.75416939  0.38149875  1
  O  O310  1  0.25788888  0.73719417  0.87086295  1
  O  O311  1  0.74517060  0.24532821  0.38751341  1
  O  O312  1  0.73745334  0.25162066  0.87564562  1
  O  O313  1  0.73863252  0.73778476  0.36916224  1
  O  O314  1  0.75324771  0.73948972  0.86820785  1
  O  O315  1  0.00547283  0.11435440  0.01004047  1
  O  O316  1  0.01298443  0.12171288  0.50409621  1
  O  O317  1  0.00238919  0.62034678  0.00258525  1
  O  O318  1  0.00087150  0.61049093  0.49731080  1
  O  O319  1  0.50781446  0.12469503  0.00841008  1
  O  O320  1  0.51243747  0.11442254  0.49584537  1
  O  O321  1  0.50727985  0.62229901  0.00592355  1
  O  O322  1  0.50751401  0.61300594  0.49854480  1
  O  O323  1  0.49267468  0.38572215  0.49955441  1
  O  O324  1  0.49277419  0.37843389  0.99210749  1
  O  O325  1  0.50056003  0.88877418  0.50010364  1
  O  O326  1  0.49143397  0.87687951  0.99507722  1
  O  O327  1  0.99714021  0.38720403  0.49826512  1
  O  O328  1  0.98567172  0.38905478  1.00355630  1
  O  O329  1  1.00885406  0.88002961  0.48693724  1
  O  O330  1  0.99954804  0.87556740  0.99317332  1
  O  O331  1  0.48803595  0.49708784  0.38067140  1
  O  O332  1  0.48803489  0.49227540  0.87604647  1
  O  O333  1  0.48601513  1.00638198  0.38446333  1
  O  O334  1  0.49474310  0.99136281  0.87490800  1
  O  O335  1  0.98994478  0.49509149  0.37697959  1
  O  O336  1  0.99022150  0.49796824  0.87939186  1
  O  O337  1  0.99079634  0.99300657  0.37489770  1
  O  O338  1  0.99154984  1.00396660  0.88934876  1
  O  O339  1  0.00826908  0.00146418  0.11589542  1
  O  O340  1  -0.00715841  0.00599861  0.62354115  1
  O  O341  1  -0.00472757  0.51653363  0.11117524  1
  O  O342  1  0.00211270  0.50242649  0.61334879  1
  O  O343  1  0.49567471  0.01358062  0.12474735  1
  O  O344  1  0.51071676  0.00078028  0.61612161  1
  O  O345  1  0.50778778  0.50645218  0.12486170  1
  O  O346  1  0.50405293  0.50142516  0.61641995  1
  O  O347  1  0.25422039  0.38966232  0.23677483  1
  O  O348  1  0.24583312  0.38316027  0.73912909  1
  O  O349  1  0.23795708  0.87509507  0.24218898  1
  O  O350  1  0.24145968  0.88258559  0.74810078  1
  O  O351  1  0.74129145  0.38185766  0.24332070  1
  O  O352  1  0.74123302  0.38191400  0.74491237  1
  O  O353  1  0.74088239  0.88052111  0.24534578  1
  O  O354  1  0.74771481  0.89263165  0.76115863  1
  O  O355  1  0.26298750  0.12761174  0.24368492  1
  O  O356  1  0.24550614  0.11695460  0.76159405  1
  O  O357  1  0.25826335  0.61133654  0.24171256  1
  O  O358  1  0.25568732  0.61991896  0.75830440  1
  O  O359  1  0.74876981  0.11536247  0.25699446  1
  O  O360  1  0.76198058  0.11591596  0.75656243  1
  O  O361  1  0.74688124  0.61925673  0.25838140  1
  O  O362  1  0.75460734  0.61908296  0.75683365  1
  O  O363  1  0.37215900  0.11989772  0.36481674  1
  O  O364  1  0.36824150  0.11447879  0.88065314  1
  O  O365  1  0.37723942  0.61745398  0.36248174  1
  O  O366  1  0.36818100  0.61767242  0.87160161  1
  O  O367  1  0.86849062  0.11804789  0.37178520  1
  O  O368  1  0.87554671  0.11835901  0.87200066  1
  O  O369  1  0.86380990  0.62046262  0.37520604  1
  O  O370  1  0.86530958  0.61791362  0.86794860  1
  O  O371  1  0.13304181  0.36788665  0.11270773  1
  O  O372  1  0.13729836  0.37777067  0.63037785  1
  O  O373  1  0.13118207  0.88375077  0.13327314  1
  O  O374  1  0.12868656  0.87466338  0.63359827  1
  O  O375  1  0.62921244  0.38198333  0.12740060  1
  O  O376  1  0.62823309  0.37844136  0.63277551  1
  O  O377  1  0.63416111  0.87049703  0.13498395  1
  O  O378  1  0.62470685  0.88732201  0.63003131  1
  O  O379  1  0.11973349  0.24631418  0.25685139  1
  O  O380  1  0.13137735  0.26509560  0.74713570  1
  O  O381  1  0.12410095  0.75932780  0.25810225  1
  O  O382  1  0.11664813  0.76143056  0.75082638  1
  O  O383  1  0.61708441  0.25297919  0.25550597  1
  O  O384  1  0.63169409  0.26092098  0.75820139  1
  O  O385  1  0.61542453  0.75787488  0.25654386  1
  O  O386  1  0.61335192  0.74834423  0.74611988  1
  O  O387  1  0.38142170  0.24433030  0.24630192  1
  O  O388  1  0.38524285  0.25314239  0.75042964  1
  O  O389  1  0.37854292  0.74344454  0.24701531  1
  O  O390  1  0.38395568  0.74697792  0.74283887  1
  O  O391  1  0.87205204  0.24885349  0.24652993  1
  O  O392  1  0.87034822  0.24201558  0.74187365  1
  O  O393  1  0.87437699  0.74950295  0.24217239  1
  O  O394  1  0.88733413  0.74018390  0.75515162  1
  O  O395  1  0.37933010  0.49876838  0.49132275  1
  O  O396  1  0.37429047  0.49541104  0.99139509  1
  O  O397  1  0.38266364  1.00068080  0.49119511  1
  O  O398  1  0.37965435  0.99119610  0.98887799  1
  O  O399  1  0.87760972  0.50004344  0.48894362  1
  O  O400  1  0.87923011  0.49852638  0.98787120  1
  O  O401  1  0.87327013  1.00333745  0.48699716  1
  O  O402  1  0.88346033  0.98800553  0.99764586  1
  O  O403  1  0.11908518  0.00199276  0.00564549  1
  O  O404  1  0.12558019  0.02063260  0.48826390  1
  O  O405  1  0.11170330  0.50119737  -0.00949778  1
  O  O406  1  0.11879346  0.50123653  0.49598772  1
  O  O407  1  0.62164687  0.01698145  -0.00337179  1
  O  O408  1  0.62075491  0.00570480  0.50652770  1
  O  O409  1  0.62378831  0.50495231  0.01235311  1
  O  O410  1  0.61504460  0.50389591  0.50286897  1
  O  O411  1  0.37075238  0.36978179  0.11645608  1
  O  O412  1  0.36317608  0.38212165  0.61570318  1
  O  O413  1  0.37164094  0.86929913  0.11922242  1
  O  O414  1  0.37714485  0.86435151  0.62470705  1
  O  O415  1  0.87155265  0.36828945  0.12370115  1
  O  O416  1  0.86675609  0.36738635  0.62535812  1
  O  O417  1  0.86698694  0.86960969  0.12019541  1
  O  O418  1  0.86105752  0.86613813  0.63051725  1
  O  O419  1  0.12854568  0.13646416  0.37750991  1
  O  O420  1  0.13467687  0.12255068  0.88114076  1
  O  O421  1  0.12137555  0.63891951  0.37384118  1
  O  O422  1  0.14129238  0.62399826  0.87329749  1
  O  O423  1  0.63266593  0.13031010  0.38393212  1
  O  O424  1  0.62732179  0.13399895  0.88793082  1
  O  O425  1  0.62818759  0.63234632  0.37957199  1
  O  O426  1  0.63325752  0.61961770  0.88569420  1
