# generated using pymatgen
data_V85Zn86O256
_symmetry_space_group_name_H-M   'P 1'
_cell_length_a   16.99199168
_cell_length_b   16.98715770
_cell_length_c   16.99952221
_cell_angle_alpha   89.98509860
_cell_angle_beta   89.92781123
_cell_angle_gamma   89.91066684
_symmetry_Int_Tables_number   1
_chemical_formula_structural   V85Zn86O256
_chemical_formula_sum   'V85 Zn86 O256'
_cell_volume   4906.82798759
_cell_formula_units_Z   1
loop_
 _symmetry_equiv_pos_site_id
 _symmetry_equiv_pos_as_xyz
  1  'x, y, z'
loop_
 _atom_site_type_symbol
 _atom_site_label
 _atom_site_symmetry_multiplicity
 _atom_site_fract_x
 _atom_site_fract_y
 _atom_site_fract_z
 _atom_site_occupancy
  V  V0  1  0.12509350  0.87970355  0.74860073  1
  V  V1  1  0.49733130  -0.00135246  0.50162853  1
  V  V2  1  0.13159284  0.75094166  0.88017283  1
  V  V3  1  0.62396963  0.37697531  0.74214713  1
  V  V4  1  0.12412168  0.50545609  0.12719042  1
  V  V5  1  0.87452855  0.87311700  -0.00041465  1
  V  V6  1  0.14104151  0.87673416  0.25213501  1
  V  V7  1  0.12627185  0.74667071  0.38568454  1
  V  V8  1  0.23297462  0.24294580  0.49183362  1
  V  V9  1  0.75004538  0.12292043  0.87816376  1
  V  V10  1  0.37422030  0.49700745  0.37432770  1
  V  V11  1  0.75012409  0.74986440  0.00068120  1
  V  V12  1  0.62829220  0.87480833  0.74956824  1
  V  V13  1  0.01440601  0.51284367  0.50046204  1
  V  V14  1  0.37962673  0.36645432  0.49575374  1
  V  V15  1  0.23923489  0.12318097  0.36759175  1
  V  V16  1  0.87293166  0.75211897  0.62401559  1
  V  V17  1  0.62689298  0.62322830  0.00162670  1
  V  V18  1  0.74796128  0.37980574  0.62137112  1
  V  V19  1  0.62142284  -0.00404726  0.12219464  1
  V  V20  1  0.62340414  0.87174523  0.25359035  1
  V  V21  1  0.87214840  0.87855461  0.50576465  1
  V  V22  1  0.24556324  0.88204820  0.62651332  1
  V  V23  1  0.62986926  -0.00319057  0.62565792  1
  V  V24  1  0.50000583  0.38164992  0.87451055  1
  V  V25  1  0.74904362  -0.00232327  0.25332756  1
  V  V26  1  0.25446340  0.36242447  0.12535377  1
  V  V27  1  0.00232058  0.37707146  0.86533067  1
  V  V28  1  0.00033565  -0.00328003  0.00473655  1
  V  V29  1  0.74197355  0.63404180  0.37693280  1
  V  V30  1  0.75088147  0.87254744  0.12679738  1
  V  V31  1  0.12190387  0.01989388  0.62167580  1
  V  V32  1  0.37068307  0.24533071  0.61956281  1
  V  V33  1  -0.00488330  0.50376036  -0.00214908  1
  V  V34  1  0.24908384  0.00689427  0.76163742  1
  V  V35  1  0.87765500  0.74947059  0.12539557  1
  V  V36  1  0.00225259  0.74882096  0.74491684  1
  V  V37  1  0.87561563  0.62486598  0.74182099  1
  V  V38  1  0.24741601  0.74830229  0.00437695  1
  V  V39  1  0.05982032  0.56836467  0.67931322  1
  V  V40  1  0.74038144  0.75640265  0.50231005  1
  V  V41  1  0.13858819  -0.00546492  0.12957632  1
  V  V42  1  0.50450814  0.74664791  0.25641242  1
  V  V43  1  0.75118953  0.49308285  0.25278570  1
  V  V44  1  0.00272510  0.12163598  0.12651824  1
  V  V45  1  0.37121714  0.87252468  0.50205477  1
  V  V46  1  0.00139150  0.01627077  0.50334889  1
  V  V47  1  0.36742315  0.75566224  0.12938003  1
  V  V48  1  0.87495167  0.00036364  0.87231508  1
  V  V49  1  0.38691241  0.13925014  0.24360631  1
  V  V50  1  0.50256743  0.87185758  0.37749900  1
  V  V51  1  0.87599070  0.12675485  0.74051454  1
  V  V52  1  0.36811826  0.12726493  0.76201220  1
  V  V53  1  0.74448110  0.25077351  0.49990979  1
  V  V54  1  0.74611858  0.50365351  0.74325029  1
  V  V55  1  0.57472053  0.16819930  0.05302477  1
  V  V56  1  0.62165454  0.25035140  0.36089961  1
  V  V57  1  0.17474920  0.57064948  -0.05826234  1
  V  V58  1  -0.00063175  0.87369033  0.87401899  1
  V  V59  1  0.49789860  0.12360786  0.62472310  1
  V  V60  1  0.87268441  0.49909297  0.87249224  1
  V  V61  1  0.00467352  0.25044628  0.74256760  1
  V  V62  1  0.48943816  0.87609598  0.87053554  1
  V  V63  1  0.36838485  0.87968273  0.00414803  1
  V  V64  1  0.00230633  0.75214940  0.25308862  1
  V  V65  1  0.12228795  0.36882105  0.25098202  1
  V  V66  1  0.87240926  0.12469553  0.25046078  1
  V  V67  1  0.62666943  0.50087406  0.13577972  1
  V  V68  1  0.37713218  0.75111104  0.64718840  1
  V  V69  1  0.37381810  0.62582853  0.25357217  1
  V  V70  1  0.24700148  0.62124738  0.39010919  1
  V  V71  1  0.50107653  0.36944375  0.35372520  1
  V  V72  1  0.50024639  0.62615442  0.13068436  1
  V  V73  1  0.87508909  0.50311260  0.38133372  1
  V  V74  1  0.62693146  0.24488279  0.86617474  1
  V  V75  1  0.62189357  0.75212080  0.87160218  1
  V  V76  1  0.24575855  0.50006156  0.25106312  1
  V  V77  1  0.23703281  0.38169088  0.62296453  1
  V  V78  1  0.37118454  0.00176611  0.36538525  1
  V  V79  1  0.87843931  0.62650129  0.25133679  1
  V  V80  1  0.00183390  0.87880955  0.37876647  1
  V  V81  1  0.00326315  0.37298976  0.37815260  1
  V  V82  1  0.87726597  0.25129241  0.11565401  1
  V  V83  1  -0.00028314  0.25057634  0.25202061  1
  V  V84  1  0.50064088  -0.00302352  -0.00102984  1
  Zn  Zn85  1  0.38070669  0.37165296  0.00902190  1
  Zn  Zn86  1  0.13518924  0.24176772  0.87222297  1
  Zn  Zn87  1  0.00452244  0.62896982  0.11751109  1
  Zn  Zn88  1  0.40235442  0.54759137  0.81832533  1
  Zn  Zn89  1  0.26611092  0.23493381  -0.01860004  1
  Zn  Zn90  1  0.75108168  0.37457041  0.12328754  1
  Zn  Zn91  1  0.75130740  0.62741803  0.87342336  1
  Zn  Zn92  1  0.74584891  0.12545329  0.37603949  1
  Zn  Zn93  1  0.62287336  0.12567304  0.49913964  1
  Zn  Zn94  1  0.87526547  0.24801803  0.61975548  1
  Zn  Zn95  1  0.13468270  0.12864354  -0.00204403  1
  Zn  Zn96  1  0.62076089  0.62315314  0.51581082  1
  Zn  Zn97  1  0.87509807  0.37621074  0.50017353  1
  Zn  Zn98  1  0.50736792  0.50074019  0.50981124  1
  Zn  Zn99  1  0.75255469  -0.00239186  0.74576267  1
  Zn  Zn100  1  0.24752302  0.74221546  0.50983794  1
  Zn  Zn101  1  0.87365518  0.00191083  0.37782313  1
  Zn  Zn102  1  0.87261994  0.37505213  -0.00213233  1
  Zn  Zn103  1  0.49768985  0.62038095  0.64132780  1
  Zn  Zn104  1  0.75167463  0.24985066  -0.00173222  1
  Zn  Zn105  1  0.49737871  0.25167036  0.74653651  1
  Zn  Zn106  1  0.49609944  0.50735897  -0.00661516  1
  Zn  Zn107  1  0.18702713  0.18260922  0.19175411  1
  Zn  Zn108  1  0.18971317  0.19513416  0.68770523  1
  Zn  Zn109  1  0.18809938  0.68705619  0.19473396  1
  Zn  Zn110  1  0.19294883  0.69208389  0.68950741  1
  Zn  Zn111  1  0.69477332  0.18900928  0.18846542  1
  Zn  Zn112  1  0.68915630  0.18530013  0.68648327  1
  Zn  Zn113  1  0.68886585  0.68506548  0.19194748  1
  Zn  Zn114  1  0.68444978  0.68987535  0.68422258  1
  Zn  Zn115  1  0.30983959  0.30729707  0.30928348  1
  Zn  Zn116  1  0.31826745  0.33553628  0.79876729  1
  Zn  Zn117  1  0.31515088  0.80851502  0.32087123  1
  Zn  Zn118  1  0.31361881  0.69085703  0.81879591  1
  Zn  Zn119  1  0.81542290  0.31207342  0.31462509  1
  Zn  Zn120  1  0.81357153  0.31170849  0.80935644  1
  Zn  Zn121  1  0.81570374  0.81428270  0.31793659  1
  Zn  Zn122  1  0.80864142  0.81189684  0.81082718  1
  Zn  Zn123  1  0.18774256  0.43189345  0.43992597  1
  Zn  Zn124  1  0.20671736  0.39127671  0.91845337  1
  Zn  Zn125  1  0.18560761  0.94332464  0.44042254  1
  Zn  Zn126  1  0.18693589  0.93839676  0.94294941  1
  Zn  Zn127  1  0.68386515  0.43593741  0.43577004  1
  Zn  Zn128  1  0.68930712  0.43576804  0.93607193  1
  Zn  Zn129  1  0.68481509  0.93660094  0.43928043  1
  Zn  Zn130  1  0.68637774  0.93784786  0.93552224  1
  Zn  Zn131  1  0.31573609  0.07017114  0.06096405  1
  Zn  Zn132  1  0.30858791  0.06298432  0.55811457  1
  Zn  Zn133  1  0.31785367  0.55711660  0.06202784  1
  Zn  Zn134  1  0.34104088  0.55105288  0.57567107  1
  Zn  Zn135  1  0.81215982  0.06187543  0.06248109  1
  Zn  Zn136  1  0.80952771  0.06396071  0.55944116  1
  Zn  Zn137  1  0.81324441  0.56411030  0.06411481  1
  Zn  Zn138  1  0.80939528  0.56676396  0.56091526  1
  Zn  Zn139  1  0.43447452  0.44201975  0.18381843  1
  Zn  Zn140  1  0.42721260  0.43574402  0.68840608  1
  Zn  Zn141  1  0.43712115  0.93945517  0.18660952  1
  Zn  Zn142  1  0.43350712  0.93982551  0.69213884  1
  Zn  Zn143  1  0.93733259  0.43795691  0.18684553  1
  Zn  Zn144  1  0.93265978  0.43415428  0.68316820  1
  Zn  Zn145  1  0.93918180  0.93615013  0.19141520  1
  Zn  Zn146  1  0.93924531  0.93993044  0.68438399  1
  Zn  Zn147  1  0.06112142  0.05825490  0.31005690  1
  Zn  Zn148  1  0.06195052  0.06565476  0.80978103  1
  Zn  Zn149  1  0.06293070  0.56263855  0.31572365  1
  Zn  Zn150  1  0.24308811  0.51162245  0.74296610  1
  Zn  Zn151  1  0.56111759  0.06137860  0.31383412  1
  Zn  Zn152  1  0.55873895  0.06091681  0.81131487  1
  Zn  Zn153  1  0.57690684  0.54953147  0.34322717  1
  Zn  Zn154  1  0.57004759  0.56985875  0.80458008  1
  Zn  Zn155  1  0.43723607  0.18389204  0.43154261  1
  Zn  Zn156  1  0.43605443  0.20028272  0.93689541  1
  Zn  Zn157  1  0.43826102  0.68651262  0.44456890  1
  Zn  Zn158  1  0.44179324  0.69215364  0.94276700  1
  Zn  Zn159  1  0.93117459  0.19174465  0.43436151  1
  Zn  Zn160  1  0.96371821  0.17576069  0.92466766  1
  Zn  Zn161  1  0.93532789  0.69031674  0.43911144  1
  Zn  Zn162  1  0.93956486  0.68495390  0.93180893  1
  Zn  Zn163  1  0.06722325  0.31431076  0.05608512  1
  Zn  Zn164  1  0.05844229  0.31202753  0.55801146  1
  Zn  Zn165  1  0.06494321  0.81477886  0.06570506  1
  Zn  Zn166  1  0.05973034  0.81674623  0.56365579  1
  Zn  Zn167  1  0.56987854  0.32913374  0.06312540  1
  Zn  Zn168  1  0.56056762  0.31141314  0.56020258  1
  Zn  Zn169  1  0.55907582  0.81117396  0.06347414  1
  Zn  Zn170  1  0.55660311  0.81088743  0.56938349  1
  O  O171  1  0.11705721  0.11190480  0.12882500  1
  O  O172  1  0.12694898  0.11849006  0.62782900  1
  O  O173  1  0.12030251  0.61046773  0.13895793  1
  O  O174  1  0.11461418  0.63284089  0.62692753  1
  O  O175  1  0.63909182  0.11381132  0.11529967  1
  O  O176  1  0.61336280  0.11751664  0.62597758  1
  O  O177  1  0.62290868  0.62012276  0.12041596  1
  O  O178  1  0.61394971  0.62641143  0.62968610  1
  O  O179  1  0.38346013  0.37371428  0.37569699  1
  O  O180  1  0.40108994  0.36194773  0.87753303  1
  O  O181  1  0.38057614  0.88250997  0.38309641  1
  O  O182  1  0.39062256  0.87396148  0.88647836  1
  O  O183  1  0.88415498  0.38689714  0.37479834  1
  O  O184  1  0.87745360  0.38479750  0.87357811  1
  O  O185  1  0.88536452  0.87830579  0.38540196  1
  O  O186  1  0.88141205  0.87785401  0.87779507  1
  O  O187  1  0.25805637  0.01454625  0.38389570  1
  O  O188  1  0.23789729  -0.00251262  0.85984675  1
  O  O189  1  0.25191739  0.50326459  0.36933452  1
  O  O190  1  0.22318436  0.50241877  0.88497264  1
  O  O191  1  0.74861048  0.00035724  0.36342316  1
  O  O192  1  0.75700729  0.00578379  0.87254401  1
  O  O193  1  0.75879146  0.51003442  0.36963924  1
  O  O194  1  0.75941451  0.50252759  0.86628238  1
  O  O195  1  0.23976085  0.49703750  0.13604224  1
  O  O196  1  0.25707729  0.48463512  0.62143492  1
  O  O197  1  0.23571454  0.99971167  0.12302492  1
  O  O198  1  0.23952730  0.99978082  0.62769116  1
  O  O199  1  0.74647835  0.50461033  0.13751732  1
  O  O200  1  0.75302597  0.49152750  0.63041901  1
  O  O201  1  0.74380107  0.99246489  0.13365436  1
  O  O202  1  0.73298778  1.00468047  0.62445323  1
  O  O203  1  0.00458694  0.37242363  0.25690081  1
  O  O204  1  -0.00893040  0.36747920  0.75661563  1
  O  O205  1  0.00357556  0.87104264  0.26486095  1
  O  O206  1  0.00381976  0.87125047  0.75788732  1
  O  O207  1  0.49681795  0.37150733  0.25615187  1
  O  O208  1  0.50894783  0.37514783  0.75549632  1
  O  O209  1  0.50314446  0.86875018  0.25871580  1
  O  O210  1  0.50481631  0.88316065  0.76608587  1
  O  O211  1  0.48603778  0.12094270  0.25614467  1
  O  O212  1  0.48705568  0.12423650  0.73866893  1
  O  O213  1  0.49337800  0.63414053  0.25143956  1
  O  O214  1  0.48007494  0.60637954  0.75528455  1
  O  O215  1  0.99209505  0.12669156  0.24297015  1
  O  O216  1  0.98907157  0.14139900  0.75120143  1
  O  O217  1  0.98943010  0.63121446  0.25382921  1
  O  O218  1  0.99321653  0.62867993  0.74128728  1
  O  O219  1  0.37515578  0.25868783  0.00666617  1
  O  O220  1  0.37145595  0.25193837  0.50181759  1
  O  O221  1  0.36810825  0.75893829  0.01190850  1
  O  O222  1  0.36835793  0.76670276  0.49646920  1
  O  O223  1  0.88266287  0.24600939  0.01177966  1
  O  O224  1  0.85853554  0.25460713  0.49839509  1
  O  O225  1  0.87147666  0.75396006  0.00378583  1
  O  O226  1  0.87095508  0.75827706  0.50832909  1
  O  O227  1  0.13483280  0.24832070  0.49613107  1
  O  O228  1  0.13225730  0.24967195  0.99261140  1
  O  O229  1  0.12713542  0.75814342  0.48873550  1
  O  O230  1  0.13429340  0.75886349  0.99497604  1
  O  O231  1  0.63298273  0.25051604  0.49217078  1
  O  O232  1  0.62620826  0.23857744  0.99206701  1
  O  O233  1  0.63846330  0.75712657  0.50827877  1
  O  O234  1  0.62984146  0.74199700  0.99712064  1
  O  O235  1  0.52999922  0.23222486  0.11316210  1
  O  O236  1  0.49094401  0.24102848  0.62409997  1
  O  O237  1  0.49121700  0.74469688  0.13450471  1
  O  O238  1  0.47938640  0.75534790  0.62964764  1
  O  O239  1  0.99624353  0.24124825  0.13100047  1
  O  O240  1  0.99479482  0.26042996  0.63795258  1
  O  O241  1  0.99564190  0.74921740  0.13300787  1
  O  O242  1  0.98621364  0.75860946  0.63240333  1
  O  O243  1  -0.00867225  0.26276322  0.36706857  1
  O  O244  1  -0.01187712  0.26834149  0.86031970  1
  O  O245  1  0.00724547  0.75783061  0.37419964  1
  O  O246  1  0.00645517  0.75882651  0.86960154  1
  O  O247  1  0.51058784  0.25945378  0.37839993  1
  O  O248  1  0.51642992  0.25615011  0.86901032  1
  O  O249  1  0.48965382  0.76002081  0.36637657  1
  O  O250  1  0.51124917  0.76613322  0.88501293  1
  O  O251  1  0.25323513  0.13698714  0.48700945  1
  O  O252  1  0.24807146  0.12283088  0.99334967  1
  O  O253  1  0.25849303  0.62231935  0.49050870  1
  O  O254  1  0.23940227  0.62371868  1.00391783  1
  O  O255  1  0.74464866  0.13481120  0.49553123  1
  O  O256  1  0.75969153  0.12680299  0.98238982  1
  O  O257  1  0.74475016  0.63583689  0.49321558  1
  O  O258  1  0.74402353  0.63234315  0.99874394  1
  O  O259  1  0.25117939  0.38274663  0.02389323  1
  O  O260  1  0.25932340  0.35891703  0.49616821  1
  O  O261  1  0.26419891  0.87126702  -0.00319526  1
  O  O262  1  0.25542074  0.88041603  0.51130249  1
  O  O263  1  0.75372206  0.36900514  0.00236471  1
  O  O264  1  0.74654940  0.37192583  0.50617674  1
  O  O265  1  0.75548779  0.86977081  0.00617802  1
  O  O266  1  0.76101974  0.86951123  0.49319416  1
  O  O267  1  0.12462168  0.49004736  0.24525945  1
  O  O268  1  0.11933521  0.51300377  0.73419335  1
  O  O269  1  0.12237661  0.99017740  0.23908835  1
  O  O270  1  0.12614983  0.99919351  0.74161710  1
  O  O271  1  0.63997716  0.51206728  0.24759467  1
  O  O272  1  0.64107958  0.49195468  0.75568938  1
  O  O273  1  0.63140540  0.99385220  0.24399126  1
  O  O274  1  0.62476631  0.99312919  0.74252328  1
  O  O275  1  0.37575210  -0.00387471  0.26431422  1
  O  O276  1  0.36318815  0.01796371  0.74456460  1
  O  O277  1  0.36625061  0.50360672  0.25907299  1
  O  O278  1  0.34794524  0.46124604  0.76772431  1
  O  O279  1  0.86560690  0.00568447  0.25086930  1
  O  O280  1  0.87473364  0.00675921  0.75360677  1
  O  O281  1  0.87371705  0.50936104  0.25986826  1
  O  O282  1  0.86670634  0.50663961  0.75207586  1
  O  O283  1  0.11159381  0.38030758  0.36633801  1
  O  O284  1  0.10126838  0.37958380  0.87121872  1
  O  O285  1  0.11976968  0.87174328  0.37100502  1
  O  O286  1  0.11616249  0.86969572  0.87215782  1
  O  O287  1  0.60950490  0.36446506  0.37330085  1
  O  O288  1  0.62329289  0.36759842  0.86158359  1
  O  O289  1  0.60969885  0.87916588  0.37060380  1
  O  O290  1  0.61760800  0.86925709  0.87023891  1
  O  O291  1  0.37245946  0.11531288  0.14721935  1
  O  O292  1  0.37797121  0.13304711  0.62477914  1
  O  O293  1  0.38071068  0.63348415  0.13457273  1
  O  O294  1  0.36463959  0.65276405  0.62336569  1
  O  O295  1  0.87889852  0.12847549  0.13552744  1
  O  O296  1  0.86729886  0.12634035  0.63681465  1
  O  O297  1  0.87905845  0.63193896  0.13488828  1
  O  O298  1  0.87152676  0.63356085  0.63449873  1
  O  O299  1  0.24002113  0.26337527  0.12937385  1
  O  O300  1  0.25381709  0.25051098  0.60746112  1
  O  O301  1  0.26039540  0.74393718  0.12354516  1
  O  O302  1  0.25562117  0.76683177  0.62457718  1
  O  O303  1  0.76126160  0.25118464  0.12070520  1
  O  O304  1  0.74675811  0.25960061  0.61571155  1
  O  O305  1  0.75686030  0.75437935  0.12163468  1
  O  O306  1  0.76390210  0.74997148  0.61770283  1
  O  O307  1  0.25079986  0.23839398  0.38408006  1
  O  O308  1  0.24342428  0.28977431  0.87681466  1
  O  O309  1  0.24269932  0.73931648  0.38020450  1
  O  O310  1  0.23602864  0.75300153  0.88405088  1
  O  O311  1  0.73716833  0.25363780  0.37972905  1
  O  O312  1  0.74127050  0.24415523  0.87406566  1
  O  O313  1  0.76180464  0.74364544  0.38959048  1
  O  O314  1  0.74036628  0.75058582  0.88385849  1
  O  O315  1  -0.00801506  0.11425545  0.01981059  1
  O  O316  1  -0.00989000  0.11474214  0.49372954  1
  O  O317  1  -0.00769703  0.61034001  0.00002930  1
  O  O318  1  -0.00310346  0.61099491  0.49493450  1
  O  O319  1  0.50448978  0.11747655  -0.00424956  1
  O  O320  1  0.49868982  0.11848022  0.50996204  1
  O  O321  1  0.51202703  0.62680910  0.01188502  1
  O  O322  1  0.50222562  0.62212945  0.50572623  1
  O  O323  1  0.48748010  0.37714459  0.49644414  1
  O  O324  1  0.51396424  0.38099117  0.98247397  1
  O  O325  1  0.49202794  0.87765257  0.49404510  1
  O  O326  1  0.49389236  0.88078064  0.99519373  1
  O  O327  1  0.99609301  0.38588389  0.49257163  1
  O  O328  1  0.99489340  0.38683266  0.98934803  1
  O  O329  1  0.99287227  0.88211838  0.49110082  1
  O  O330  1  0.99363943  0.87702556  0.99361031  1
  O  O331  1  0.48720219  0.48198180  0.36775756  1
  O  O332  1  0.50615083  0.48842274  0.87360240  1
  O  O333  1  0.49181602  0.99235322  0.38258612  1
  O  O334  1  0.50720069  0.98672354  0.88618685  1
  O  O335  1  0.99351723  0.49648950  0.38428300  1
  O  O336  1  0.98353862  0.49090577  0.87841349  1
  O  O337  1  0.99839010  0.99322346  0.38235124  1
  O  O338  1  0.99500377  0.98676762  0.88013240  1
  O  O339  1  0.00326305  0.00518474  0.12456387  1
  O  O340  1  0.00957019  -0.00152466  0.61474121  1
  O  O341  1  0.00558923  0.49981519  0.11466149  1
  O  O342  1  0.00096890  0.50300323  0.61552458  1
  O  O343  1  0.51568072  -0.00409112  0.12137274  1
  O  O344  1  0.50298459  0.00618861  0.62083781  1
  O  O345  1  0.51165430  0.51154919  0.13468559  1
  O  O346  1  0.45203647  0.51101907  0.61080591  1
  O  O347  1  0.23834697  0.37897039  0.24754522  1
  O  O348  1  0.23450452  0.36272398  0.72196378  1
  O  O349  1  0.23968760  0.86978808  0.25897334  1
  O  O350  1  0.24175412  0.89183797  0.73563537  1
  O  O351  1  0.75843167  0.39084191  0.25045815  1
  O  O352  1  0.74451882  0.38133276  0.73976901  1
  O  O353  1  0.74556939  0.87898483  0.24811790  1
  O  O354  1  0.73395528  0.87939283  0.75497408  1
  O  O355  1  0.25946957  0.13019215  0.26449382  1
  O  O356  1  0.26019394  0.12412233  0.74886897  1
  O  O357  1  0.25686081  0.61879797  0.26055443  1
  O  O358  1  0.25084283  0.62403437  0.75367525  1
  O  O359  1  0.75655179  0.11448210  0.25129448  1
  O  O360  1  0.75910746  0.12342329  0.75959533  1
  O  O361  1  0.76490987  0.62369179  0.25689664  1
  O  O362  1  0.75715484  0.61845706  0.75035701  1
  O  O363  1  0.36854543  0.11686056  0.36722609  1
  O  O364  1  0.38302170  0.13274488  0.85879967  1
  O  O365  1  0.36892878  0.61405281  0.37191404  1
  O  O366  1  0.36958307  0.62620675  0.89245676  1
  O  O367  1  0.87017713  0.12391563  0.36065200  1
  O  O368  1  0.87372182  0.11715440  0.86473117  1
  O  O369  1  0.87026524  0.62036799  0.36946995  1
  O  O370  1  0.87436666  0.61924634  0.85954178  1
  O  O371  1  0.12797041  0.38613759  0.13321692  1
  O  O372  1  0.13996823  0.37774553  0.60194471  1
  O  O373  1  0.12090766  0.88614851  0.13750428  1
  O  O374  1  0.13065907  0.88218075  0.62986093  1
  O  O375  1  0.63215972  0.39605856  0.12703191  1
  O  O376  1  0.62838865  0.37346998  0.63480828  1
  O  O377  1  0.63118693  0.87940808  0.13158985  1
  O  O378  1  0.61411127  0.88395595  0.63850379  1
  O  O379  1  0.11634406  0.26195349  0.24550221  1
  O  O380  1  0.10795345  0.24419883  0.75366363  1
  O  O381  1  0.11936830  0.75842402  0.26051829  1
  O  O382  1  0.11994645  0.76059957  0.75958471  1
  O  O383  1  0.63030803  0.24794780  0.26236038  1
  O  O384  1  0.62429892  0.25823442  0.75230962  1
  O  O385  1  0.61160031  0.75631768  0.24312275  1
  O  O386  1  0.62973017  0.75832504  0.76404956  1
  O  O387  1  0.37879844  0.23935973  0.25170802  1
  O  O388  1  0.37382593  0.24203797  0.73749388  1
  O  O389  1  0.38192797  0.74811836  0.24583161  1
  O  O390  1  0.36904703  0.76161222  0.74538091  1
  O  O391  1  0.87851621  0.24164014  0.24163160  1
  O  O392  1  0.88012512  0.24224807  0.74495385  1
  O  O393  1  0.88195754  0.74517749  0.24739015  1
  O  O394  1  0.87846057  0.74390015  0.74459117  1
  O  O395  1  0.36455529  0.48368346  0.48001407  1
  O  O396  1  0.38901079  0.48481355  1.01961938  1
  O  O397  1  0.37915989  0.99060514  0.49466635  1
  O  O398  1  0.39158735  0.99163816  1.01350346  1
  O  O399  1  0.87725411  0.50193731  0.48920240  1
  O  O400  1  0.87754754  0.50095724  0.99033604  1
  O  O401  1  0.87957572  0.99396932  0.49948409  1
  O  O402  1  0.88019753  0.99137683  0.99536722  1
  O  O403  1  0.11628551  -0.00372065  0.01533015  1
  O  O404  1  0.11337223  0.00017608  0.50951522  1
  O  O405  1  0.11577493  0.50904971  0.00691524  1
  O  O406  1  0.11260522  0.50331923  0.49199072  1
  O  O407  1  0.61507805  -0.00743994  0.00928983  1
  O  O408  1  0.61548559  0.00028048  0.50785629  1
  O  O409  1  0.62737445  0.51364827  0.00713396  1
  O  O410  1  0.61226981  0.51689650  0.46045182  1
  O  O411  1  0.35577001  0.37327378  0.13999033  1
  O  O412  1  0.36566583  0.35800932  0.61267988  1
  O  O413  1  0.38111122  0.86490434  0.11841236  1
  O  O414  1  0.36684017  0.87277181  0.62056028  1
  O  O415  1  0.87531430  0.36468575  0.12335418  1
  O  O416  1  0.86043057  0.37191240  0.61966962  1
  O  O417  1  0.87057606  0.86829142  0.12183929  1
  O  O418  1  0.87695157  0.87103289  0.61311527  1
  O  O419  1  0.14005322  0.11942825  0.36532886  1
  O  O420  1  0.08122487  0.13708848  0.89229163  1
  O  O421  1  0.13414707  0.63540652  0.37023922  1
  O  O422  1  0.12032048  0.63566420  0.88630135  1
  O  O423  1  0.62327130  0.13802200  0.37718846  1
  O  O424  1  0.63536476  0.13265836  0.86333113  1
  O  O425  1  0.64332774  0.64152629  0.36224597  1
  O  O426  1  0.62728977  0.63466995  0.88390633  1
