# generated using pymatgen
data_V85Zn86O256
_symmetry_space_group_name_H-M   'P 1'
_cell_length_a   16.93670257
_cell_length_b   16.93220683
_cell_length_c   16.93457151
_cell_angle_alpha   89.93390025
_cell_angle_beta   89.99709673
_cell_angle_gamma   89.95264943
_symmetry_Int_Tables_number   1
_chemical_formula_structural   V85Zn86O256
_chemical_formula_sum   'V85 Zn86 O256'
_cell_volume   4856.41956827
_cell_formula_units_Z   1
loop_
 _symmetry_equiv_pos_site_id
 _symmetry_equiv_pos_as_xyz
  1  'x, y, z'
loop_
 _atom_site_type_symbol
 _atom_site_label
 _atom_site_symmetry_multiplicity
 _atom_site_fract_x
 _atom_site_fract_y
 _atom_site_fract_z
 _atom_site_occupancy
  V  V0  1  0.12338019  0.25244307  0.87705581  1
  V  V1  1  0.25927207  0.74883190  0.00205353  1
  V  V2  1  0.73846392  0.87939112  0.13101952  1
  V  V3  1  0.25262150  0.25215617  0.50013826  1
  V  V4  1  0.87662324  0.62607854  0.75108422  1
  V  V5  1  0.37587914  0.37403378  0.00132932  1
  V  V6  1  0.49441415  0.76042527  0.24991178  1
  V  V7  1  0.37451433  0.88253067  -0.01420631  1
  V  V8  1  0.74687482  0.37209478  0.12890216  1
  V  V9  1  -0.00760672  -0.00094799  -0.00925833  1
  V  V10  1  0.87841898  0.37185154  -0.00158570  1
  V  V11  1  0.12452975  0.12313497  0.50133244  1
  V  V12  1  0.24684005  0.50576638  0.25622511  1
  V  V13  1  0.49672957  0.48407860  0.49551039  1
  V  V14  1  0.62198040  0.49880828  0.13226658  1
  V  V15  1  0.00077294  0.12446676  0.12599229  1
  V  V16  1  -0.00066381  0.87229851  0.37468710  1
  V  V17  1  0.74742550  0.63643314  0.88043610  1
  V  V18  1  0.76566953  -0.00159518  0.75870807  1
  V  V19  1  0.24977285  0.37539773  0.12398937  1
  V  V20  1  0.11745816  0.24741399  0.37008686  1
  V  V21  1  0.37573339  0.25391523  0.62439588  1
  V  V22  1  0.49770029  0.00362691  -0.00850694  1
  V  V23  1  0.25276794  0.00147876  0.24923392  1
  V  V24  1  -0.00350483  0.24828691  0.75718278  1
  V  V25  1  0.25290262  0.11676633  0.87579372  1
  V  V26  1  0.75161815  0.49945558  0.75132652  1
  V  V27  1  0.12634807  0.49872367  0.62091201  1
  V  V28  1  0.74977523  0.75126057  0.49913512  1
  V  V29  1  0.61826255  0.76050589  0.37290133  1
  V  V30  1  0.75166677  0.13273040  0.38626203  1
  V  V31  1  0.62627473  0.00061490  0.63800704  1
  V  V32  1  0.87812715  0.12556131  0.25016095  1
  V  V33  1  0.74497991  0.87512528  0.62973995  1
  V  V34  1  0.00008646  0.49842910  -0.00290110  1
  V  V35  1  0.87498250  0.24874565  0.12940453  1
  V  V36  1  0.37648727  0.11618471  0.75239179  1
  V  V37  1  0.62233462  0.12910103  -0.01237499  1
  V  V38  1  0.50936609  -0.00342087  0.50044811  1
  V  V39  1  0.50529333  0.12377303  0.13150137  1
  V  V40  1  0.14060648  0.62529033  0.49549511  1
  V  V41  1  0.62800124  0.37233369  0.76005411  1
  V  V42  1  0.75451494  0.62718378  0.36319708  1
  V  V43  1  0.38195016  -0.00288060  0.37357665  1
  V  V44  1  0.25077846  0.12126849  0.37339028  1
  V  V45  1  0.61265156  0.36002295  0.25988566  1
  V  V46  1  0.12768291  -0.00170953  0.62830990  1
  V  V47  1  0.37690349  0.49811590  0.87485287  1
  V  V48  1  0.37291558  0.74816933  0.62122262  1
  V  V49  1  0.12432572  0.50048175  0.12059623  1
  V  V50  1  0.62836487  0.63098797  0.00128139  1
  V  V51  1  0.37814481  0.87184563  0.49659650  1
  V  V52  1  0.13699624  0.74700962  0.37886150  1
  V  V53  1  0.62762703  0.49943687  0.62599115  1
  V  V54  1  0.11997720  0.37595148  0.75310133  1
  V  V55  1  0.00509158  0.50155641  0.49523941  1
  V  V56  1  0.24834785  0.87086702  0.61882116  1
  V  V57  1  0.87404436  -0.00222209  0.37166997  1
  V  V58  1  0.37682849  0.24275816  0.13816496  1
  V  V59  1  0.11822533  0.36949629  0.24646990  1
  V  V60  1  0.50564370  0.12557947  0.62147651  1
  V  V61  1  0.50348674  0.24889898  0.75869824  1
  V  V62  1  0.25821148  0.87098581  0.12467931  1
  V  V63  1  0.50039965  0.50042500  0.00325446  1
  V  V64  1  0.25075508  0.24828466  -0.00127886  1
  V  V65  1  -0.00891973  0.62518280  0.12808913  1
  V  V66  1  0.12344936  0.87261545  0.24686730  1
  V  V67  1  0.49472107  0.63565214  0.12717366  1
  V  V68  1  0.25022154  0.49872151  0.75108323  1
  V  V69  1  0.11976875  0.63817179  -0.00383396  1
  V  V70  1  0.87840732  0.49562432  0.87521183  1
  V  V71  1  0.00042230  -0.00214851  0.50114326  1
  V  V72  1  0.76307250  0.13095137  0.87002549  1
  V  V73  1  0.51270030  0.75295292  0.75481260  1
  V  V74  1  0.37165061  0.62729909  0.25610113  1
  V  V75  1  0.87598067  0.37823172  0.49646876  1
  V  V76  1  0.87803260  0.25030876  0.62536692  1
  V  V77  1  0.12640663  0.86617605  0.75820145  1
  V  V78  1  0.62568059  0.62470018  0.49649344  1
  V  V79  1  0.87758852  0.75116110  0.62647924  1
  V  V80  1  0.24670741  0.62932655  0.87415577  1
  V  V81  1  0.86418295  0.86885504  -0.00254104  1
  V  V82  1  -0.00962542  0.74667767  0.25059100  1
  V  V83  1  0.49977970  0.62529155  0.62304580  1
  V  V84  1  -0.00277024  0.12308607  0.63262385  1
  Zn  Zn85  1  0.75372307  0.50098544  0.24956841  1
  Zn  Zn86  1  0.87464138  0.87443129  0.50030845  1
  Zn  Zn87  1  0.72995926  0.01109726  0.24555623  1
  Zn  Zn88  1  0.37693595  0.62545126  0.75070107  1
  Zn  Zn89  1  0.75232260  0.37442982  0.62452981  1
  Zn  Zn90  1  0.00149878  0.62609560  0.62331755  1
  Zn  Zn91  1  0.38487228  0.49016627  0.37307455  1
  Zn  Zn92  1  -0.00368910  0.86856522  0.87707861  1
  Zn  Zn93  1  0.51079264  0.88252637  0.86373968  1
  Zn  Zn94  1  0.50790236  0.37250378  0.88034894  1
  Zn  Zn95  1  0.59700533  0.25066311  0.40352356  1
  Zn  Zn96  1  0.25511447  -0.00588590  0.75397997  1
  Zn  Zn97  1  0.12340515  -0.00140400  0.12275854  1
  Zn  Zn98  1  0.88181307  0.50800616  0.36672764  1
  Zn  Zn99  1  0.00578075  0.74548119  0.75846782  1
  Zn  Zn100  1  0.25480801  0.37448066  0.62722282  1
  Zn  Zn101  1  0.74351176  0.25232415  -0.00499644  1
  Zn  Zn102  1  -0.00071937  0.37412220  0.36922264  1
  Zn  Zn103  1  0.74798473  0.25137963  0.50321371  1
  Zn  Zn104  1  0.12433018  0.12123151  0.00010446  1
  Zn  Zn105  1  0.86520292  0.74769194  0.12545371  1
  Zn  Zn106  1  0.60883612  0.89614962  0.25374232  1
  Zn  Zn107  1  0.18851947  0.18539311  0.18615642  1
  Zn  Zn108  1  0.18788420  0.18569383  0.69023541  1
  Zn  Zn109  1  0.18384355  0.68876712  0.18443600  1
  Zn  Zn110  1  0.19096763  0.68539140  0.68348063  1
  Zn  Zn111  1  0.68788035  0.18423671  0.18770834  1
  Zn  Zn112  1  0.68903717  0.18637293  0.68878854  1
  Zn  Zn113  1  0.67912473  0.69754354  0.18365426  1
  Zn  Zn114  1  0.69073507  0.68504419  0.68810690  1
  Zn  Zn115  1  0.31011256  0.31561168  0.31271522  1
  Zn  Zn116  1  0.31284167  0.30965384  0.81146569  1
  Zn  Zn117  1  0.31468642  0.81340682  0.31120888  1
  Zn  Zn118  1  0.31577518  0.80788846  0.80767214  1
  Zn  Zn119  1  0.81359392  0.31513353  0.31017374  1
  Zn  Zn120  1  0.81313730  0.31197026  0.81274851  1
  Zn  Zn121  1  0.80610312  0.81611327  0.30769975  1
  Zn  Zn122  1  0.81294448  0.81529930  0.81472166  1
  Zn  Zn123  1  0.21713010  0.42269174  0.42179158  1
  Zn  Zn124  1  0.18717977  0.43820142  0.93682481  1
  Zn  Zn125  1  0.18808673  0.93333228  0.43771886  1
  Zn  Zn126  1  0.18362317  0.93844816  0.94095267  1
  Zn  Zn127  1  0.68707213  0.43522189  0.43604912  1
  Zn  Zn128  1  0.69198322  0.44464111  0.94237497  1
  Zn  Zn129  1  0.68956337  0.94133542  0.43743562  1
  Zn  Zn130  1  0.68546533  0.94683531  0.93716980  1
  Zn  Zn131  1  0.31325565  0.06041130  0.06201914  1
  Zn  Zn132  1  0.31535422  0.06160880  0.56337133  1
  Zn  Zn133  1  0.31313646  0.56458588  0.06588831  1
  Zn  Zn134  1  0.31573981  0.55902229  0.56229564  1
  Zn  Zn135  1  0.80819645  0.05893912  0.05957772  1
  Zn  Zn136  1  0.81753635  0.05962306  0.56643347  1
  Zn  Zn137  1  0.81049303  0.55957622  0.06397204  1
  Zn  Zn138  1  0.81369751  0.56357001  0.55844712  1
  Zn  Zn139  1  0.43661749  0.43702067  0.18987411  1
  Zn  Zn140  1  0.44097538  0.43596365  0.68888414  1
  Zn  Zn141  1  0.43616607  0.94493993  0.17982068  1
  Zn  Zn142  1  0.43863979  0.93358620  0.68642141  1
  Zn  Zn143  1  0.93484998  0.43989231  0.18812299  1
  Zn  Zn144  1  0.94184836  0.43639822  0.68567807  1
  Zn  Zn145  1  0.93174425  0.93844912  0.18222093  1
  Zn  Zn146  1  0.93958805  0.93342617  0.68941238  1
  Zn  Zn147  1  0.06108358  0.06056240  0.30952931  1
  Zn  Zn148  1  0.06606555  0.06072293  0.81325780  1
  Zn  Zn149  1  0.06696291  0.56302108  0.31177655  1
  Zn  Zn150  1  0.06110602  0.56355385  0.81350994  1
  Zn  Zn151  1  0.55644202  0.08893022  0.32176829  1
  Zn  Zn152  1  0.56524453  0.06284404  0.81290975  1
  Zn  Zn153  1  0.56411860  0.56527219  0.31247704  1
  Zn  Zn154  1  0.56295901  0.56548042  0.81367117  1
  Zn  Zn155  1  0.43283896  0.18407084  0.43753677  1
  Zn  Zn156  1  0.43434034  0.18809881  0.93751044  1
  Zn  Zn157  1  0.43636551  0.68438292  0.43436979  1
  Zn  Zn158  1  0.43707476  0.68674685  0.93804322  1
  Zn  Zn159  1  0.93726606  0.18642502  0.44072483  1
  Zn  Zn160  1  0.93726989  0.18849021  0.94073624  1
  Zn  Zn161  1  0.94020552  0.68737788  0.43889146  1
  Zn  Zn162  1  0.93567135  0.69198224  0.93537628  1
  Zn  Zn163  1  0.05955654  0.30945473  0.06158461  1
  Zn  Zn164  1  0.06428269  0.31348744  0.56094888  1
  Zn  Zn165  1  0.05993927  0.81390976  0.06303058  1
  Zn  Zn166  1  0.06322771  0.80933406  0.56255232  1
  Zn  Zn167  1  0.56118522  0.30818260  0.06570334  1
  Zn  Zn168  1  0.56610709  0.31244174  0.57324798  1
  Zn  Zn169  1  0.58702153  0.83600801  0.02171565  1
  Zn  Zn170  1  0.56322194  0.81292165  0.56392431  1
  O  O171  1  0.11461068  0.12296767  0.12354642  1
  O  O172  1  0.11744061  0.11844060  0.62298155  1
  O  O173  1  0.11543831  0.62013424  0.11385423  1
  O  O174  1  0.12471298  0.61400158  0.61909045  1
  O  O175  1  0.61031271  0.13189592  0.11715929  1
  O  O176  1  0.61714116  0.11540206  0.63021597  1
  O  O177  1  0.61750904  0.61471595  0.12481105  1
  O  O178  1  0.62084691  0.61551671  0.62014637  1
  O  O179  1  0.32758865  0.39404666  0.38720123  1
  O  O180  1  0.37366534  0.38531153  0.88036925  1
  O  O181  1  0.36805449  0.88158473  0.38893073  1
  O  O182  1  0.37992862  0.86919921  0.88329226  1
  O  O183  1  0.87936979  0.37423323  0.38608281  1
  O  O184  1  0.86901013  0.38265962  0.88597689  1
  O  O185  1  0.87937164  0.88200167  0.37438840  1
  O  O186  1  0.87372359  0.87547216  0.89199424  1
  O  O187  1  0.25393242  0.00195031  0.36880824  1
  O  O188  1  0.24413693  0.01305237  0.87438012  1
  O  O189  1  0.22756962  0.51570285  0.35416797  1
  O  O190  1  0.25661096  0.50756526  0.87143490  1
  O  O191  1  0.76486383  0.00879545  0.37794676  1
  O  O192  1  0.74911110  0.00854662  0.86351487  1
  O  O193  1  0.74550026  0.51827836  0.37517574  1
  O  O194  1  0.76243069  0.50592443  0.86965173  1
  O  O195  1  0.24177015  0.49353544  0.12580352  1
  O  O196  1  0.24489628  0.49680997  0.63225734  1
  O  O197  1  0.24678049  0.99435598  0.13352407  1
  O  O198  1  0.24435413  0.99180818  0.62744468  1
  O  O199  1  0.74002087  0.49094732  0.12677337  1
  O  O200  1  0.74318433  0.50183561  0.63147046  1
  O  O201  1  0.75684280  0.98738660  0.13194225  1
  O  O202  1  0.74640241  0.99588631  0.63442046  1
  O  O203  1  0.01422170  0.37645517  0.24713359  1
  O  O204  1  0.01317245  0.36765198  0.74886093  1
  O  O205  1  0.00709540  0.86931752  0.25222325  1
  O  O206  1  0.01542924  0.87437307  0.75147028  1
  O  O207  1  0.51380900  0.37619939  0.25010100  1
  O  O208  1  0.50940173  0.36712597  0.75354467  1
  O  O209  1  0.49403693  0.86451710  0.23912409  1
  O  O210  1  0.49962108  0.85945930  0.74910405  1
  O  O211  1  0.49068658  0.11750997  0.22757148  1
  O  O212  1  0.49548209  0.13028905  0.74459983  1
  O  O213  1  0.49255698  0.63004612  0.24444279  1
  O  O214  1  0.49991585  0.62909143  0.73737310  1
  O  O215  1  0.98832578  0.12121243  0.24166095  1
  O  O216  1  1.00752509  0.13407060  0.74336009  1
  O  O217  1  1.00781659  0.63421640  0.23950382  1
  O  O218  1  0.98778723  0.62396439  0.74674131  1
  O  O219  1  0.36781458  0.25855258  0.00366352  1
  O  O220  1  0.36488269  0.24065637  0.50945636  1
  O  O221  1  0.36422260  0.75601113  -0.00148815  1
  O  O222  1  0.38433787  0.75662494  0.51028348  1
  O  O223  1  0.87098865  0.25689510  0.00868325  1
  O  O224  1  0.87983752  0.25988241  0.51011781  1
  O  O225  1  0.87633802  0.76536146  0.00517678  1
  O  O226  1  0.86926175  0.75036036  0.50974353  1
  O  O227  1  0.12918330  0.24032901  0.49398544  1
  O  O228  1  0.13077570  0.24809700  0.99217654  1
  O  O229  1  0.12041245  0.73849191  0.49165285  1
  O  O230  1  0.13319929  0.74117039  1.00213191  1
  O  O231  1  0.63473131  0.25553838  0.50864786  1
  O  O232  1  0.62561230  0.23574041  1.00239025  1
  O  O233  1  0.62940029  0.74558337  0.49406369  1
  O  O234  1  0.62378008  0.72881692  1.01347390  1
  O  O235  1  0.48431397  0.23982050  0.12059890  1
  O  O236  1  0.49388281  0.24166782  0.63424576  1
  O  O237  1  0.50344144  0.73655647  0.13423149  1
  O  O238  1  0.49665832  0.74204489  0.63127990  1
  O  O239  1  0.99001646  0.23410730  0.11617379  1
  O  O240  1  0.99606724  0.24348431  0.63190300  1
  O  O241  1  1.00079331  0.74168903  0.13365252  1
  O  O242  1  0.98745213  0.74841115  0.62858124  1
  O  O243  1  0.01420889  0.24988792  0.37924543  1
  O  O244  1  0.00913884  0.24426943  0.86874375  1
  O  O245  1  0.00528940  0.75508524  0.36800019  1
  O  O246  1  0.00154563  0.75397334  0.87174434  1
  O  O247  1  0.51242943  0.19286104  0.36381865  1
  O  O248  1  0.49607391  0.25276746  0.86229302  1
  O  O249  1  0.50691737  0.74613314  0.36429548  1
  O  O250  1  0.49506622  0.74189096  0.85578975  1
  O  O251  1  0.24249407  0.12844613  0.49496449  1
  O  O252  1  0.24758824  0.13039361  0.99307539  1
  O  O253  1  0.23997827  0.61991549  0.50170622  1
  O  O254  1  0.24440480  0.63190768  0.99591179  1
  O  O255  1  0.76824983  0.12892907  0.48970420  1
  O  O256  1  0.74051531  0.12348244  0.98793939  1
  O  O257  1  0.74304405  0.63303640  0.49431079  1
  O  O258  1  0.74169643  0.61736271  0.99233487  1
  O  O259  1  0.25478747  0.36988143  0.00569678  1
  O  O260  1  0.23445310  0.35398106  0.51238888  1
  O  O261  1  0.25445012  0.86862453  0.00301436  1
  O  O262  1  0.25787256  0.87796783  0.51220500  1
  O  O263  1  0.75767343  0.37492143  0.01160398  1
  O  O264  1  0.76226790  0.37699066  0.50462271  1
  O  O265  1  0.76119812  0.88604595  0.00987316  1
  O  O266  1  0.75286635  0.86930124  0.50956859  1
  O  O267  1  0.12735815  0.49445215  0.23671859  1
  O  O268  1  0.12757398  0.49343274  0.74487542  1
  O  O269  1  0.13106548  0.98578607  0.25099549  1
  O  O270  1  0.12894439  0.98848206  0.74269717  1
  O  O271  1  0.62674926  0.49191291  0.24220325  1
  O  O272  1  0.63034410  0.49701284  0.74388213  1
  O  O273  1  0.61820232  1.00788351  0.26635314  1
  O  O274  1  0.63309399  0.99890719  0.74163643  1
  O  O275  1  0.36450747  -0.00981934  0.26125021  1
  O  O276  1  0.37566034  0.01166977  0.74503690  1
  O  O277  1  0.36402811  0.50383940  0.25204995  1
  O  O278  1  0.37110909  0.50047177  0.75804877  1
  O  O279  1  0.87561982  0.00810911  0.25886481  1
  O  O280  1  0.86397450  0.00127335  0.74634478  1
  O  O281  1  0.86749411  0.49547787  0.25516943  1
  O  O282  1  0.87353069  0.50408412  0.75575741  1
  O  O283  1  0.12773050  0.36395101  0.36430974  1
  O  O284  1  0.12985236  0.36232581  0.86850516  1
  O  O285  1  0.11843180  0.86850847  0.36857570  1
  O  O286  1  0.13097325  0.87541726  0.85946567  1
  O  O287  1  0.62968064  0.36394561  0.36484800  1
  O  O288  1  0.62825684  0.38433652  0.86425295  1
  O  O289  1  0.62969782  0.86360972  0.37607001  1
  O  O290  1  0.61147205  0.86841185  0.91327156  1
  O  O291  1  0.37822928  0.13950934  0.11727197  1
  O  O292  1  0.38182716  0.13200104  0.63432024  1
  O  O293  1  0.38671233  0.61779361  0.13617831  1
  O  O294  1  0.38371159  0.63088393  0.62462439  1
  O  O295  1  0.87687377  0.13022214  0.13046365  1
  O  O296  1  0.89019270  0.13238266  0.62309909  1
  O  O297  1  0.88685571  0.62741022  0.11810875  1
  O  O298  1  0.87372033  0.63249844  0.63365994  1
  O  O299  1  0.25822977  0.25298295  0.11810719  1
  O  O300  1  0.25877885  0.24509056  0.61952062  1
  O  O301  1  0.24519112  0.75845868  0.11400518  1
  O  O302  1  0.26119568  0.75666409  0.62572867  1
  O  O303  1  0.75654977  0.25562147  0.12116917  1
  O  O304  1  0.76884319  0.24875179  0.63047786  1
  O  O305  1  0.75162990  0.76927207  0.13337971  1
  O  O306  1  0.75687158  0.75699221  0.62274934  1
  O  O307  1  0.24170444  0.23780095  0.38207413  1
  O  O308  1  0.24378516  0.24276841  0.88010747  1
  O  O309  1  0.23603013  0.75518374  0.37165597  1
  O  O310  1  0.25598772  0.73559544  0.88013603  1
  O  O311  1  0.76318456  0.23721980  0.37916544  1
  O  O312  1  0.75191004  0.23612861  0.87417130  1
  O  O313  1  0.74346352  0.74357046  0.37827701  1
  O  O314  1  0.75277349  0.73528934  0.87053129  1
  O  O315  1  -0.00138069  0.11286212  0.00475133  1
  O  O316  1  0.00645395  0.11796434  0.50890085  1
  O  O317  1  0.00590240  0.62103076  0.00447732  1
  O  O318  1  0.00615519  0.61316273  0.50163097  1
  O  O319  1  0.50675874  0.12441432  -0.00057646  1
  O  O320  1  0.49081411  0.11187153  0.51798124  1
  O  O321  1  0.50323757  0.61861957  0.00855802  1
  O  O322  1  0.50748364  0.62254473  0.51061482  1
  O  O323  1  0.50261146  0.38576602  0.50633001  1
  O  O324  1  0.49474210  0.38076133  0.99972102  1
  O  O325  1  0.48960966  0.88404610  0.50833711  1
  O  O326  1  0.48425219  0.89012404  1.01075826  1
  O  O327  1  0.99755403  0.38661703  0.49804823  1
  O  O328  1  0.98608945  0.38085719  1.00616779  1
  O  O329  1  0.99913943  0.87978386  0.49341142  1
  O  O330  1  0.99142348  0.88519985  1.00233985  1
  O  O331  1  0.50476042  0.50060420  0.39107499  1
  O  O332  1  0.49161743  0.49935626  0.88205326  1
  O  O333  1  0.48651683  1.00785590  0.38652019  1
  O  O334  1  0.50007819  1.00126207  0.88459301  1
  O  O335  1  1.00217929  0.49697355  0.38176270  1
  O  O336  1  0.98669950  0.50356374  0.88048532  1
  O  O337  1  0.99235094  0.99347385  0.37882975  1
  O  O338  1  1.00359332  0.99556321  0.88756798  1
  O  O339  1  -0.00062833  0.01042098  0.11777011  1
  O  O340  1  0.00581200  0.00606054  0.62356837  1
  O  O341  1  0.00457483  0.50717800  0.11764307  1
  O  O342  1  0.01019567  0.50205943  0.61720013  1
  O  O343  1  0.48763943  0.01896205  0.10823936  1
  O  O344  1  0.50949587  0.00397169  0.62393602  1
  O  O345  1  0.50592945  0.50521222  0.12215930  1
  O  O346  1  0.50732091  0.50619492  0.61951632  1
  O  O347  1  0.23797335  0.38471050  0.23959591  1
  O  O348  1  0.23866233  0.37892483  0.74930320  1
  O  O349  1  0.24378409  0.87949766  0.24243386  1
  O  O350  1  0.24364963  0.87388566  0.74046863  1
  O  O351  1  0.74059742  0.37376851  0.23953131  1
  O  O352  1  0.74544980  0.38107442  0.74676919  1
  O  O353  1  0.74128256  0.88386204  0.24146254  1
  O  O354  1  0.75317017  0.88871196  0.74616690  1
  O  O355  1  0.24248716  0.10962884  0.25755089  1
  O  O356  1  0.25911104  0.12300107  0.75738158  1
  O  O357  1  0.25948820  0.61748708  0.23444253  1
  O  O358  1  0.25129753  0.61805187  0.75826117  1
  O  O359  1  0.76302192  0.12596459  0.25946474  1
  O  O360  1  0.74742651  0.11494967  0.76223106  1
  O  O361  1  0.74231383  0.62989357  0.26166446  1
  O  O362  1  0.75986522  0.61857835  0.75623965  1
  O  O363  1  0.35615163  0.11111350  0.38155753  1
  O  O364  1  0.36482484  0.13200539  0.86471156  1
  O  O365  1  0.37799177  0.61570211  0.36085940  1
  O  O366  1  0.36765070  0.61243185  0.87600761  1
  O  O367  1  0.87718696  0.11812420  0.36730125  1
  O  O368  1  0.86153079  0.12511433  0.87978217  1
  O  O369  1  0.85812684  0.62850958  0.37999778  1
  O  O370  1  0.86848971  0.61760503  0.86929176  1
  O  O371  1  0.12922345  0.37752027  0.12707915  1
  O  O372  1  0.12516254  0.38535656  0.63328106  1
  O  O373  1  0.13321674  0.87532602  0.13273210  1
  O  O374  1  0.13208879  0.87849375  0.62915966  1
  O  O375  1  0.62987678  0.37908484  0.13065160  1
  O  O376  1  0.62721508  0.38882978  0.63823317  1
  O  O377  1  0.63646867  0.87713405  0.12049948  1
  O  O378  1  0.63880487  0.88141880  0.62315343  1
  O  O379  1  0.13300582  0.25731967  0.25756139  1
  O  O380  1  0.11814822  0.25682956  0.75542124  1
  O  O381  1  0.11895631  0.75887508  0.25601867  1
  O  O382  1  0.12552802  0.76280437  0.74020283  1
  O  O383  1  0.62429781  0.26085558  0.24601674  1
  O  O384  1  0.61694327  0.26078847  0.74263554  1
  O  O385  1  0.61130139  0.75688894  0.25771453  1
  O  O386  1  0.61164032  0.74478878  0.74472984  1
  O  O387  1  0.36503285  0.25122957  0.23686548  1
  O  O388  1  0.38242249  0.24103729  0.74386378  1
  O  O389  1  0.38176109  0.74133763  0.25426734  1
  O  O390  1  0.38362227  0.74590057  0.73529300  1
  O  O391  1  0.87448415  0.24475770  0.23695814  1
  O  O392  1  0.89090224  0.25910349  0.74435803  1
  O  O393  1  0.88773196  0.75442558  0.24979599  1
  O  O394  1  0.87388038  0.74177452  0.74311040  1
  O  O395  1  0.39428240  0.50231007  0.50212664  1
  O  O396  1  0.37918662  0.49389633  0.99510266  1
  O  O397  1  0.38217674  0.99068834  0.49662301  1
  O  O398  1  0.37820807  0.99338070  0.99504244  1
  O  O399  1  0.88544966  0.49492139  0.49642648  1
  O  O400  1  0.87880468  0.49255430  0.99359435  1
  O  O401  1  0.88442751  0.99656899  0.49332587  1
  O  O402  1  0.88734161  0.99141246  1.00416786  1
  O  O403  1  0.11031718  0.00002770  0.00373713  1
  O  O404  1  0.12061623  0.00272038  0.50780372  1
  O  O405  1  0.11893342  0.50623050  0.00304141  1
  O  O406  1  0.12226866  0.50363132  0.50653532  1
  O  O407  1  0.61432821  0.01982181  0.00223268  1
  O  O408  1  0.61369975  -0.00602947  0.50947190  1
  O  O409  1  0.61875235  0.50385132  0.01363033  1
  O  O410  1  0.61816306  0.50243355  0.50822259  1
  O  O411  1  0.37067393  0.36528120  0.12131345  1
  O  O412  1  0.37469015  0.35871726  0.63244317  1
  O  O413  1  0.36040539  0.87992243  0.11536624  1
  O  O414  1  0.36800464  0.86828784  0.61800007  1
  O  O415  1  0.86782675  0.36708123  0.12043745  1
  O  O416  1  0.87881212  0.36858064  0.61484296  1
  O  O417  1  0.86712785  0.87159025  0.11605156  1
  O  O418  1  0.86550899  0.86723028  0.62616058  1
  O  O419  1  0.13123453  0.12676392  0.37834602  1
  O  O420  1  0.13386464  0.13638975  0.87408034  1
  O  O421  1  0.12013390  0.63586053  0.38403609  1
  O  O422  1  0.13458721  0.61737809  0.88504722  1
  O  O423  1  0.65250468  0.12366937  0.38418883  1
  O  O424  1  0.63241460  0.12623125  0.88391911  1
  O  O425  1  0.63225294  0.63610193  0.37934417  1
  O  O426  1  0.63531371  0.61532513  0.88744361  1
