# generated using pymatgen
data_V85Zn86O256
_symmetry_space_group_name_H-M   'P 1'
_cell_length_a   16.92323137
_cell_length_b   16.91988331
_cell_length_c   16.91801358
_cell_angle_alpha   90.00299449
_cell_angle_beta   89.90995172
_cell_angle_gamma   90.06255647
_symmetry_Int_Tables_number   1
_chemical_formula_structural   V85Zn86O256
_chemical_formula_sum   'V85 Zn86 O256'
_cell_volume   4844.27990745
_cell_formula_units_Z   1
loop_
 _symmetry_equiv_pos_site_id
 _symmetry_equiv_pos_as_xyz
  1  'x, y, z'
loop_
 _atom_site_type_symbol
 _atom_site_label
 _atom_site_symmetry_multiplicity
 _atom_site_fract_x
 _atom_site_fract_y
 _atom_site_fract_z
 _atom_site_occupancy
  V  V0  1  0.75220660  0.74957937  0.49543924  1
  V  V1  1  0.62453309  0.24986357  0.88344024  1
  V  V2  1  0.62864862  0.00893386  0.13770190  1
  V  V3  1  0.61814984  0.37202442  0.25027207  1
  V  V4  1  0.12089580  0.62375482  0.01286102  1
  V  V5  1  -0.00321376  0.87482143  0.88123458  1
  V  V6  1  0.49050459  -0.00319118  0.49014906  1
  V  V7  1  0.87338364  0.51031956  0.37461563  1
  V  V8  1  -0.00312225  0.00103313  0.00652725  1
  V  V9  1  0.62454156  -0.00091739  0.62286357  1
  V  V10  1  0.37651792  0.87498033  0.00037678  1
  V  V11  1  0.11856249  0.25392244  0.87908795  1
  V  V12  1  -0.00630491  0.74658195  0.75207818  1
  V  V13  1  0.87665068  0.75057236  0.61989964  1
  V  V14  1  0.87794907  0.37463068  0.49100832  1
  V  V15  1  0.00201727  0.49638576  0.49547375  1
  V  V16  1  0.75179270  0.37716652  0.62886695  1
  V  V17  1  0.62728957  0.12311482  0.50074387  1
  V  V18  1  0.62512867  0.87582022  0.74815829  1
  V  V19  1  0.24724283  0.12566729  0.87631606  1
  V  V20  1  0.87598302  0.25119897  0.62430833  1
  V  V21  1  0.37857777  0.74793845  0.12841900  1
  V  V22  1  0.75315304  0.51498699  0.75360891  1
  V  V23  1  0.49817305  0.62822996  0.62210731  1
  V  V24  1  0.00024321  0.26767136  0.25575826  1
  V  V25  1  0.75019898  0.24827692  0.50051834  1
  V  V26  1  0.25009966  0.74864684  0.00068905  1
  V  V27  1  0.62728284  0.50149478  0.62400138  1
  V  V28  1  0.12088138  0.00085597  0.62204516  1
  V  V29  1  0.37758753  0.23675538  0.12941231  1
  V  V30  1  0.12777646  0.75239237  0.37924597  1
  V  V31  1  0.37458834  0.12682231  0.75091951  1
  V  V32  1  -0.00025795  0.49640447  -0.00167044  1
  V  V33  1  0.74313330  0.87712855  0.13129290  1
  V  V34  1  0.51233047  0.01065529  0.00362889  1
  V  V35  1  0.49349856  0.49413542  0.49730955  1
  V  V36  1  0.49707986  0.23169250  0.24781534  1
  V  V37  1  0.37472729  -0.00067623  0.87662073  1
  V  V38  1  0.38886550  0.37842247  0.00158832  1
  V  V39  1  0.75729884  0.87711305  0.61730652  1
  V  V40  1  0.87407577  -0.00193007  0.87919627  1
  V  V41  1  0.00036788  0.88394307  0.39113584  1
  V  V42  1  0.50307356  0.86213696  0.36194374  1
  V  V43  1  0.37645854  0.61806227  0.24998813  1
  V  V44  1  0.12332246  0.37600401  0.75343955  1
  V  V45  1  0.12548155  0.74665753  0.87495449  1
  V  V46  1  0.74729389  0.49549891  0.25373984  1
  V  V47  1  0.24902461  0.87579325  0.12894777  1
  V  V48  1  0.75499124  0.12297269  0.35935474  1
  V  V49  1  0.86615958  -0.00561044  0.37819369  1
  V  V50  1  0.62731140  0.63005986  0.49711907  1
  V  V51  1  0.75306694  0.00171527  0.74905627  1
  V  V52  1  0.25192476  0.37657515  0.62348274  1
  V  V53  1  0.87494046  0.24657363  0.12883419  1
  V  V54  1  -0.00084654  0.74938925  0.25181684  1
  V  V55  1  0.37390119  0.25298277  0.62500460  1
  V  V56  1  0.88265575  0.75736993  0.11704325  1
  V  V57  1  -0.00355736  0.25398745  0.75459606  1
  V  V58  1  0.24860436  0.87267780  0.61861501  1
  V  V59  1  0.38645300  0.49591404  0.87845476  1
  V  V60  1  0.12319826  0.26313392  0.37151491  1
  V  V61  1  0.12317372  0.12500078  0.49475439  1
  V  V62  1  0.26230629  0.00385306  0.25371212  1
  V  V63  1  0.49884413  0.12414011  0.62536851  1
  V  V64  1  0.87555540  0.37030284  -0.01005374  1
  V  V65  1  -0.00058877  0.12250284  0.14124057  1
  V  V66  1  0.11877630  0.49025949  0.13451657  1
  V  V67  1  0.49971633  0.61699590  0.11265445  1
  V  V68  1  0.62460966  0.24889021  0.37454836  1
  V  V69  1  0.69302367  0.68443780  0.31878721  1
  V  V70  1  0.13024705  0.62681276  0.50246033  1
  V  V71  1  0.25571421  0.25463617  0.49600427  1
  V  V72  1  0.62068727  0.49398838  0.11467058  1
  V  V73  1  0.87404312  0.51435725  0.87209296  1
  V  V74  1  0.63334965  0.74553263  0.87601828  1
  V  V75  1  0.50219878  0.87470950  0.87520083  1
  V  V76  1  -0.00392564  0.62249829  0.62847703  1
  V  V77  1  0.24820221  0.00034479  0.75015274  1
  V  V78  1  0.25255433  0.62928048  0.37591518  1
  V  V79  1  0.26115579  0.12343106  0.37165876  1
  V  V80  1  0.37033412  0.75007396  0.61664792  1
  V  V81  1  -0.00196975  0.12343524  0.62097813  1
  V  V82  1  0.50035785  0.26122030  0.75450841  1
  V  V83  1  0.24981074  0.25385511  0.00232575  1
  V  V84  1  0.37182567  0.62579412  0.75264617  1
  Zn  Zn85  1  0.12621750  0.00209430  0.12773755  1
  Zn  Zn86  1  0.63103339  0.61198043  -0.01470702  1
  Zn  Zn87  1  0.75265613  0.37419001  0.12407347  1
  Zn  Zn88  1  0.88035804  0.62554855  0.24379711  1
  Zn  Zn89  1  0.51917714  0.74608993  0.24526608  1
  Zn  Zn90  1  0.24957956  0.49804731  0.75451003  1
  Zn  Zn91  1  0.62254302  0.37972655  0.75531033  1
  Zn  Zn92  1  0.24820048  0.37262379  0.13325021  1
  Zn  Zn93  1  0.49053241  0.36715504  0.37942884  1
  Zn  Zn94  1  0.12463111  0.87832988  0.25419452  1
  Zn  Zn95  1  0.12394694  0.87512818  0.75030025  1
  Zn  Zn96  1  0.87378276  0.12577957  0.74976477  1
  Zn  Zn97  1  0.36974172  0.87381588  0.49143224  1
  Zn  Zn98  1  0.12425061  0.49966211  0.62813976  1
  Zn  Zn99  1  0.12217218  0.12547576  0.00369165  1
  Zn  Zn100  1  0.74085713  0.11916394  0.88291549  1
  Zn  Zn101  1  0.74729869  0.24311165  0.00503378  1
  Zn  Zn102  1  0.24203046  0.49283628  0.25558963  1
  Zn  Zn103  1  0.76133502  0.75435139  -0.00695865  1
  Zn  Zn104  1  0.25018237  0.61958860  0.87789636  1
  Zn  Zn105  1  0.49855911  0.75190361  0.74788866  1
  Zn  Zn106  1  0.36690562  0.48727370  0.37868987  1
  Zn  Zn107  1  0.18502920  0.18774936  0.18992641  1
  Zn  Zn108  1  0.18530499  0.18929730  0.68752011  1
  Zn  Zn109  1  0.18797616  0.68714277  0.19247772  1
  Zn  Zn110  1  0.18644350  0.68807305  0.68914864  1
  Zn  Zn111  1  0.68556560  0.18617949  0.18305027  1
  Zn  Zn112  1  0.68533935  0.18794029  0.69158930  1
  Zn  Zn113  1  0.70723402  0.66934980  0.14136741  1
  Zn  Zn114  1  0.68627916  0.69087757  0.68556212  1
  Zn  Zn115  1  0.31326875  0.31690018  0.31047543  1
  Zn  Zn116  1  0.31151051  0.31553973  0.81617321  1
  Zn  Zn117  1  0.31783960  0.81303899  0.31294361  1
  Zn  Zn118  1  0.31080751  0.81220687  0.80803750  1
  Zn  Zn119  1  0.81316448  0.31192585  0.31063442  1
  Zn  Zn120  1  0.80842428  0.31425588  0.81414678  1
  Zn  Zn121  1  0.82061891  0.82420951  0.30531731  1
  Zn  Zn122  1  0.81460021  0.81531049  0.80823596  1
  Zn  Zn123  1  0.18925145  0.43945230  0.43880633  1
  Zn  Zn124  1  0.19190558  0.43741114  0.93859004  1
  Zn  Zn125  1  0.18776876  0.94155963  0.43726874  1
  Zn  Zn126  1  0.18322070  0.93577788  0.94062327  1
  Zn  Zn127  1  0.68612632  0.43769773  0.43622886  1
  Zn  Zn128  1  0.69269039  0.42746525  0.93433821  1
  Zn  Zn129  1  0.68391116  0.93527599  0.43384811  1
  Zn  Zn130  1  0.69302849  0.93070383  0.94374223  1
  Zn  Zn131  1  0.31165519  0.06086719  0.06012559  1
  Zn  Zn132  1  0.30939409  0.06498283  0.56207507  1
  Zn  Zn133  1  0.30715579  0.55862562  0.06270789  1
  Zn  Zn134  1  0.30967745  0.56193035  0.56548648  1
  Zn  Zn135  1  0.81144542  0.06257551  0.06477494  1
  Zn  Zn136  1  0.81846312  0.06039099  0.55476351  1
  Zn  Zn137  1  0.81554483  0.56622882  0.06111810  1
  Zn  Zn138  1  0.81346653  0.56543400  0.56165308  1
  Zn  Zn139  1  0.43546488  0.43217453  0.18667156  1
  Zn  Zn140  1  0.43429004  0.44195184  0.68469924  1
  Zn  Zn141  1  0.44242787  0.93925286  0.18665867  1
  Zn  Zn142  1  0.43552952  0.93737452  0.68536934  1
  Zn  Zn143  1  0.93595352  0.43851346  0.18292940  1
  Zn  Zn144  1  0.93631896  0.43773105  0.68896816  1
  Zn  Zn145  1  0.93411476  0.93503665  0.19742935  1
  Zn  Zn146  1  0.93895825  0.93499468  0.68877725  1
  Zn  Zn147  1  0.06969944  0.05955369  0.31135753  1
  Zn  Zn148  1  0.06039676  0.06578162  0.81136567  1
  Zn  Zn149  1  0.05920569  0.56472093  0.31643490  1
  Zn  Zn150  1  0.05830068  0.56249719  0.81650131  1
  Zn  Zn151  1  0.56464352  0.05925146  0.31639352  1
  Zn  Zn152  1  0.56191044  0.06475047  0.81275072  1
  Zn  Zn153  1  0.55485250  0.55694762  0.30640857  1
  Zn  Zn154  1  0.56002277  0.56283667  0.80761835  1
  Zn  Zn155  1  0.43805191  0.18836124  0.43834886  1
  Zn  Zn156  1  0.43789937  0.19062486  0.93683718  1
  Zn  Zn157  1  0.43918104  0.68807874  0.43470051  1
  Zn  Zn158  1  0.44062355  0.68795123  0.93617726  1
  Zn  Zn159  1  0.93722075  0.18373958  0.43359733  1
  Zn  Zn160  1  0.93227923  0.17948307  0.94138343  1
  Zn  Zn161  1  0.94116895  0.68887597  0.43848627  1
  Zn  Zn162  1  0.94095255  0.68369245  0.94184111  1
  Zn  Zn163  1  0.05582194  0.31238906  0.06271979  1
  Zn  Zn164  1  0.06464747  0.31209484  0.56237672  1
  Zn  Zn165  1  0.06208791  0.81367817  0.06300751  1
  Zn  Zn166  1  0.06592225  0.81055404  0.56314138  1
  Zn  Zn167  1  0.56075500  0.30764484  0.06566152  1
  Zn  Zn168  1  0.56506504  0.31258488  0.56711933  1
  Zn  Zn169  1  0.56557620  0.81496897  0.06205813  1
  Zn  Zn170  1  0.56302609  0.81334985  0.55870897  1
  O  O171  1  0.11441222  0.12372977  0.12354746  1
  O  O172  1  0.11929184  0.12081536  0.61784621  1
  O  O173  1  0.12714526  0.61997985  0.11608104  1
  O  O174  1  0.11602801  0.62520324  0.61924221  1
  O  O175  1  0.62784268  0.10866132  0.12298465  1
  O  O176  1  0.61930637  0.11978056  0.61993646  1
  O  O177  1  0.61228341  0.60821520  0.12956136  1
  O  O178  1  0.61950274  0.62164569  0.61578572  1
  O  O179  1  0.37759001  0.37419359  0.38156119  1
  O  O180  1  0.37166293  0.37983753  0.89077416  1
  O  O181  1  0.39247752  0.86960826  0.37834336  1
  O  O182  1  0.38241698  0.87916706  0.87729403  1
  O  O183  1  0.86806995  0.38366860  0.38725349  1
  O  O184  1  0.87209368  0.38031429  0.88662215  1
  O  O185  1  0.88554992  0.88488175  0.37999851  1
  O  O186  1  0.88354040  0.88650126  0.86963628  1
  O  O187  1  0.24897536  0.00682390  0.36329457  1
  O  O188  1  0.25226827  0.00380408  0.87136817  1
  O  O189  1  0.24987410  0.51408453  0.37631050  1
  O  O190  1  0.26156208  0.50149881  0.87350086  1
  O  O191  1  0.75707249  0.00738950  0.37919726  1
  O  O192  1  0.75669600  -0.00370874  0.86643331  1
  O  O193  1  0.75605174  0.49686219  0.36292221  1
  O  O194  1  0.76154670  0.49676679  0.86702502  1
  O  O195  1  0.23030770  0.49863111  0.12416775  1
  O  O196  1  0.24550607  0.49079506  0.62999780  1
  O  O197  1  0.25095113  0.99212475  0.13173197  1
  O  O198  1  0.24257380  0.99660270  0.63160801  1
  O  O199  1  0.74396889  0.49827803  0.13870070  1
  O  O200  1  0.74871532  0.49453541  0.62916474  1
  O  O201  1  0.73773238  0.99179870  0.11973068  1
  O  O202  1  0.74819846  0.99354794  0.62612108  1
  O  O203  1  -0.00001530  0.36612972  0.25040039  1
  O  O204  1  0.00682944  0.36206506  0.74363536  1
  O  O205  1  0.00458244  0.86508074  0.26394333  1
  O  O206  1  0.00334985  0.86696314  0.76132789  1
  O  O207  1  0.50943036  0.36727439  0.25218976  1
  O  O208  1  0.49902393  0.36405492  0.74115898  1
  O  O209  1  0.49838719  0.86620442  0.25676805  1
  O  O210  1  0.50632165  0.87734390  0.75732350  1
  O  O211  1  0.50147293  0.13249359  0.25451788  1
  O  O212  1  0.49223719  0.13112822  0.74310983  1
  O  O213  1  0.49127502  0.62814906  0.24140152  1
  O  O214  1  0.48781965  0.62664698  0.74025019  1
  O  O215  1  1.00394295  0.12868672  0.24310448  1
  O  O216  1  1.00090708  0.13710241  0.73798107  1
  O  O217  1  0.99953430  0.64313287  0.25877236  1
  O  O218  1  1.00430684  0.63388111  0.74136628  1
  O  O219  1  0.36964437  0.25736258  0.00641843  1
  O  O220  1  0.36222905  0.24498739  0.50738997  1
  O  O221  1  0.37198490  0.75352009  0.00937446  1
  O  O222  1  0.37715844  0.74884475  0.51287757  1
  O  O223  1  0.88369077  0.25854174  0.00904733  1
  O  O224  1  0.87109246  0.25721124  0.50259868  1
  O  O225  1  0.88232899  0.75205028  0.01230966  1
  O  O226  1  0.86863877  0.74637641  0.51059323  1
  O  O227  1  0.13367915  0.24272565  0.49538576  1
  O  O228  1  0.12962443  0.25066237  0.99437175  1
  O  O229  1  0.12180709  0.74088958  0.48922037  1
  O  O230  1  0.12707083  0.74214755  0.99507516  1
  O  O231  1  0.62949769  0.24404756  0.49524750  1
  O  O232  1  0.62323650  0.25126602  0.98767727  1
  O  O233  1  0.63184234  0.73785944  0.50147104  1
  O  O234  1  0.62265811  0.75274170  0.98058687  1
  O  O235  1  0.48723261  0.24909792  0.13213590  1
  O  O236  1  0.49362916  0.24411769  0.62962800  1
  O  O237  1  0.49455827  0.74226129  0.12560317  1
  O  O238  1  0.49233393  0.74544584  0.62570413  1
  O  O239  1  0.99732678  0.24461186  0.13869043  1
  O  O240  1  0.99432286  0.24450197  0.63089212  1
  O  O241  1  0.99181281  0.75876295  0.13502584  1
  O  O242  1  0.99464191  0.74603255  0.63117230  1
  O  O243  1  0.00545987  0.24643565  0.36301378  1
  O  O244  1  0.00649028  0.24213182  0.86674284  1
  O  O245  1  0.00685250  0.75957894  0.37307605  1
  O  O246  1  0.00251038  0.75437209  0.86981907  1
  O  O247  1  0.50779559  0.24743509  0.36873891  1
  O  O248  1  0.50886293  0.24683900  0.86504054  1
  O  O249  1  0.50427054  0.75694282  0.36839124  1
  O  O250  1  0.50586708  0.76229111  0.87106784  1
  O  O251  1  0.24156095  0.13226625  0.49443876  1
  O  O252  1  0.24720491  0.13536124  0.99463708  1
  O  O253  1  0.23732179  0.62138079  0.49645596  1
  O  O254  1  0.24140718  0.63259266  0.99875546  1
  O  O255  1  0.74287602  0.13221290  0.49962701  1
  O  O256  1  0.76469296  0.13218565  0.99251194  1
  O  O257  1  0.74335250  0.63783475  0.50228726  1
  O  O258  1  0.73671607  0.64106865  1.02409371  1
  O  O259  1  0.25381250  0.36186159  0.00475462  1
  O  O260  1  0.24369347  0.36590603  0.51037275  1
  O  O261  1  0.25677331  0.87017145  0.00775532  1
  O  O262  1  0.25251512  0.88306817  0.51348418  1
  O  O263  1  0.76105659  0.36504609  0.00424815  1
  O  O264  1  0.75554424  0.37028735  0.50873065  1
  O  O265  1  0.75268783  0.86962778  0.01615231  1
  O  O266  1  0.74303862  0.86154474  0.50468875  1
  O  O267  1  0.11844881  0.50622818  0.23685428  1
  O  O268  1  0.12200227  0.48680172  0.75292688  1
  O  O269  1  0.13923114  0.99494923  0.24588209  1
  O  O270  1  0.12978068  1.00168551  0.74007453  1
  O  O271  1  0.62916205  0.48914181  0.24616296  1
  O  O272  1  0.63344204  0.49994923  0.74321609  1
  O  O273  1  0.61986591  1.00023848  0.23646167  1
  O  O274  1  0.63165500  0.99502589  0.74313886  1
  O  O275  1  0.36193719  -0.00099633  0.24311453  1
  O  O276  1  0.36903469  0.00563814  0.75666452  1
  O  O277  1  0.37545247  0.50994047  0.25141384  1
  O  O278  1  0.37319091  0.50762072  0.75763210  1
  O  O279  1  0.88955739  0.00416434  0.27813823  1
  O  O280  1  0.86747979  -0.00026371  0.75462826  1
  O  O281  1  0.86818293  0.50236929  0.25591842  1
  O  O282  1  0.87063853  0.49716560  0.76425970  1
  O  O283  1  0.12480988  0.36208782  0.38339115  1
  O  O284  1  0.12927135  0.36237670  0.86900997  1
  O  O285  1  0.11888057  0.86813890  0.37964049  1
  O  O286  1  0.11850525  0.86179493  0.87512652  1
  O  O287  1  0.62225469  0.36578517  0.36839828  1
  O  O288  1  0.62688869  0.35902857  0.86968666  1
  O  O289  1  0.60196421  0.88021883  0.37876609  1
  O  O290  1  0.61911885  0.86965583  0.86835092  1
  O  O291  1  0.37369412  0.13847566  0.11794637  1
  O  O292  1  0.37770316  0.13234760  0.63131557  1
  O  O293  1  0.37994959  0.62736138  0.12808348  1
  O  O294  1  0.37627034  0.63176085  0.63151748  1
  O  O295  1  0.88490353  0.13814746  0.12417028  1
  O  O296  1  0.88295387  0.13084932  0.62532851  1
  O  O297  1  0.86932451  0.64705815  0.12933045  1
  O  O298  1  0.88859041  0.63303846  0.62021036  1
  O  O299  1  0.25883876  0.24853899  0.11962521  1
  O  O300  1  0.25299925  0.25535683  0.61756018  1
  O  O301  1  0.25723415  0.75490697  0.12116211  1
  O  O302  1  0.25569117  0.76088550  0.63053181  1
  O  O303  1  0.76140918  0.25211787  0.12846861  1
  O  O304  1  0.75573941  0.25731096  0.62240507  1
  O  O305  1  0.76492193  0.76552870  0.12727357  1
  O  O306  1  0.75765687  0.75664338  0.61738070  1
  O  O307  1  0.24221460  0.24324564  0.38055463  1
  O  O308  1  0.24260184  0.24533500  0.88299522  1
  O  O309  1  0.24355957  0.73940177  0.37121394  1
  O  O310  1  0.24110998  0.75014988  0.88115233  1
  O  O311  1  0.74624511  0.23955031  0.37851079  1
  O  O312  1  0.73586945  0.24581475  0.87111561  1
  O  O313  1  0.75306244  0.75056693  0.37466779  1
  O  O314  1  0.73779571  0.75690304  0.87254264  1
  O  O315  1  0.00123422  0.11578266  0.01180299  1
  O  O316  1  0.00943798  0.13424196  0.51181374  1
  O  O317  1  0.00926623  0.61093056  -0.00273739  1
  O  O318  1  0.00994564  0.61817821  0.50652607  1
  O  O319  1  0.49548554  0.10796181  -0.00605647  1
  O  O320  1  0.50541439  0.11504252  0.50376695  1
  O  O321  1  0.50614284  0.62587162  0.00972127  1
  O  O322  1  0.50862363  0.61904932  0.50237040  1
  O  O323  1  0.50871718  0.39164968  0.50322307  1
  O  O324  1  0.48710882  0.37149244  1.00190577  1
  O  O325  1  0.49686471  0.88726816  0.49890058  1
  O  O326  1  0.49491276  0.88088418  0.99163298  1
  O  O327  1  0.99036025  0.38418671  0.50802435  1
  O  O328  1  0.99256096  0.38767131  1.00131542  1
  O  O329  1  1.00144125  0.87045460  0.48966925  1
  O  O330  1  1.00445535  0.88096029  0.98782017  1
  O  O331  1  0.49966828  0.49882149  0.38928151  1
  O  O332  1  0.48691741  0.50224809  0.87208733  1
  O  O333  1  0.49784880  0.99688724  0.38764435  1
  O  O334  1  0.49756240  0.99082591  0.88097519  1
  O  O335  1  0.99181115  0.50159192  0.38743453  1
  O  O336  1  0.98430000  0.50102941  0.88130233  1
  O  O337  1  1.00826647  0.98575128  0.37835258  1
  O  O338  1  0.99650476  0.99316254  0.88034939  1
  O  O339  1  -0.00217996  0.00461880  0.12257071  1
  O  O340  1  0.00849361  0.00960930  0.63120233  1
  O  O341  1  0.00988935  0.50071272  0.11637942  1
  O  O342  1  -0.00052982  0.50746384  0.61756042  1
  O  O343  1  0.51396062  -0.00816542  0.11178435  1
  O  O344  1  0.50539594  0.00496629  0.61858062  1
  O  O345  1  0.50846109  0.50383880  0.12841500  1
  O  O346  1  0.50551495  0.50719859  0.61541426  1
  O  O347  1  0.24777723  0.37996610  0.24651508  1
  O  O348  1  0.23991226  0.37269499  0.74390779  1
  O  O349  1  0.25184264  0.88313933  0.24493920  1
  O  O350  1  0.24638776  0.88390987  0.74084216  1
  O  O351  1  0.73828048  0.37968693  0.24986424  1
  O  O352  1  0.75200446  0.38352509  0.73751578  1
  O  O353  1  0.75561640  0.88210623  0.23251232  1
  O  O354  1  0.74591804  0.88460300  0.73936184  1
  O  O355  1  0.24716322  0.11342766  0.25713612  1
  O  O356  1  0.25409774  0.12078661  0.75503758  1
  O  O357  1  0.25688860  0.61930872  0.25852516  1
  O  O358  1  0.26044002  0.62361587  0.75198441  1
  O  O359  1  0.74756479  0.12590935  0.26138347  1
  O  O360  1  0.75109178  0.11061011  0.74850022  1
  O  O361  1  0.74753618  0.62083389  0.25359999  1
  O  O362  1  0.75074050  0.61402277  0.74069129  1
  O  O363  1  0.36028636  0.12843507  0.38007383  1
  O  O364  1  0.36780867  0.11956642  0.87073585  1
  O  O365  1  0.36827088  0.62486453  0.36709426  1
  O  O366  1  0.37517159  0.62023154  0.86848856  1
  O  O367  1  0.85910067  0.12045005  0.37784614  1
  O  O368  1  0.87848738  0.10800054  0.86760087  1
  O  O369  1  0.87606082  0.61325924  0.37558435  1
  O  O370  1  0.87179846  0.61361757  0.87975255  1
  O  O371  1  0.12259866  0.38807032  0.12133252  1
  O  O372  1  0.13424584  0.37357235  0.63478709  1
  O  O373  1  0.14067270  0.87262193  0.12597765  1
  O  O374  1  0.12978202  0.88338337  0.62629882  1
  O  O375  1  0.62598921  0.37741710  0.13292201  1
  O  O376  1  0.63587351  0.38325068  0.62649391  1
  O  O377  1  0.63553277  0.88154146  0.12402514  1
  O  O378  1  0.63552760  0.87855639  0.62804550  1
  O  O379  1  0.11174977  0.24790802  0.25878613  1
  O  O380  1  0.11799635  0.25780297  0.75708253  1
  O  O381  1  0.12119976  0.75254796  0.26322848  1
  O  O382  1  0.11465686  0.75042659  0.75879929  1
  O  O383  1  0.61705694  0.25379635  0.25254450  1
  O  O384  1  0.61420152  0.25448309  0.75249503  1
  O  O385  1  0.63905260  0.73531154  0.25224273  1
  O  O386  1  0.62302254  0.75765384  0.75762529  1
  O  O387  1  0.38142692  0.25062928  0.23640619  1
  O  O388  1  0.38086899  0.24639304  0.74786027  1
  O  O389  1  0.37206749  0.73802879  0.23684812  1
  O  O390  1  0.37635009  0.74254067  0.74137228  1
  O  O391  1  0.88911559  0.25456013  0.24517046  1
  O  O392  1  0.88111340  0.24997842  0.74544187  1
  O  O393  1  0.88471962  0.74971829  0.24496902  1
  O  O394  1  0.88543539  0.75426969  0.73841322  1
  O  O395  1  0.39097965  0.50800590  0.50191781  1
  O  O396  1  0.37114488  0.48597540  0.99659121  1
  O  O397  1  0.38829047  0.99960088  0.50776671  1
  O  O398  1  0.38295253  0.99254950  0.99513644  1
  O  O399  1  0.87943968  0.49502623  0.49332641  1
  O  O400  1  0.87863540  0.49538466  0.99290187  1
  O  O401  1  0.88530946  1.00912979  0.47927010  1
  O  O402  1  0.88795579  1.00002889  0.99300241  1
  O  O403  1  0.11180913  0.00094507  0.00399695  1
  O  O404  1  0.13001163  0.01138949  0.51263740  1
  O  O405  1  0.11784928  0.50503185  0.00353672  1
  O  O406  1  0.11628808  0.50637866  0.50323374  1
  O  O407  1  0.61404504  -0.00154361  -0.00316616  1
  O  O408  1  0.61591973  0.00451656  0.50536121  1
  O  O409  1  0.63354927  0.49466941  0.01074044  1
  O  O410  1  0.62131322  0.51170296  0.50305259  1
  O  O411  1  0.37193451  0.36681286  0.11334483  1
  O  O412  1  0.36080396  0.36908161  0.63047762  1
  O  O413  1  0.36844529  0.86598667  0.12242722  1
  O  O414  1  0.36639120  0.86653410  0.62476789  1
  O  O415  1  0.87625408  0.36474330  0.11634651  1
  O  O416  1  0.86842412  0.37188914  0.61569773  1
  O  O417  1  0.87150004  0.86523066  0.12923178  1
  O  O418  1  0.86460745  0.86947282  0.62512863  1
  O  O419  1  0.13087449  0.13096178  0.38434442  1
  O  O420  1  0.12963287  0.13680415  0.87582461  1
  O  O421  1  0.13117793  0.63154588  0.38290003  1
  O  O422  1  0.12489884  0.63518619  0.88246732  1
  O  O423  1  0.63682855  0.12657151  0.38133022  1
  O  O424  1  0.62531009  0.14195279  0.86565786  1
  O  O425  1  0.62828821  0.62523094  0.37549780  1
  O  O426  1  0.61868517  0.64089419  0.87100248  1
