# generated using pymatgen
data_V85Zn86O256
_symmetry_space_group_name_H-M   'P 1'
_cell_length_a   16.91838670
_cell_length_b   16.92189389
_cell_length_c   16.91881911
_cell_angle_alpha   90.02607123
_cell_angle_beta   90.00812269
_cell_angle_gamma   89.99441842
_symmetry_Int_Tables_number   1
_chemical_formula_structural   V85Zn86O256
_chemical_formula_sum   'V85 Zn86 O256'
_cell_volume   4843.70751244
_cell_formula_units_Z   1
loop_
 _symmetry_equiv_pos_site_id
 _symmetry_equiv_pos_as_xyz
  1  'x, y, z'
loop_
 _atom_site_type_symbol
 _atom_site_label
 _atom_site_symmetry_multiplicity
 _atom_site_fract_x
 _atom_site_fract_y
 _atom_site_fract_z
 _atom_site_occupancy
  V  V0  1  0.12336245  0.37818250  0.74114920  1
  V  V1  1  0.37741510  0.37955063  0.00326843  1
  V  V2  1  0.02090006  0.78416272  0.22297814  1
  V  V3  1  0.38063794  0.12743522  0.24531669  1
  V  V4  1  0.75007624  0.62826793  0.87389644  1
  V  V5  1  0.23600417  -0.01201125  0.23516223  1
  V  V6  1  0.00132346  0.49759475  0.50429931  1
  V  V7  1  0.25151656  0.24942315  -0.00132610  1
  V  V8  1  0.24402337  0.49981406  0.24644251  1
  V  V9  1  0.62617696  0.88190389  0.73294721  1
  V  V10  1  -0.00399273  0.37018856  0.36893586  1
  V  V11  1  0.25104935  0.75017208  0.49995289  1
  V  V12  1  0.74626136  0.24928691  0.49819522  1
  V  V13  1  0.62409287  0.11903123  0.49937869  1
  V  V14  1  0.61630948  0.61988121  -0.00140314  1
  V  V15  1  0.50013311  0.37794871  0.87901551  1
  V  V16  1  0.62163615  0.24402070  0.88086013  1
  V  V17  1  0.49826304  0.24773128  0.75025231  1
  V  V18  1  -0.00141621  0.75326000  0.74384748  1
  V  V19  1  0.12863549  0.12277725  0.00543148  1
  V  V20  1  0.61785323  0.37634035  0.24601088  1
  V  V21  1  0.25281331  0.37789918  0.61579566  1
  V  V22  1  0.49272744  0.37017839  0.37569357  1
  V  V23  1  0.12340066  0.62221125  0.50461536  1
  V  V24  1  0.36637961  0.12108239  0.75164838  1
  V  V25  1  0.37309150  -0.00533257  0.37068590  1
  V  V26  1  0.00088467  0.37195801  0.87195671  1
  V  V27  1  0.25081720  0.62699808  0.87529523  1
  V  V28  1  0.37766784  0.62624337  0.74889696  1
  V  V29  1  0.75005439  0.75283209  0.00051848  1
  V  V30  1  0.87518342  0.74885917  0.12460584  1
  V  V31  1  0.25269375  0.75824393  0.01507987  1
  V  V32  1  0.37350732  0.63126664  0.24418012  1
  V  V33  1  0.75151523  0.24890005  0.00048674  1
  V  V34  1  0.13075954  0.88454990  0.74933191  1
  V  V35  1  0.74712123  -0.00066431  0.73687874  1
  V  V36  1  0.87836144  0.24323923  0.62217439  1
  V  V37  1  0.87296000  0.00204049  0.87642485  1
  V  V38  1  0.24321647  0.37838770  0.12240383  1
  V  V39  1  0.00632841  0.61636910  0.12612971  1
  V  V40  1  0.87614861  0.25221375  0.13454351  1
  V  V41  1  0.50210867  -0.00437743  0.50142867  1
  V  V42  1  0.24495480  0.12088986  0.37672242  1
  V  V43  1  0.86836443  0.50402638  0.37549957  1
  V  V44  1  0.00007055  0.87789710  0.87431737  1
  V  V45  1  0.87060508  -0.00273405  0.36921468  1
  V  V46  1  0.00217155  0.01536114  0.50631260  1
  V  V47  1  0.50136908  0.75597319  0.75179395  1
  V  V48  1  0.87393423  0.63103933  0.74654158  1
  V  V49  1  0.12083609  0.75216848  0.37767355  1
  V  V50  1  0.50103936  0.49835604  0.50136819  1
  V  V51  1  0.74561455  0.50502688  0.24708004  1
  V  V52  1  0.50578842  0.75094240  0.24258225  1
  V  V53  1  0.00448422  0.00308586  0.00381660  1
  V  V54  1  0.87565443  0.50107901  0.87404330  1
  V  V55  1  0.75212744  0.74232515  0.50907970  1
  V  V56  1  0.24824268  0.62465118  0.37636790  1
  V  V57  1  0.74550132  0.87988438  0.14286424  1
  V  V58  1  0.12125851  0.36938889  0.24701779  1
  V  V59  1  0.86796853  0.87228193  0.52028309  1
  V  V60  1  0.62360915  0.76366809  0.87489115  1
  V  V61  1  0.00228191  0.12944165  0.13395085  1
  V  V62  1  0.51346442  0.87037157  0.37135929  1
  V  V63  1  0.12101540  0.24537566  0.37876667  1
  V  V64  1  0.12601300  0.01387855  0.62300856  1
  V  V65  1  0.01037639  0.49834122  -0.00017541  1
  V  V66  1  0.00032533  0.87264438  0.38852730  1
  V  V67  1  0.12873654  0.75255523  0.87413292  1
  V  V68  1  0.37656440  -0.01471851  0.86926190  1
  V  V69  1  0.50356746  0.12093122  0.62557922  1
  V  V70  1  0.24739853  0.50043961  0.74436496  1
  V  V71  1  0.37987251  0.50175577  0.87593622  1
  V  V72  1  0.37611528  0.75115540  0.62350845  1
  V  V73  1  0.62546676  0.37620121  0.74768866  1
  V  V74  1  0.25135584  0.88294774  0.62429711  1
  V  V75  1  0.87191119  0.37436895  0.49955258  1
  V  V76  1  0.87679918  0.62771887  0.25330963  1
  V  V77  1  0.37624691  0.25231678  0.61449312  1
  V  V78  1  0.61942379  0.24787664  0.36718392  1
  V  V79  1  0.00098632  0.24041007  0.74528934  1
  V  V80  1  0.74381701  0.12076721  0.87823208  1
  V  V81  1  0.38321768  0.87406691  0.01819289  1
  V  V82  1  0.62267635  0.00801163  0.13387735  1
  V  V83  1  0.37191311  0.49608409  0.37985704  1
  V  V84  1  0.00519706  0.62065663  0.62838824  1
  Zn  Zn85  1  0.74923588  0.37481698  0.62681070  1
  Zn  Zn86  1  0.87263325  0.12187616  0.24965797  1
  Zn  Zn87  1  0.12702369  0.24726930  0.87337373  1
  Zn  Zn88  1  0.64314255  0.74180918  0.36848939  1
  Zn  Zn89  1  0.25136880  0.11924105  0.87529390  1
  Zn  Zn90  1  0.74836768  0.37749525  0.12175643  1
  Zn  Zn91  1  0.50989293  0.00339290  -0.00308137  1
  Zn  Zn92  1  0.87496846  0.87786937  0.00312354  1
  Zn  Zn93  1  0.63288528  0.62080451  0.49508091  1
  Zn  Zn94  1  0.74396021  0.11580158  0.36780350  1
  Zn  Zn95  1  0.38169561  0.25561486  0.13225016  1
  Zn  Zn96  1  0.50488287  0.62547434  0.62208286  1
  Zn  Zn97  1  0.61310937  0.49877231  0.11959738  1
  Zn  Zn98  1  0.51020751  0.13909770  0.11912566  1
  Zn  Zn99  1  0.87580560  0.37451317  0.00037936  1
  Zn  Zn100  1  0.12988543  0.62320509  0.00386504  1
  Zn  Zn101  1  0.24651640  0.24571073  0.49960467  1
  Zn  Zn102  1  0.87556228  0.12286722  0.74578090  1
  Zn  Zn103  1  0.62837728  0.50407943  0.62465483  1
  Zn  Zn104  1  0.37765478  0.87208750  0.49692663  1
  Zn  Zn105  1  0.48901071  0.62300398  0.11768718  1
  Zn  Zn106  1  0.74847348  0.50123096  0.74822482  1
  Zn  Zn107  1  0.19295238  0.18549192  0.18919748  1
  Zn  Zn108  1  0.18957122  0.19361031  0.68732727  1
  Zn  Zn109  1  0.18531067  0.68552631  0.18938728  1
  Zn  Zn110  1  0.18747126  0.69073894  0.68755348  1
  Zn  Zn111  1  0.69276004  0.18585870  0.19049267  1
  Zn  Zn112  1  0.68699848  0.18631692  0.68872831  1
  Zn  Zn113  1  0.68764725  0.68563440  0.18632434  1
  Zn  Zn114  1  0.68805385  0.69046619  0.68012868  1
  Zn  Zn115  1  0.30819041  0.30986287  0.31340087  1
  Zn  Zn116  1  0.31313280  0.31083470  0.80986797  1
  Zn  Zn117  1  0.31339602  0.81433639  0.30805084  1
  Zn  Zn118  1  0.31100598  0.81527454  0.81047328  1
  Zn  Zn119  1  0.80453369  0.31317550  0.31133348  1
  Zn  Zn120  1  0.81263835  0.30986230  0.81193945  1
  Zn  Zn121  1  0.82364695  0.80958734  0.31956187  1
  Zn  Zn122  1  0.81064513  0.81712436  0.80870241  1
  Zn  Zn123  1  0.18232641  0.43614771  0.43541393  1
  Zn  Zn124  1  0.18856480  0.43553566  0.93072622  1
  Zn  Zn125  1  0.18654104  0.93832268  0.43801260  1
  Zn  Zn126  1  0.19363350  0.94054239  0.94002211  1
  Zn  Zn127  1  0.68466558  0.43727718  0.43395527  1
  Zn  Zn128  1  0.68971766  0.43616777  0.93322779  1
  Zn  Zn129  1  0.69107738  0.93122382  0.44121390  1
  Zn  Zn130  1  0.68824855  0.93850622  0.94435550  1
  Zn  Zn131  1  0.31639203  0.05699057  0.06271506  1
  Zn  Zn132  1  0.31580801  0.06293158  0.55868078  1
  Zn  Zn133  1  0.30921669  0.56180135  0.06227582  1
  Zn  Zn134  1  0.31627021  0.56281542  0.56186917  1
  Zn  Zn135  1  0.81171156  0.06356145  0.06494539  1
  Zn  Zn136  1  0.81384532  0.06381498  0.55651757  1
  Zn  Zn137  1  0.81269235  0.56337511  0.06182015  1
  Zn  Zn138  1  0.81393617  0.56194803  0.56889029  1
  Zn  Zn139  1  0.43647021  0.44426862  0.18779976  1
  Zn  Zn140  1  0.43756877  0.43593824  0.68756279  1
  Zn  Zn141  1  0.44043299  0.93989391  0.19165891  1
  Zn  Zn142  1  0.43984805  0.93703776  0.68784049  1
  Zn  Zn143  1  0.93450475  0.43678895  0.18635698  1
  Zn  Zn144  1  0.93391841  0.43551055  0.68638881  1
  Zn  Zn145  1  0.95199162  0.93433303  0.18430506  1
  Zn  Zn146  1  0.94197762  0.94539326  0.68982294  1
  Zn  Zn147  1  0.06143195  0.05814359  0.31464299  1
  Zn  Zn148  1  0.06679959  0.06356909  0.81712345  1
  Zn  Zn149  1  0.06023697  0.55935959  0.31476204  1
  Zn  Zn150  1  0.06513494  0.56293784  0.81386117  1
  Zn  Zn151  1  0.56461187  0.05592825  0.30791163  1
  Zn  Zn152  1  0.55763575  0.05803850  0.81536945  1
  Zn  Zn153  1  0.56132277  0.56664940  0.31656540  1
  Zn  Zn154  1  0.56279266  0.56640555  0.81226181  1
  Zn  Zn155  1  0.43633510  0.18269172  0.43319491  1
  Zn  Zn156  1  0.43690006  0.18462837  0.94153894  1
  Zn  Zn157  1  0.44061471  0.68478462  0.43235754  1
  Zn  Zn158  1  0.43654156  0.69722244  0.93510827  1
  Zn  Zn159  1  0.93642664  0.18720230  0.43384382  1
  Zn  Zn160  1  0.93607930  0.18608589  0.93885729  1
  Zn  Zn161  1  0.93178730  0.68895513  0.44280843  1
  Zn  Zn162  1  0.94044228  0.68674916  0.93749823  1
  Zn  Zn163  1  0.06237298  0.30921928  0.06117833  1
  Zn  Zn164  1  0.06213578  0.31160225  0.56158131  1
  Zn  Zn165  1  0.06393506  0.81394929  0.05560703  1
  Zn  Zn166  1  0.06368413  0.81453762  0.56525225  1
  Zn  Zn167  1  0.56061092  0.31151156  0.06332859  1
  Zn  Zn168  1  0.55982864  0.31269679  0.55857793  1
  Zn  Zn169  1  0.56540421  0.81397004  0.06713633  1
  Zn  Zn170  1  0.56620023  0.80873152  0.55995111  1
  O  O171  1  0.11786867  0.13521103  0.11421641  1
  O  O172  1  0.13539552  0.11301270  0.62810525  1
  O  O173  1  0.11109680  0.62474855  0.12388957  1
  O  O174  1  0.11380192  0.62658877  0.62295743  1
  O  O175  1  0.62789875  0.11286485  0.12867849  1
  O  O176  1  0.61143731  0.13135041  0.61642538  1
  O  O177  1  0.62712816  0.62558975  0.10589316  1
  O  O178  1  0.62249996  0.62245320  0.61590534  1
  O  O179  1  0.38298325  0.38044765  0.36691425  1
  O  O180  1  0.38063412  0.38255350  0.87837787  1
  O  O181  1  0.38197746  0.88458198  0.37547362  1
  O  O182  1  0.37579596  0.88280797  0.87605714  1
  O  O183  1  0.87942133  0.37980028  0.37839166  1
  O  O184  1  0.88586275  0.38264720  0.87182015  1
  O  O185  1  0.88150649  0.88512113  0.39241009  1
  O  O186  1  0.88012745  0.88709978  0.87529430  1
  O  O187  1  0.25688925  0.00313305  0.37268355  1
  O  O188  1  0.26924174  0.00219812  0.87855533  1
  O  O189  1  0.25381268  0.50321131  0.37099233  1
  O  O190  1  0.25975637  0.50366500  0.86459754  1
  O  O191  1  0.76710346  -0.00314038  0.38260851  1
  O  O192  1  0.75518262  0.00519844  0.87327065  1
  O  O193  1  0.76192910  0.49526190  0.36566765  1
  O  O194  1  0.75976663  0.50806351  0.87137436  1
  O  O195  1  0.24866205  0.49215150  0.13376864  1
  O  O196  1  0.25830189  0.49403839  0.63668450  1
  O  O197  1  0.24649364  1.00108055  0.13570286  1
  O  O198  1  0.24533047  0.98921515  0.61605837  1
  O  O199  1  0.74918319  0.49979218  0.13605831  1
  O  O200  1  0.74847703  0.49303017  0.63041283  1
  O  O201  1  0.74817106  0.98515262  0.12334643  1
  O  O202  1  0.75226674  1.01095395  0.63809710  1
  O  O203  1  0.00873391  0.38287253  0.25716249  1
  O  O204  1  0.00636586  0.36989723  0.75324756  1
  O  O205  1  -0.01655956  0.87106871  0.28010018  1
  O  O206  1  0.00719225  0.86987599  0.75473780  1
  O  O207  1  0.51082056  0.38235809  0.25942565  1
  O  O208  1  0.50337211  0.36829524  0.76094543  1
  O  O209  1  0.49449319  0.85916886  0.25658852  1
  O  O210  1  0.51458603  0.87028735  0.74725670  1
  O  O211  1  0.48321944  0.11762846  0.24933717  1
  O  O212  1  0.49433339  0.12780445  0.74117462  1
  O  O213  1  0.48853798  0.63513457  0.25153208  1
  O  O214  1  0.49435742  0.63501767  0.74675452  1
  O  O215  1  0.99774089  0.11938892  0.23690172  1
  O  O216  1  1.00013488  0.13761857  0.75521547  1
  O  O217  1  0.98959947  0.61400468  0.23981431  1
  O  O218  1  0.99767516  0.63221259  0.74674805  1
  O  O219  1  0.36752831  0.26601655  -0.00197304  1
  O  O220  1  0.37401502  0.24418062  0.51139723  1
  O  O221  1  0.36274520  0.76164215  -0.00360836  1
  O  O222  1  0.36988164  0.74907335  0.50555445  1
  O  O223  1  0.86624995  0.25159139  0.00486309  1
  O  O224  1  0.86666656  0.25253503  0.50262631  1
  O  O225  1  0.86872306  0.74888627  0.00666135  1
  O  O226  1  0.87067630  0.76491646  0.50390349  1
  O  O227  1  0.12552927  0.25579017  0.48423785  1
  O  O228  1  0.13447852  0.24405707  0.99635857  1
  O  O229  1  0.13013227  0.74245020  0.49699277  1
  O  O230  1  0.13591946  0.75236777  0.99218499  1
  O  O231  1  0.62864045  0.24086944  0.49271999  1
  O  O232  1  0.63246408  0.25650455  0.98653900  1
  O  O233  1  0.64205409  0.75039758  0.49884214  1
  O  O234  1  0.63146618  0.74593904  0.99265209  1
  O  O235  1  0.49462633  0.25198613  0.12828827  1
  O  O236  1  0.49323537  0.24361733  0.62843235  1
  O  O237  1  0.50119831  0.74453418  0.13856780  1
  O  O238  1  0.49378473  0.75125799  0.63308137  1
  O  O239  1  0.98888193  0.24169881  0.11780099  1
  O  O240  1  0.99207203  0.25438747  0.63258220  1
  O  O241  1  0.99176942  0.73474293  0.12073013  1
  O  O242  1  1.00582963  0.74328774  0.63880748  1
  O  O243  1  0.00294141  0.26182272  0.37591629  1
  O  O244  1  -0.00095918  0.25833433  0.86716317  1
  O  O245  1  0.00732326  0.75617900  0.38346012  1
  O  O246  1  0.01222274  0.75540480  0.86998618  1
  O  O247  1  0.50633815  0.25822203  0.38038841  1
  O  O248  1  0.50502704  0.25610111  0.87187008  1
  O  O249  1  0.50080958  0.75822296  0.36758066  1
  O  O250  1  0.50861368  0.74875116  0.86018105  1
  O  O251  1  0.25501661  0.12422515  0.48232776  1
  O  O252  1  0.24649563  0.13251297  1.00252879  1
  O  O253  1  0.24340491  0.62848905  0.49651536  1
  O  O254  1  0.25061309  0.63823152  0.99392273  1
  O  O255  1  0.74020969  0.13030317  0.49394048  1
  O  O256  1  0.75339917  0.13414390  0.98735745  1
  O  O257  1  0.76026682  0.63841687  0.50292538  1
  O  O258  1  0.74487888  0.63614562  0.99429455  1
  O  O259  1  0.25271984  0.37132562  0.00524849  1
  O  O260  1  0.24480634  0.37810997  0.51318486  1
  O  O261  1  0.25797419  0.86338138  -0.00085964  1
  O  O262  1  0.25212507  0.86759260  0.50698140  1
  O  O263  1  0.75318443  0.36312901  -0.00396141  1
  O  O264  1  0.75403262  0.36653266  0.49964110  1
  O  O265  1  0.75464427  0.86158914  0.00633887  1
  O  O266  1  0.76444120  0.87579414  0.50966362  1
  O  O267  1  0.13690244  0.48876255  0.25915533  1
  O  O268  1  0.13565635  0.49238554  0.75414873  1
  O  O269  1  0.13693966  1.00017398  0.25308904  1
  O  O270  1  0.11836711  0.99105492  0.74229501  1
  O  O271  1  0.63199292  0.49653279  0.24978889  1
  O  O272  1  0.62444204  0.49040747  0.75074290  1
  O  O273  1  0.62867856  0.99462130  0.23556449  1
  O  O274  1  0.62995074  0.98849352  0.75408270  1
  O  O275  1  0.36694842  0.00631700  0.25607914  1
  O  O276  1  0.37975777  0.00501792  0.75998006  1
  O  O277  1  0.36116670  0.50461110  0.26057604  1
  O  O278  1  0.36901242  0.50518423  0.75676707  1
  O  O279  1  0.88577997  -0.00550780  0.26788484  1
  O  O280  1  0.86704363  0.00236409  0.75746555  1
  O  O281  1  0.86755745  0.50598144  0.25655481  1
  O  O282  1  0.87729092  0.50840570  0.76056332  1
  O  O283  1  0.11531811  0.36905078  0.36706320  1
  O  O284  1  0.11493707  0.37355526  0.86305413  1
  O  O285  1  0.11724517  0.86071221  0.38466531  1
  O  O286  1  0.12329195  0.87279314  0.86762131  1
  O  O287  1  0.61481548  0.36743269  0.36861272  1
  O  O288  1  0.61669108  0.36981249  0.86752707  1
  O  O289  1  0.61591302  0.87217386  0.37640428  1
  O  O290  1  0.62952128  0.86540402  0.87203285  1
  O  O291  1  0.37018314  0.12457477  0.14012507  1
  O  O292  1  0.38383433  0.12961876  0.63022932  1
  O  O293  1  0.36848109  0.62243047  0.13959957  1
  O  O294  1  0.37523871  0.63531357  0.63216462  1
  O  O295  1  0.88303041  0.13405086  0.12520387  1
  O  O296  1  0.87144357  0.13878634  0.62496157  1
  O  O297  1  0.88108097  0.63341982  0.12932969  1
  O  O298  1  0.88750539  0.62223041  0.64029052  1
  O  O299  1  0.25555412  0.25868944  0.11481034  1
  O  O300  1  0.25734466  0.25883923  0.62048313  1
  O  O301  1  0.24172474  0.75034608  0.11332141  1
  O  O302  1  0.25545780  0.75949897  0.62082925  1
  O  O303  1  0.75631505  0.25106599  0.11455753  1
  O  O304  1  0.75338009  0.25043598  0.61320892  1
  O  O305  1  0.75746484  0.75464522  0.11981274  1
  O  O306  1  0.75432137  0.75372149  0.61079090  1
  O  O307  1  0.24041226  0.24166815  0.37774033  1
  O  O308  1  0.25020098  0.25071853  0.88700349  1
  O  O309  1  0.24158225  0.74484885  0.37880445  1
  O  O310  1  0.24038432  0.74829581  0.87646943  1
  O  O311  1  0.73954947  0.25083479  0.38652775  1
  O  O312  1  0.74316959  0.24128274  0.87870329  1
  O  O313  1  0.75556562  0.76248154  0.39587802  1
  O  O314  1  0.74471760  0.74770408  0.88149406  1
  O  O315  1  0.00923797  0.12078414  0.00436056  1
  O  O316  1  -0.00099992  0.11375346  0.49995038  1
  O  O317  1  0.00334444  0.61569110  0.00552475  1
  O  O318  1  0.00025851  0.61851258  0.51080050  1
  O  O319  1  0.48805954  0.11573966  0.00966483  1
  O  O320  1  0.50507177  0.11693180  0.50471399  1
  O  O321  1  0.51306147  0.63482522  -0.00354704  1
  O  O322  1  0.49516969  0.60895612  0.50017772  1
  O  O323  1  0.50081188  0.38464997  0.48787620  1
  O  O324  1  0.49226496  0.37473388  0.98710295  1
  O  O325  1  0.50061417  0.88080324  0.49319196  1
  O  O326  1  0.48604800  0.87031237  1.00443106  1
  O  O327  1  0.99312279  0.38166672  0.49334713  1
  O  O328  1  1.00008940  0.38059105  0.98931244  1
  O  O329  1  0.99181632  0.87875213  0.50023530  1
  O  O330  1  0.99857019  0.88492652  0.99054143  1
  O  O331  1  0.48955613  0.49163186  0.37876419  1
  O  O332  1  0.48767026  0.49447940  0.86973512  1
  O  O333  1  0.49442986  0.99121087  0.37995278  1
  O  O334  1  0.48262851  1.00218910  0.88024461  1
  O  O335  1  0.98928327  0.48963403  0.38112791  1
  O  O336  1  0.99508524  0.49341390  0.87878349  1
  O  O337  1  0.99696633  0.99303653  0.39026776  1
  O  O338  1  0.99233798  0.99910422  0.88238250  1
  O  O339  1  -0.00746342  0.01267379  0.10983474  1
  O  O340  1  0.00923887  0.00224424  0.61516347  1
  O  O341  1  -0.00858883  0.50444753  0.11090265  1
  O  O342  1  -0.00445982  0.50649455  0.61654160  1
  O  O343  1  0.51527677  -0.00161070  0.12735175  1
  O  O344  1  0.49473239  0.00671693  0.61091148  1
  O  O345  1  0.49974038  0.50986207  0.12489710  1
  O  O346  1  0.49889205  0.49829006  0.61439935  1
  O  O347  1  0.24391326  0.38066064  0.24204068  1
  O  O348  1  0.24286525  0.38133552  0.74343158  1
  O  O349  1  0.25044896  0.88839240  0.25142668  1
  O  O350  1  0.24028182  0.87232645  0.73920668  1
  O  O351  1  0.73608280  0.38551581  0.24974193  1
  O  O352  1  0.73861777  0.37432447  0.75166764  1
  O  O353  1  0.76068577  0.86738782  0.23981723  1
  O  O354  1  0.73650551  0.88436209  0.75205486  1
  O  O355  1  0.25672023  0.11469858  0.25978648  1
  O  O356  1  0.26342375  0.12933458  0.74948665  1
  O  O357  1  0.25144780  0.61845109  0.25657703  1
  O  O358  1  0.25479511  0.61898834  0.75440878  1
  O  O359  1  0.75992174  0.12942166  0.25793049  1
  O  O360  1  0.74941878  0.11819122  0.76152667  1
  O  O361  1  0.76571514  0.62044288  0.24506073  1
  O  O362  1  0.75901453  0.62901407  0.75514643  1
  O  O363  1  0.36975071  0.11354164  0.36620127  1
  O  O364  1  0.37343723  0.12026251  0.86413543  1
  O  O365  1  0.36630360  0.61618106  0.36682724  1
  O  O366  1  0.37099463  0.61995916  0.87067269  1
  O  O367  1  0.87840192  0.10736957  0.37629414  1
  O  O368  1  0.86784812  0.11506189  0.87203982  1
  O  O369  1  0.88392138  0.61571399  0.36623796  1
  O  O370  1  0.87366143  0.61995904  0.86622722  1
  O  O371  1  0.13419203  0.37005013  0.13083500  1
  O  O372  1  0.13277410  0.37195334  0.63497625  1
  O  O373  1  0.05674696  0.86202277  0.15713287  1
  O  O374  1  0.13256339  0.88265849  0.63191184  1
  O  O375  1  0.62762906  0.37953538  0.13187333  1
  O  O376  1  0.62147065  0.37049629  0.63951024  1
  O  O377  1  0.64283919  0.87163671  0.13070209  1
  O  O378  1  0.62479859  0.87766142  0.63448643  1
  O  O379  1  0.13172841  0.26306853  0.25910050  1
  O  O380  1  0.11814684  0.25841936  0.75152767  1
  O  O381  1  0.11212544  0.74069803  0.26136406  1
  O  O382  1  0.11987359  0.76038754  0.75656525  1
  O  O383  1  0.62985606  0.25930975  0.26143240  1
  O  O384  1  0.61865113  0.25495193  0.76050530  1
  O  O385  1  0.61041678  0.74181147  0.25163640  1
  O  O386  1  0.62143042  0.76149469  0.75345376  1
  O  O387  1  0.36642424  0.23140924  0.25247710  1
  O  O388  1  0.38121543  0.24126180  0.74230629  1
  O  O389  1  0.38417883  0.73991778  0.25683378  1
  O  O390  1  0.38323016  0.74868184  0.74538319  1
  O  O391  1  0.87222722  0.25459626  0.23761782  1
  O  O392  1  0.88262002  0.24896075  0.74086343  1
  O  O393  1  0.89309468  0.74404752  0.24250896  1
  O  O394  1  0.88703687  0.74361281  0.75995282  1
  O  O395  1  0.37749764  0.50036438  0.48587324  1
  O  O396  1  0.36561757  0.48857721  0.98980818  1
  O  O397  1  0.38550887  0.99847857  0.48930124  1
  O  O398  1  0.37402873  0.98230691  0.99373718  1
  O  O399  1  0.88138022  0.49675568  0.49327269  1
  O  O400  1  0.88227067  0.50098073  0.98631998  1
  O  O401  1  0.88685597  0.99289864  0.49939766  1
  O  O402  1  0.88153864  1.00036577  0.99215449  1
  O  O403  1  0.11717571  0.00820616  -0.00334716  1
  O  O404  1  0.11055325  -0.00498660  0.50802095  1
  O  O405  1  0.11452129  0.50179008  -0.00890964  1
  O  O406  1  0.10895355  0.50556428  0.49342191  1
  O  O407  1  0.62433174  -0.01316457  0.02207952  1
  O  O408  1  0.61876072  0.01103518  0.49275494  1
  O  O409  1  0.63071774  0.51709787  -0.00657238  1
  O  O410  1  0.61519866  0.49733024  0.50206120  1
  O  O411  1  0.36361818  0.37835941  0.11769305  1
  O  O412  1  0.36547198  0.36374976  0.63234309  1
  O  O413  1  0.37545097  0.87757320  0.11646175  1
  O  O414  1  0.36778797  0.86934197  0.62374687  1
  O  O415  1  0.87094265  0.36757604  0.12033145  1
  O  O416  1  0.87264408  0.36339647  0.61681251  1
  O  O417  1  0.87206069  0.86238705  0.12443839  1
  O  O418  1  0.88164294  0.87910348  0.61824275  1
  O  O419  1  0.13057057  0.13381699  0.36856201  1
  O  O420  1  0.13138866  0.12729710  0.88767527  1
  O  O421  1  0.12628917  0.63247162  0.38281989  1
  O  O422  1  0.13208264  0.63573206  0.87636966  1
  O  O423  1  0.62061311  0.13170868  0.38030799  1
  O  O424  1  0.63057847  0.13224313  0.87088846  1
  O  O425  1  0.62509159  0.62881718  0.38182820  1
  O  O426  1  0.63009553  0.63598373  0.88163717  1
