# generated using pymatgen
data_V85Zn86O256
_symmetry_space_group_name_H-M   'P 1'
_cell_length_a   16.91759390
_cell_length_b   16.92679958
_cell_length_c   16.93621904
_cell_angle_alpha   90.05836024
_cell_angle_beta   90.02473233
_cell_angle_gamma   90.00960083
_symmetry_Int_Tables_number   1
_chemical_formula_structural   V85Zn86O256
_chemical_formula_sum   'V85 Zn86 O256'
_cell_volume   4849.86486517
_cell_formula_units_Z   1
loop_
 _symmetry_equiv_pos_site_id
 _symmetry_equiv_pos_as_xyz
  1  'x, y, z'
loop_
 _atom_site_type_symbol
 _atom_site_label
 _atom_site_symmetry_multiplicity
 _atom_site_fract_x
 _atom_site_fract_y
 _atom_site_fract_z
 _atom_site_occupancy
  V  V0  1  0.74989022  0.13447557  0.37507470  1
  V  V1  1  0.57682443  0.06169674  0.05935250  1
  V  V2  1  0.87033169  0.37491151  -0.00042359  1
  V  V3  1  0.49641596  0.24277965  0.74644216  1
  V  V4  1  0.87218245  0.25571637  0.62557727  1
  V  V5  1  0.62316032  0.24469900  0.87281694  1
  V  V6  1  0.50146626  0.62689903  0.62899560  1
  V  V7  1  0.37677087  0.74955370  0.63420446  1
  V  V8  1  0.62944489  -0.00595279  0.62507532  1
  V  V9  1  0.00047280  0.00410151  0.50352730  1
  V  V10  1  0.12447655  0.87518123  0.24855419  1
  V  V11  1  0.74332990  0.00312313  0.24987419  1
  V  V12  1  0.75116185  0.49425074  0.74070397  1
  V  V13  1  0.24811456  0.87921078  0.62905217  1
  V  V14  1  0.13452969  0.38061126  0.75220438  1
  V  V15  1  0.37672662  0.49578267  0.88572525  1
  V  V16  1  0.62713949  0.12860748  0.50008337  1
  V  V17  1  0.36654416  0.11223841  0.74538713  1
  V  V18  1  0.87443418  0.74915595  0.12166793  1
  V  V19  1  0.00222896  0.24700859  0.74481719  1
  V  V20  1  0.75033643  -0.00711804  0.74702762  1
  V  V21  1  0.36901320  0.50140485  0.37267243  1
  V  V22  1  0.74256793  0.87794627  0.12602713  1
  V  V23  1  0.87712340  0.49874083  0.36468028  1
  V  V24  1  0.49984278  -0.00192505  0.50183651  1
  V  V25  1  0.11786210  -0.00253401  0.11931746  1
  V  V26  1  0.87420037  0.75468707  0.62635899  1
  V  V27  1  0.37692358  -0.00258105  0.88485420  1
  V  V28  1  0.62062836  0.86235430  0.74930253  1
  V  V29  1  0.62905401  0.37073860  0.73975243  1
  V  V30  1  0.87589986  0.00319396  0.37688621  1
  V  V31  1  0.24994545  0.00806514  0.24898420  1
  V  V32  1  0.43850702  0.17672404  0.19424126  1
  V  V33  1  0.37397829  0.87423127  0.50146747  1
  V  V34  1  0.12168613  0.12267786  -0.00011907  1
  V  V35  1  0.74826963  0.62217172  0.36754697  1
  V  V36  1  0.37366789  0.61275131  0.74833849  1
  V  V37  1  0.12743333  0.87835701  0.75352169  1
  V  V38  1  0.87214558  0.50066580  0.87481294  1
  V  V39  1  0.73916008  0.39171281  0.12902076  1
  V  V40  1  0.87687548  0.62594511  0.75058565  1
  V  V41  1  0.26449045  0.25647790  0.00969399  1
  V  V42  1  0.74831186  0.12454196  0.87566490  1
  V  V43  1  0.74794364  0.26146322  0.50300842  1
  V  V44  1  0.50293961  0.86253109  0.87800834  1
  V  V45  1  0.12542994  0.50050087  0.62558935  1
  V  V46  1  0.14401935  0.37990257  0.24669195  1
  V  V47  1  0.73847907  0.62749690  0.87202209  1
  V  V48  1  0.73755176  0.25193914  0.00262489  1
  V  V49  1  -0.00107054  0.87638779  0.37610995  1
  V  V50  1  -0.00151326  0.25789838  0.24703943  1
  V  V51  1  0.86745064  0.25169393  0.12354811  1
  V  V52  1  0.73927831  0.75033757  -0.00449047  1
  V  V53  1  0.50564377  0.35878516  0.37698643  1
  V  V54  1  0.88036187  0.88003750  0.00110020  1
  V  V55  1  0.12477368  0.74939910  0.87573378  1
  V  V56  1  0.74994642  0.75623484  0.50023732  1
  V  V57  1  0.12452885  0.74907918  0.37508979  1
  V  V58  1  -0.00411146  0.12407841  0.12098585  1
  V  V59  1  0.11894004  0.12736609  0.50359048  1
  V  V60  1  0.26048673  0.87432895  0.12555177  1
  V  V61  1  0.36966017  0.62715012  0.24132429  1
  V  V62  1  -0.00001071  0.37579191  0.87688444  1
  V  V63  1  0.13896051  0.49887402  0.12401703  1
  V  V64  1  0.37416349  0.00324659  0.37254089  1
  V  V65  1  0.87328384  0.87780588  0.50586518  1
  V  V66  1  0.49573948  0.75769315  0.24724574  1
  V  V67  1  0.61938873  0.37798582  0.24857951  1
  V  V68  1  0.24957035  0.61905482  0.87108109  1
  V  V69  1  0.62540613  0.62652556  0.49863261  1
  V  V70  1  0.24994879  0.25360400  0.50362352  1
  V  V71  1  0.49714724  0.37412784  0.87327564  1
  V  V72  1  0.51171093  0.62769906  0.12412685  1
  V  V73  1  0.87401111  0.12722518  0.24972516  1
  V  V74  1  0.49896340  0.50179790  0.49611021  1
  V  V75  1  0.12273080  0.00559549  0.63084173  1
  V  V76  1  0.11610343  0.61933647  0.49846447  1
  V  V77  1  0.87873289  0.12267377  0.74321167  1
  V  V78  1  0.24877708  0.74664933  0.49960120  1
  V  V79  1  0.88127227  0.00205406  0.88150209  1
  V  V80  1  0.25695363  0.75030050  0.00282270  1
  V  V81  1  -0.00260622  0.74721337  0.24838976  1
  V  V82  1  0.12477315  0.25118146  0.37363504  1
  V  V83  1  0.88015927  0.38653999  0.50487741  1
  V  V84  1  0.12838566  0.24892482  0.87850784  1
  Zn  Zn85  1  0.00026467  0.61992198  0.12284740  1
  Zn  Zn86  1  0.38413609  0.87505788  0.00699956  1
  Zn  Zn87  1  0.37183009  0.25105064  0.62681528  1
  Zn  Zn88  1  0.49864010  0.12193014  0.62493474  1
  Zn  Zn89  1  0.62364731  0.75356204  0.37398475  1
  Zn  Zn90  1  0.62860805  0.49508989  0.61939037  1
  Zn  Zn91  1  0.00078543  0.75115490  0.75053032  1
  Zn  Zn92  1  0.24763042  0.62073089  0.36916706  1
  Zn  Zn93  1  0.24964541  0.12708417  0.37270802  1
  Zn  Zn94  1  0.50148937  0.87396356  0.37681339  1
  Zn  Zn95  1  0.50138284  0.46724182  0.03371663  1
  Zn  Zn96  1  0.00017481  0.50203904  0.00375311  1
  Zn  Zn97  1  0.62029405  0.61332430  -0.00163969  1
  Zn  Zn98  1  0.62093826  0.88028422  0.25140599  1
  Zn  Zn99  1  -0.00255932  0.62095582  0.62155735  1
  Zn  Zn100  1  0.00372962  0.87879719  0.87997467  1
  Zn  Zn101  1  0.86894654  0.62176964  0.24431037  1
  Zn  Zn102  1  0.37459070  0.37471749  0.50203939  1
  Zn  Zn103  1  0.24797087  0.11575162  0.87423377  1
  Zn  Zn104  1  0.12371388  0.62399883  0.00082012  1
  Zn  Zn105  1  0.25623065  0.38125653  0.63142398  1
  Zn  Zn106  1  0.00346576  0.38328643  0.37815064  1
  Zn  Zn107  1  0.18873986  0.18998299  0.18367474  1
  Zn  Zn108  1  0.18848811  0.18875438  0.68793676  1
  Zn  Zn109  1  0.18774451  0.68789342  0.18444538  1
  Zn  Zn110  1  0.18819887  0.68680475  0.68854123  1
  Zn  Zn111  1  0.64308210  0.20497721  0.17542419  1
  Zn  Zn112  1  0.69011460  0.18327764  0.68534623  1
  Zn  Zn113  1  0.68524943  0.69550115  0.18977268  1
  Zn  Zn114  1  0.69249051  0.68425213  0.68224038  1
  Zn  Zn115  1  0.32112568  0.30796328  0.31409823  1
  Zn  Zn116  1  0.31419653  0.30615370  0.81875425  1
  Zn  Zn117  1  0.31348854  0.81429986  0.31222979  1
  Zn  Zn118  1  0.31256848  0.81234874  0.81397659  1
  Zn  Zn119  1  0.80511116  0.31642277  0.31002600  1
  Zn  Zn120  1  0.81148519  0.31242686  0.81108888  1
  Zn  Zn121  1  0.81165083  0.81331217  0.31375012  1
  Zn  Zn122  1  0.81105001  0.81338653  0.81434316  1
  Zn  Zn123  1  0.18612414  0.43758245  0.43766108  1
  Zn  Zn124  1  0.19229311  0.43592729  0.94175196  1
  Zn  Zn125  1  0.18742881  0.93726011  0.43839856  1
  Zn  Zn126  1  0.19406054  0.93901784  0.93846482  1
  Zn  Zn127  1  0.68644261  0.44092856  0.43039920  1
  Zn  Zn128  1  0.67701355  0.43786659  0.93646965  1
  Zn  Zn129  1  0.68756168  0.93804633  0.43428633  1
  Zn  Zn130  1  0.68994792  0.93293472  0.93201143  1
  Zn  Zn131  1  0.31029301  0.06780668  0.06258248  1
  Zn  Zn132  1  0.30728543  0.06382811  0.56073537  1
  Zn  Zn133  1  0.31555156  0.56432685  0.06137562  1
  Zn  Zn134  1  0.30849616  0.56045290  0.56154135  1
  Zn  Zn135  1  0.79246865  0.06716717  0.06444055  1
  Zn  Zn136  1  0.81131302  0.06585587  0.56474854  1
  Zn  Zn137  1  0.81164754  0.56559230  0.05696076  1
  Zn  Zn138  1  0.81257334  0.56676723  0.55988490  1
  Zn  Zn139  1  0.43605147  0.44019518  0.19636932  1
  Zn  Zn140  1  0.43979790  0.43560676  0.68590165  1
  Zn  Zn141  1  0.44125287  0.95490674  0.18489674  1
  Zn  Zn142  1  0.44225164  0.93612062  0.68927518  1
  Zn  Zn143  1  0.93784134  0.43796379  0.18349232  1
  Zn  Zn144  1  0.94379543  0.43806403  0.68710879  1
  Zn  Zn145  1  0.93359755  0.93728281  0.18775136  1
  Zn  Zn146  1  0.94236494  0.93668814  0.68930994  1
  Zn  Zn147  1  0.06259115  0.06598140  0.31059772  1
  Zn  Zn148  1  0.06141029  0.06271332  0.81189777  1
  Zn  Zn149  1  0.06098069  0.56115448  0.30926210  1
  Zn  Zn150  1  0.06180665  0.56107122  0.81272184  1
  Zn  Zn151  1  0.56347849  0.06366692  0.31899049  1
  Zn  Zn152  1  0.55899603  0.05743977  0.81633128  1
  Zn  Zn153  1  0.56193044  0.56169200  0.30856346  1
  Zn  Zn154  1  0.56198060  0.55821419  0.80958232  1
  Zn  Zn155  1  0.43474338  0.18198201  0.43961184  1
  Zn  Zn156  1  0.44295464  0.17654021  0.93853607  1
  Zn  Zn157  1  0.43602417  0.68741080  0.43495212  1
  Zn  Zn158  1  0.43667553  0.68807643  0.93692736  1
  Zn  Zn159  1  0.93828545  0.19367433  0.43889342  1
  Zn  Zn160  1  0.93642414  0.18897269  0.93689820  1
  Zn  Zn161  1  0.93456422  0.68638174  0.43512353  1
  Zn  Zn162  1  0.93776275  0.68728753  0.93863315  1
  Zn  Zn163  1  0.06568310  0.31431439  0.06355356  1
  Zn  Zn164  1  0.06038070  0.31658092  0.56494845  1
  Zn  Zn165  1  0.06423979  0.81098118  0.06071895  1
  Zn  Zn166  1  0.05989553  0.81158495  0.56449826  1
  Zn  Zn167  1  0.51411438  0.30983833  0.07972019  1
  Zn  Zn168  1  0.55895754  0.31081503  0.56166764  1
  Zn  Zn169  1  0.56070041  0.81275657  0.06518381  1
  Zn  Zn170  1  0.56249809  0.81202544  0.56512441  1
  O  O171  1  0.11783416  0.11790795  0.11857511  1
  O  O172  1  0.12895829  0.11605838  0.61898132  1
  O  O173  1  0.12500167  0.60998997  0.12694390  1
  O  O174  1  0.12387716  0.62022823  0.61771018  1
  O  O175  1  0.65141632  0.11419144  0.11191541  1
  O  O176  1  0.62718852  0.11287464  0.61587829  1
  O  O177  1  0.61560645  0.63463568  0.12262974  1
  O  O178  1  0.61699040  0.62348939  0.61827098  1
  O  O179  1  0.38800452  0.38292016  0.37542454  1
  O  O180  1  0.38284948  0.38413073  0.86645417  1
  O  O181  1  0.37257803  0.88421200  0.38607991  1
  O  O182  1  0.38476529  0.88168996  0.87274164  1
  O  O183  1  0.87295024  0.38737599  0.37994948  1
  O  O184  1  0.88112487  0.37809556  0.87892893  1
  O  O185  1  0.88045648  0.88209678  0.38359852  1
  O  O186  1  0.87506425  0.88435752  0.88300312  1
  O  O187  1  0.25287849  -0.00088795  0.36610161  1
  O  O188  1  0.26882309  -0.00340037  0.87183605  1
  O  O189  1  0.26453728  0.50023743  0.38025655  1
  O  O190  1  0.25870747  0.50934651  0.88098566  1
  O  O191  1  0.75884746  0.01094830  0.37244398  1
  O  O192  1  0.75833905  0.00760946  0.86685684  1
  O  O193  1  0.76346408  0.51093827  0.38155035  1
  O  O194  1  0.75392351  0.50693885  0.86470465  1
  O  O195  1  0.23926200  0.50035489  0.12109061  1
  O  O196  1  0.23464045  0.49771088  0.62258842  1
  O  O197  1  0.23904656  0.99468271  0.13104937  1
  O  O198  1  0.23887880  0.98648435  0.61769558  1
  O  O199  1  0.74743549  0.48949510  0.11610276  1
  O  O200  1  0.74920593  0.50695295  0.63705558  1
  O  O201  1  0.76291068  0.98883564  0.13966012  1
  O  O202  1  0.74398451  1.00292376  0.63556765  1
  O  O203  1  0.00141319  0.36426779  0.25184065  1
  O  O204  1  0.00527192  0.36678253  0.76191084  1
  O  O205  1  0.00304537  0.86594923  0.25458141  1
  O  O206  1  0.01399262  0.87269073  0.75455461  1
  O  O207  1  0.50977588  0.37590437  0.26597719  1
  O  O208  1  0.50724180  0.36306646  0.75368916  1
  O  O209  1  0.49484924  0.86690546  0.24914157  1
  O  O210  1  0.51399762  0.87286225  0.75439025  1
  O  O211  1  0.48478868  0.12036616  0.26432498  1
  O  O212  1  0.48985206  0.12723860  0.74776578  1
  O  O213  1  0.49461108  0.63811500  0.24458224  1
  O  O214  1  0.49298747  0.62021856  0.73585331  1
  O  O215  1  0.99531548  0.13754320  0.24312816  1
  O  O216  1  0.99127293  0.13515636  0.75509952  1
  O  O217  1  0.99597304  0.63779754  0.24822696  1
  O  O218  1  0.98606365  0.62736954  0.75245888  1
  O  O219  1  0.36295451  0.23752946  -0.00813332  1
  O  O220  1  0.36319974  0.24841461  0.50197254  1
  O  O221  1  0.36094622  0.75515097  -0.00571093  1
  O  O222  1  0.36564242  0.75320185  0.50777473  1
  O  O223  1  0.86402138  0.25744107  0.00199364  1
  O  O224  1  0.86903250  0.25723526  0.50904657  1
  O  O225  1  0.86789846  0.75736545  0.00657327  1
  O  O226  1  0.87025506  0.75592656  0.50604794  1
  O  O227  1  0.12592062  0.24647781  0.49320054  1
  O  O228  1  0.12770884  0.24361524  0.99331225  1
  O  O229  1  0.13083784  0.74574753  0.49586582  1
  O  O230  1  0.13461946  0.74969956  0.99138435  1
  O  O231  1  0.63538817  0.24074347  0.50989249  1
  O  O232  1  0.63535410  0.25265354  0.98608839  1
  O  O233  1  0.63388559  0.74562599  0.50077671  1
  O  O234  1  0.63763311  0.75014232  1.00174112  1
  O  O235  1  0.52334301  0.22082841  0.14383724  1
  O  O236  1  0.49789370  0.24418113  0.63564591  1
  O  O237  1  0.49827753  0.74702328  0.13982943  1
  O  O238  1  0.48817844  0.73979707  0.61820166  1
  O  O239  1  0.99156673  0.24744932  0.13056715  1
  O  O240  1  0.99131029  0.25428479  0.63817068  1
  O  O241  1  0.99277930  0.74998923  0.13191485  1
  O  O242  1  0.98764553  0.74650294  0.62806423  1
  O  O243  1  0.01131309  0.25168917  0.36608529  1
  O  O244  1  0.00886312  0.25533612  0.86817434  1
  O  O245  1  0.00312323  0.75539241  0.36732591  1
  O  O246  1  0.01344740  0.75271751  0.87493576  1
  O  O247  1  0.49674169  0.26068728  0.38326623  1
  O  O248  1  0.50667060  0.24719910  0.86121272  1
  O  O249  1  0.49909754  0.75268907  0.36357127  1
  O  O250  1  0.49208086  0.76367047  0.86763051  1
  O  O251  1  0.23586954  0.13562143  0.49897613  1
  O  O252  1  0.23610327  0.13021529  0.99681592  1
  O  O253  1  0.24146700  0.63699518  0.49916777  1
  O  O254  1  0.24874633  0.63275401  0.99088765  1
  O  O255  1  0.74653663  0.13455038  0.49509367  1
  O  O256  1  0.75786279  0.13717742  0.98205405  1
  O  O257  1  0.74531413  0.63547465  0.49222097  1
  O  O258  1  0.74497467  0.63177932  0.98942984  1
  O  O259  1  0.25221370  0.35556400  -0.00604927  1
  O  O260  1  0.24882202  0.36246616  0.49912702  1
  O  O261  1  0.25255688  0.86913140  0.00984064  1
  O  O262  1  0.25155385  0.86479937  0.50807532  1
  O  O263  1  0.74905052  0.37016743  0.00571736  1
  O  O264  1  0.75571793  0.36499635  0.49455632  1
  O  O265  1  0.75818323  0.86853879  0.00587622  1
  O  O266  1  0.75663254  0.86411012  0.49561455  1
  O  O267  1  0.12509589  0.48734465  0.24301522  1
  O  O268  1  0.12266840  0.48974660  0.74531715  1
  O  O269  1  0.12883774  0.99340514  0.24396218  1
  O  O270  1  0.12299597  0.99379850  0.74233345  1
  O  O271  1  0.63103254  0.47925460  0.26758578  1
  O  O272  1  0.63384690  0.48916206  0.74662732  1
  O  O273  1  0.63994369  1.00144186  0.25825901  1
  O  O274  1  0.63235070  0.99506507  0.74303946  1
  O  O275  1  0.36211061  -0.00776926  0.26082497  1
  O  O276  1  0.37633858  0.00931709  0.75149383  1
  O  O277  1  0.38098737  0.51623301  0.25883883  1
  O  O278  1  0.37446633  0.51015449  0.75163198  1
  O  O279  1  0.87071219  0.00755585  0.25857100  1
  O  O280  1  0.86991664  0.00534834  0.75376011  1
  O  O281  1  0.87403826  0.50111061  0.26066394  1
  O  O282  1  0.86991038  0.50551072  0.75358164  1
  O  O283  1  0.12293759  0.37152649  0.36239672  1
  O  O284  1  0.11850378  0.36901019  0.87140513  1
  O  O285  1  0.11780510  0.86966685  0.37017228  1
  O  O286  1  0.12703574  0.87031854  0.86960829  1
  O  O287  1  0.61055790  0.37369503  0.37631419  1
  O  O288  1  0.62281598  0.36053977  0.85813166  1
  O  O289  1  0.62093430  0.87293208  0.37098894  1
  O  O290  1  0.61332196  0.87717378  0.86235051  1
  O  O291  1  0.38291351  0.11649631  0.13361944  1
  O  O292  1  0.37400617  0.12384284  0.63535598  1
  O  O293  1  0.38228464  0.62479610  0.13800393  1
  O  O294  1  0.37807799  0.62983136  0.63012119  1
  O  O295  1  0.87509928  0.13272510  0.12878868  1
  O  O296  1  0.87382375  0.13251800  0.63753330  1
  O  O297  1  0.87354695  0.63714876  0.12476073  1
  O  O298  1  0.87675553  0.63176928  0.63313815  1
  O  O299  1  0.25021286  0.24680757  0.10950892  1
  O  O300  1  0.24852027  0.25500520  0.61661143  1
  O  O301  1  0.24347055  0.76209484  0.11622911  1
  O  O302  1  0.25374648  0.75866096  0.61813567  1
  O  O303  1  0.74912014  0.25929473  0.11460686  1
  O  O304  1  0.76356384  0.24649417  0.61877017  1
  O  O305  1  0.75774257  0.75732587  0.11894522  1
  O  O306  1  0.76424630  0.74535179  0.61451663  1
  O  O307  1  0.23890963  0.24964859  0.37940889  1
  O  O308  1  0.23679624  0.24316450  0.87979867  1
  O  O309  1  0.24226112  0.75104767  0.38349874  1
  O  O310  1  0.24182494  0.74416444  0.88055458  1
  O  O311  1  0.75919570  0.24019023  0.38573353  1
  O  O312  1  0.74318017  0.24356988  0.87642295  1
  O  O313  1  0.75161907  0.74263060  0.38428103  1
  O  O314  1  0.75612476  0.74017071  0.88392730  1
  O  O315  1  0.01080440  0.13190962  0.00626970  1
  O  O316  1  0.01115081  0.12337541  0.49809642  1
  O  O317  1  0.00484670  0.62211352  0.00281630  1
  O  O318  1  0.01282660  0.63253117  0.49998287  1
  O  O319  1  0.51995807  0.12057049  -0.00251113  1
  O  O320  1  0.50985529  0.11723764  0.50225785  1
  O  O321  1  0.50002804  0.64003679  0.01924398  1
  O  O322  1  0.50436060  0.62028165  0.50668420  1
  O  O323  1  0.49948894  0.38275398  0.49124307  1
  O  O324  1  0.51427823  0.35666182  0.97239063  1
  O  O325  1  0.49171077  0.88074843  0.50234098  1
  O  O326  1  0.50102656  0.86848312  0.98439499  1
  O  O327  1  0.98595284  0.36727238  0.49379312  1
  O  O328  1  0.99361906  0.37143183  0.98877462  1
  O  O329  1  0.99494500  0.88219736  0.49474233  1
  O  O330  1  0.98491808  0.87259028  1.00072346  1
  O  O331  1  0.49231818  0.50076899  0.38580290  1
  O  O332  1  0.48968845  0.48664152  0.86176989  1
  O  O333  1  0.49101035  0.99606772  0.38444497  1
  O  O334  1  0.48538995  0.98525045  0.86625644  1
  O  O335  1  0.98330762  0.50171367  0.37341560  1
  O  O336  1  0.99312768  0.49012319  0.87656206  1
  O  O337  1  0.99560874  0.99753113  0.38121620  1
  O  O338  1  0.98534899  0.99998161  0.87317081  1
  O  O339  1  0.01016149  0.00580185  0.13194655  1
  O  O340  1  0.01356893  -0.00390999  0.61815105  1
  O  O341  1  0.01089753  0.50018022  0.12380356  1
  O  O342  1  0.01557009  0.50394842  0.62792831  1
  O  O343  1  0.51907555  0.00509262  0.12290961  1
  O  O344  1  0.50986118  0.00060656  0.61917541  1
  O  O345  1  0.50621488  0.52719007  0.13969590  1
  O  O346  1  0.50099752  0.50717369  0.61227575  1
  O  O347  1  0.24163584  0.37115870  0.25245388  1
  O  O348  1  0.23665238  0.36577361  0.75338786  1
  O  O349  1  0.24250995  0.88041374  0.24322887  1
  O  O350  1  0.23874970  0.86945973  0.74133289  1
  O  O351  1  0.74890042  0.38065029  0.23280612  1
  O  O352  1  0.74347602  0.38295515  0.75154827  1
  O  O353  1  0.75205116  0.88422441  0.24386476  1
  O  O354  1  0.73905918  0.88649639  0.75889193  1
  O  O355  1  0.23940185  0.11151727  0.25147739  1
  O  O356  1  0.26350080  0.12778470  0.75369125  1
  O  O357  1  0.26542519  0.63333550  0.25039523  1
  O  O358  1  0.25836983  0.62955836  0.76224469  1
  O  O359  1  0.75732503  0.12012296  0.26134613  1
  O  O360  1  0.75814089  0.11692542  0.75757321  1
  O  O361  1  0.75039228  0.63436924  0.26340772  1
  O  O362  1  0.75934377  0.61948891  0.75466837  1
  O  O363  1  0.36592199  0.10768424  0.38589834  1
  O  O364  1  0.37664779  0.10982443  0.86528905  1
  O  O365  1  0.37252452  0.61823614  0.36611485  1
  O  O366  1  0.37143623  0.61847782  0.86637720  1
  O  O367  1  0.87048478  0.12298717  0.37229228  1
  O  O368  1  0.86954988  0.12122228  0.86505831  1
  O  O369  1  0.86814624  0.61499754  0.37344672  1
  O  O370  1  0.86700025  0.62058954  0.86765942  1
  O  O371  1  0.12450090  0.38275951  0.13842749  1
  O  O372  1  0.12447070  0.38169354  0.63593021  1
  O  O373  1  0.12899167  0.88281934  0.12846656  1
  O  O374  1  0.13046994  0.87994472  0.63213997  1
  O  O375  1  0.63023222  0.37525017  0.13700209  1
  O  O376  1  0.62130490  0.37507217  0.63522470  1
  O  O377  1  0.63928612  0.87109089  0.12887125  1
  O  O378  1  0.62294636  0.88457932  0.63575101  1
  O  O379  1  0.12031770  0.25984978  0.25344088  1
  O  O380  1  0.11754070  0.25360049  0.75729090  1
  O  O381  1  0.11705869  0.75491150  0.25368916  1
  O  O382  1  0.12463296  0.75703627  0.75836659  1
  O  O383  1  0.64314988  0.27646599  0.26186759  1
  O  O384  1  0.62035743  0.25146060  0.75085848  1
  O  O385  1  0.60976986  0.75571068  0.25341803  1
  O  O386  1  0.63508649  0.76484335  0.74153115  1
  O  O387  1  0.37937030  0.24547464  0.24049051  1
  O  O388  1  0.38183107  0.23562017  0.75175312  1
  O  O389  1  0.38425424  0.73973169  0.25564811  1
  O  O390  1  0.36860220  0.74121823  0.73750069  1
  O  O391  1  0.88007404  0.24783422  0.24542541  1
  O  O392  1  0.88034043  0.24424743  0.74464726  1
  O  O393  1  0.88160211  0.75153018  0.24073276  1
  O  O394  1  0.87372998  0.74453688  0.74354231  1
  O  O395  1  0.38225795  0.50086400  0.49292457  1
  O  O396  1  0.38688313  0.50951986  0.98711621  1
  O  O397  1  0.37813970  0.99324461  0.49883606  1
  O  O398  1  0.37350145  0.99831306  0.98800684  1
  O  O399  1  0.87090213  0.49047648  0.49505386  1
  O  O400  1  0.87514182  0.49222156  0.99186320  1
  O  O401  1  0.88003015  0.99817492  0.49834211  1
  O  O402  1  0.86358136  0.99363616  0.99204905  1
  O  O403  1  0.12729338  0.00707648  0.00843523  1
  O  O404  1  0.12102638  0.00889176  0.50575816  1
  O  O405  1  0.12430820  0.49651629  0.01355801  1
  O  O406  1  0.12677250  0.50964399  0.50562765  1
  O  O407  1  0.63320759  0.00065906  0.00048598  1
  O  O408  1  0.62286428  0.00358418  0.50835900  1
  O  O409  1  0.60315391  0.50080570  -0.00968741  1
  O  O410  1  0.61846781  0.50770556  0.50005254  1
  O  O411  1  0.44002385  0.39058364  0.09979455  1
  O  O412  1  0.37277108  0.37091020  0.62158863  1
  O  O413  1  0.36358036  0.88606691  0.12534902  1
  O  O414  1  0.36763041  0.86872588  0.62354747  1
  O  O415  1  0.86236379  0.37150054  0.11871064  1
  O  O416  1  0.87899983  0.36849884  0.61828115  1
  O  O417  1  0.86847396  0.86689284  0.11959519  1
  O  O418  1  0.87929008  0.86853285  0.61836941  1
  O  O419  1  0.12554990  0.13470587  0.38221260  1
  O  O420  1  0.12416524  0.13060879  0.88179652  1
  O  O421  1  0.12744078  0.62889101  0.37997637  1
  O  O422  1  0.13315490  0.63091582  0.87404342  1
  O  O423  1  0.63619071  0.12012794  0.39091446  1
  O  O424  1  0.63423083  0.13513775  0.86244722  1
  O  O425  1  0.63164762  0.62745692  0.38143482  1
  O  O426  1  0.63528065  0.62465500  0.86911040  1
