# generated using pymatgen
data_V85Zn86O256
_symmetry_space_group_name_H-M   'P 1'
_cell_length_a   16.90478313
_cell_length_b   16.89941683
_cell_length_c   16.90545738
_cell_angle_alpha   90.03566998
_cell_angle_beta   89.96279950
_cell_angle_gamma   90.03046474
_symmetry_Int_Tables_number   1
_chemical_formula_structural   V85Zn86O256
_chemical_formula_sum   'V85 Zn86 O256'
_cell_volume   4829.56493966
_cell_formula_units_Z   1
loop_
 _symmetry_equiv_pos_site_id
 _symmetry_equiv_pos_as_xyz
  1  'x, y, z'
loop_
 _atom_site_type_symbol
 _atom_site_label
 _atom_site_symmetry_multiplicity
 _atom_site_fract_x
 _atom_site_fract_y
 _atom_site_fract_z
 _atom_site_occupancy
  V  V0  1  0.13519177  -0.00470408  0.62519122  1
  V  V1  1  0.49672367  0.75029233  0.23814374  1
  V  V2  1  0.74880490  0.38740115  0.11688935  1
  V  V3  1  0.36093425  0.25048757  0.62216979  1
  V  V4  1  0.26101983  0.87260245  0.12230945  1
  V  V5  1  0.86934626  0.00492804  0.37750045  1
  V  V6  1  0.24418406  0.37090490  0.12855687  1
  V  V7  1  0.24942447  0.75160771  0.50694159  1
  V  V8  1  -0.00286283  0.62378048  0.63123711  1
  V  V9  1  -0.00261760  0.62762225  0.13140134  1
  V  V10  1  0.50506334  0.24798462  0.23808497  1
  V  V11  1  0.62808145  0.25222104  0.88383245  1
  V  V12  1  0.11802732  0.12410769  0.00377662  1
  V  V13  1  0.13043289  0.87246008  0.74806030  1
  V  V14  1  0.11690859  -0.00496855  0.12875123  1
  V  V15  1  0.00118544  0.37889819  0.36606888  1
  V  V16  1  0.63015812  0.24282529  0.37271826  1
  V  V17  1  0.24895065  0.48824009  0.75045689  1
  V  V18  1  0.00474019  0.25108906  0.24172486  1
  V  V19  1  0.00171008  0.00037000  0.49973933  1
  V  V20  1  0.62033806  0.50454467  0.62642317  1
  V  V21  1  0.37439939  -0.00052579  0.37499515  1
  V  V22  1  0.61762789  0.12756111  0.00129679  1
  V  V23  1  0.36297000  0.37082820  0.50216278  1
  V  V24  1  0.62246595  -0.00618348  0.62850465  1
  V  V25  1  0.12094177  0.49455413  0.13092789  1
  V  V26  1  0.00184523  0.12352657  0.62635455  1
  V  V27  1  0.63438010  0.38723675  0.24789573  1
  V  V28  1  0.86809087  0.24580644  0.11689097  1
  V  V29  1  0.88280979  0.87198361  -0.00196205  1
  V  V30  1  0.49526068  -0.01273836  0.00159106  1
  V  V31  1  0.49882098  0.38277564  0.88477009  1
  V  V32  1  0.75006488  0.62705413  0.86472613  1
  V  V33  1  0.37099040  0.87387689  0.50568855  1
  V  V34  1  0.37801937  0.74488513  0.62592752  1
  V  V35  1  0.49880319  0.87199150  0.37416986  1
  V  V36  1  0.63060574  0.62274036  0.49675270  1
  V  V37  1  0.12558577  0.75415794  0.37006474  1
  V  V38  1  0.62268323  0.00638031  0.12381011  1
  V  V39  1  0.50031919  -0.00094222  0.50106823  1
  V  V40  1  0.50439220  0.76068350  0.74836205  1
  V  V41  1  0.62568942  0.87699821  0.24977591  1
  V  V42  1  0.24700224  -0.00629920  0.24956620  1
  V  V43  1  0.61927580  0.76117015  0.87555126  1
  V  V44  1  0.49966191  0.37331597  0.37452466  1
  V  V45  1  0.12577214  0.62529490  0.50263234  1
  V  V46  1  0.75212237  0.24187804  0.49759148  1
  V  V47  1  0.74802676  0.00792050  0.25296421  1
  V  V48  1  0.12202233  0.75733019  0.88098914  1
  V  V49  1  0.24713323  0.49802989  0.25181121  1
  V  V50  1  0.50226569  0.60867055  0.11821080  1
  V  V51  1  0.87875882  0.12670185  0.24932081  1
  V  V52  1  0.87589792  0.12692905  0.75078346  1
  V  V53  1  0.37938362  -0.01576909  0.87612475  1
  V  V54  1  0.38090198  0.62237396  0.74969613  1
  V  V55  1  -0.00102954  0.49984311  0.49800352  1
  V  V56  1  0.12537568  0.62861279  0.00278459  1
  V  V57  1  0.87742205  0.50612531  0.86615468  1
  V  V58  1  0.63016389  0.74519828  0.37312218  1
  V  V59  1  0.37905260  0.12403596  0.24544784  1
  V  V60  1  0.12565388  0.25411306  0.37641275  1
  V  V61  1  0.50143880  0.12716441  0.62443501  1
  V  V62  1  0.26458560  0.75249399  0.00328039  1
  V  V63  1  0.85810644  0.62505436  0.25433959  1
  V  V64  1  0.00306237  0.87815255  0.36758898  1
  V  V65  1  -0.00093997  0.49935073  -0.00058910  1
  V  V66  1  0.24923551  0.12978703  0.37832911  1
  V  V67  1  0.25518159  0.12232381  0.87781495  1
  V  V68  1  0.74846550  0.74953059  0.00079506  1
  V  V69  1  0.74366219  -0.00299147  0.75310160  1
  V  V70  1  0.75035249  0.12907442  0.88135016  1
  V  V71  1  0.62541391  0.37562951  0.74876847  1
  V  V72  1  0.37615288  0.24701715  0.12259912  1
  V  V73  1  0.85967098  0.50240287  0.37272153  1
  V  V74  1  -0.00210831  0.75392038  0.75480252  1
  V  V75  1  0.50037991  0.25035128  0.74962049  1
  V  V76  1  0.74857094  0.87252798  0.62722414  1
  V  V77  1  0.37408888  0.62774673  0.24634729  1
  V  V78  1  0.12787642  0.25369686  0.87072959  1
  V  V79  1  0.12910487  0.48543515  0.62761567  1
  V  V80  1  0.88300061  -0.00491230  0.87451047  1
  V  V81  1  0.00484776  0.37672326  0.86763747  1
  V  V82  1  0.87341782  0.74562126  0.62846353  1
  V  V83  1  0.49700777  0.50298906  0.50306039  1
  V  V84  1  0.75176199  0.37378455  0.62403636  1
  Zn  Zn85  1  -0.00096553  0.75297286  0.25058754  1
  Zn  Zn86  1  0.87409613  0.87325494  0.50022735  1
  Zn  Zn87  1  0.75236829  0.74701589  0.49678178  1
  Zn  Zn88  1  0.75068440  0.87637324  0.12445112  1
  Zn  Zn89  1  0.62843203  0.12126741  0.49613322  1
  Zn  Zn90  1  0.37572498  0.12280047  0.75310070  1
  Zn  Zn91  1  0.25219638  0.62618077  0.37524552  1
  Zn  Zn92  1  0.00574591  0.25486766  0.74515638  1
  Zn  Zn93  1  0.87523518  0.37370103  0.49705459  1
  Zn  Zn94  1  0.25462254  -0.00634674  0.74981391  1
  Zn  Zn95  1  0.62380538  0.61428571  -0.00108064  1
  Zn  Zn96  1  -0.00068794  -0.00153957  0.00004006  1
  Zn  Zn97  1  0.87748496  0.25051737  0.62247644  1
  Zn  Zn98  1  0.37542496  0.50453200  0.88265607  1
  Zn  Zn99  1  0.25054386  0.62582411  0.87391143  1
  Zn  Zn100  1  0.37242475  0.49952061  0.37654157  1
  Zn  Zn101  1  0.87247866  0.75177407  0.12835239  1
  Zn  Zn102  1  0.75543535  0.50531192  0.74404647  1
  Zn  Zn103  1  0.37738173  0.38330014  0.00764958  1
  Zn  Zn104  1  0.24969613  0.25004744  0.00111542  1
  Zn  Zn105  1  0.13192238  0.12879568  0.50286326  1
  Zn  Zn106  1  0.87227224  0.37139176  -0.00562172  1
  Zn  Zn107  1  0.18715582  0.18139573  0.18983032  1
  Zn  Zn108  1  0.18795585  0.18134581  0.69332639  1
  Zn  Zn109  1  0.18774701  0.68766545  0.18648656  1
  Zn  Zn110  1  0.18970237  0.68316917  0.68865165  1
  Zn  Zn111  1  0.69079569  0.18898647  0.18494206  1
  Zn  Zn112  1  0.68684678  0.18593563  0.68824519  1
  Zn  Zn113  1  0.68201128  0.68599879  0.18359046  1
  Zn  Zn114  1  0.68152353  0.68696244  0.68631758  1
  Zn  Zn115  1  0.31250633  0.31312420  0.31039489  1
  Zn  Zn116  1  0.31585870  0.30981516  0.81334901  1
  Zn  Zn117  1  0.31123915  0.81162577  0.31286278  1
  Zn  Zn118  1  0.30976642  0.80813727  0.81315821  1
  Zn  Zn119  1  0.81320513  0.31322885  0.31131850  1
  Zn  Zn120  1  0.81499862  0.31340443  0.81114139  1
  Zn  Zn121  1  0.81283601  0.81665677  0.31190239  1
  Zn  Zn122  1  0.81108738  0.81248927  0.81162377  1
  Zn  Zn123  1  0.18293395  0.43652904  0.43509563  1
  Zn  Zn124  1  0.19120162  0.43838109  0.94127464  1
  Zn  Zn125  1  0.18789148  0.93741639  0.43877746  1
  Zn  Zn126  1  0.18851250  0.93584219  0.94020876  1
  Zn  Zn127  1  0.68471483  0.43109865  0.43995545  1
  Zn  Zn128  1  0.69372002  0.43825217  0.93368402  1
  Zn  Zn129  1  0.68804098  0.93460811  0.43913712  1
  Zn  Zn130  1  0.69062915  0.93756270  0.93916486  1
  Zn  Zn131  1  0.31068984  0.06065638  0.06112868  1
  Zn  Zn132  1  0.31511748  0.06592492  0.56316276  1
  Zn  Zn133  1  0.31372254  0.56302677  0.06349621  1
  Zn  Zn134  1  0.31181871  0.56136077  0.56606848  1
  Zn  Zn135  1  0.81083340  0.06264153  0.06174993  1
  Zn  Zn136  1  0.81239869  0.06167522  0.56445387  1
  Zn  Zn137  1  0.81400466  0.56530051  0.05652203  1
  Zn  Zn138  1  0.81248596  0.56213931  0.56099530  1
  Zn  Zn139  1  0.43129136  0.43302717  0.19407937  1
  Zn  Zn140  1  0.43435395  0.43406650  0.68718303  1
  Zn  Zn141  1  0.43975509  0.93991827  0.18425748  1
  Zn  Zn142  1  0.43510771  0.93380916  0.68850003  1
  Zn  Zn143  1  0.93026506  0.43794885  0.18869474  1
  Zn  Zn144  1  0.93871771  0.43726703  0.68674749  1
  Zn  Zn145  1  0.93383119  0.93656078  0.18673108  1
  Zn  Zn146  1  0.93828364  0.93484401  0.68907451  1
  Zn  Zn147  1  0.06184872  0.06638370  0.30972776  1
  Zn  Zn148  1  0.06622250  0.06299292  0.81279249  1
  Zn  Zn149  1  0.06083942  0.56565286  0.31319494  1
  Zn  Zn150  1  0.06807548  0.56615754  0.81200247  1
  Zn  Zn151  1  0.55996569  0.06399644  0.31278591  1
  Zn  Zn152  1  0.56015038  0.06126723  0.81522220  1
  Zn  Zn153  1  0.55970776  0.56330891  0.31363561  1
  Zn  Zn154  1  0.56457792  0.56769113  0.81183896  1
  Zn  Zn155  1  0.43875742  0.18918622  0.43643814  1
  Zn  Zn156  1  0.44017206  0.18717811  0.93902320  1
  Zn  Zn157  1  0.44059311  0.68486365  0.43310136  1
  Zn  Zn158  1  0.43872643  0.68582245  0.93528544  1
  Zn  Zn159  1  0.93902520  0.18751352  0.43546218  1
  Zn  Zn160  1  0.94159418  0.18746305  0.93609744  1
  Zn  Zn161  1  0.93645610  0.68733740  0.43862165  1
  Zn  Zn162  1  0.93683321  0.68620121  0.93812544  1
  Zn  Zn163  1  0.05935346  0.31235333  0.05795607  1
  Zn  Zn164  1  0.06077429  0.31070576  0.55511858  1
  Zn  Zn165  1  0.06364837  0.81559878  0.06750157  1
  Zn  Zn166  1  0.06037170  0.81457840  0.56225535  1
  Zn  Zn167  1  0.56727016  0.43578272  0.06208288  1
  Zn  Zn168  1  0.56185393  0.31399406  0.56012386  1
  Zn  Zn169  1  0.56532928  0.81269784  0.06249644  1
  Zn  Zn170  1  0.56116987  0.81033096  0.56379466  1
  O  O171  1  0.13484084  0.10880681  0.11580216  1
  O  O172  1  0.11802230  0.11660616  0.62445930  1
  O  O173  1  0.11608155  0.61940014  0.12178337  1
  O  O174  1  0.11889539  0.62162296  0.61537118  1
  O  O175  1  0.63049596  0.11608811  0.11656538  1
  O  O176  1  0.61830417  0.11270504  0.62422647  1
  O  O177  1  0.60647398  0.62287583  0.12515428  1
  O  O178  1  0.62548197  0.61193982  0.61716110  1
  O  O179  1  0.38419713  0.37404776  0.38005397  1
  O  O180  1  0.39074138  0.37210972  0.87747863  1
  O  O181  1  0.37984724  0.87965638  0.38193726  1
  O  O182  1  0.37152953  0.88550938  0.87576922  1
  O  O183  1  0.88154891  0.38514088  0.37320675  1
  O  O184  1  0.88271199  0.38221804  0.87551594  1
  O  O185  1  0.88188993  0.88737931  0.37804830  1
  O  O186  1  0.86807854  0.88405981  0.88276341  1
  O  O187  1  0.25484691  0.00308125  0.36704717  1
  O  O188  1  0.26396222  0.00328769  0.87956706  1
  O  O189  1  0.24552986  0.50248310  0.36189808  1
  O  O190  1  0.24784121  0.50334056  0.86248092  1
  O  O191  1  0.75753017  -0.00274932  0.36831218  1
  O  O192  1  0.75577963  0.00679067  0.86782545  1
  O  O193  1  0.76054328  0.49379819  0.38099052  1
  O  O194  1  0.75991194  0.50844880  0.86916198  1
  O  O195  1  0.24085754  0.49375192  0.13426189  1
  O  O196  1  0.24178859  0.50256048  0.63722424  1
  O  O197  1  0.24485025  0.99043012  0.13009013  1
  O  O198  1  0.23910400  1.00519587  0.62667308  1
  O  O199  1  0.75883871  0.48636068  0.12283874  1
  O  O200  1  0.74296596  0.49153640  0.62411532  1
  O  O201  1  0.74120872  0.99960135  0.13266661  1
  O  O202  1  0.74267657  0.99463037  0.63231635  1
  O  O203  1  -0.00620635  0.36759002  0.25833780  1
  O  O204  1  -0.00011456  0.37406264  0.76204481  1
  O  O205  1  -0.00416004  0.87489385  0.26334382  1
  O  O206  1  0.01022231  0.86145891  0.74609519  1
  O  O207  1  0.51004240  0.36806106  0.25523640  1
  O  O208  1  0.50522163  0.36439838  0.75476837  1
  O  O209  1  0.50453807  0.86880461  0.25239480  1
  O  O210  1  0.49708517  0.85963655  0.75247059  1
  O  O211  1  0.48999871  0.13378408  0.25388757  1
  O  O212  1  0.50069888  0.13610485  0.74603267  1
  O  O213  1  0.49442987  0.62976018  0.24182787  1
  O  O214  1  0.48711985  0.63384302  0.75348670  1
  O  O215  1  0.98707085  0.13304243  0.24976955  1
  O  O216  1  0.99323359  0.12375864  0.74268597  1
  O  O217  1  0.99451101  0.62713091  0.24014519  1
  O  O218  1  1.00820574  0.63561963  0.73733601  1
  O  O219  1  0.37497857  0.24820714  0.01422336  1
  O  O220  1  0.38101388  0.25786091  0.50932690  1
  O  O221  1  0.36386984  0.74707634  -0.00184236  1
  O  O222  1  0.37186622  0.75302881  0.50516105  1
  O  O223  1  0.87998264  0.24871491  0.01360874  1
  O  O224  1  0.86730655  0.25133343  0.50003993  1
  O  O225  1  0.86731453  0.75596019  0.00046657  1
  O  O226  1  0.87245651  0.75086440  0.51232554  1
  O  O227  1  0.12104675  0.24549129  0.48213172  1
  O  O228  1  0.12635032  0.24044629  0.99300931  1
  O  O229  1  0.13223983  0.74550963  0.49770977  1
  O  O230  1  0.12612083  0.74773347  0.99513226  1
  O  O231  1  0.63155309  0.24973943  0.48998605  1
  O  O232  1  0.62305717  0.24155315  0.98547888  1
  O  O233  1  0.62127555  0.73979180  0.49282898  1
  O  O234  1  0.62961137  0.74769312  0.98989397  1
  O  O235  1  0.49113863  0.25269402  0.13727394  1
  O  O236  1  0.50051879  0.24362714  0.63179748  1
  O  O237  1  0.50382926  0.74612458  0.13542973  1
  O  O238  1  0.49581774  0.75007636  0.63910463  1
  O  O239  1  0.98514416  0.25975279  0.13325511  1
  O  O240  1  1.00085994  0.23700289  0.62426697  1
  O  O241  1  0.99819616  0.74224143  0.12967915  1
  O  O242  1  0.99294295  0.74388565  0.62990198  1
  O  O243  1  0.00411455  0.25762913  0.36553197  1
  O  O244  1  0.00829708  0.25868792  0.87344424  1
  O  O245  1  0.00710439  0.76053514  0.37876184  1
  O  O246  1  0.00713494  0.74329667  0.86519399  1
  O  O247  1  0.50705598  0.25909989  0.36748683  1
  O  O248  1  0.50700573  0.25748769  0.86826144  1
  O  O249  1  0.50928065  0.75462333  0.36598088  1
  O  O250  1  0.51191373  0.74663152  0.86747916  1
  O  O251  1  0.25217311  0.11938015  0.48285849  1
  O  O252  1  0.24196440  0.12476837  0.99132473  1
  O  O253  1  0.24291163  0.63113614  0.49840520  1
  O  O254  1  0.24012292  0.63652264  1.00730095  1
  O  O255  1  0.74740415  0.13700153  0.50605882  1
  O  O256  1  0.73879328  0.11763789  0.98722174  1
  O  O257  1  0.73527370  0.62649962  0.50202194  1
  O  O258  1  0.74958009  0.63755667  0.99112086  1
  O  O259  1  0.25113314  0.37072603  0.01562810  1
  O  O260  1  0.26388345  0.37896973  0.49220966  1
  O  O261  1  0.24836513  0.86835919  0.01366397  1
  O  O262  1  0.26289614  0.86812324  0.49659665  1
  O  O263  1  0.75214108  0.37267181  0.01272960  1
  O  O264  1  0.74957954  0.36457636  0.51093333  1
  O  O265  1  0.75735352  0.86423998  0.00007358  1
  O  O266  1  0.75123183  0.87263767  0.51430357  1
  O  O267  1  0.12979341  0.50760582  0.23841661  1
  O  O268  1  0.13898337  0.50560807  0.74162568  1
  O  O269  1  0.13315686  1.00626340  0.23842866  1
  O  O270  1  0.12506957  0.99034382  0.74343189  1
  O  O271  1  0.62388646  0.48537778  0.25557778  1
  O  O272  1  0.62693256  0.49551502  0.74149201  1
  O  O273  1  0.62956783  1.00112306  0.24368082  1
  O  O274  1  0.63514095  1.00384189  0.74559090  1
  O  O275  1  0.37062212  0.00641705  0.25423367  1
  O  O276  1  0.37615764  -0.00016582  0.76307278  1
  O  O277  1  0.36400308  0.50612938  0.25315527  1
  O  O278  1  0.36628493  0.50558968  0.74961151  1
  O  O279  1  0.86825762  0.00726090  0.25470850  1
  O  O280  1  0.86758435  0.00738371  0.75533008  1
  O  O281  1  0.87694906  0.51528957  0.25831114  1
  O  O282  1  0.87621824  0.49998818  0.76103202  1
  O  O283  1  0.11535353  0.36748047  0.37255998  1
  O  O284  1  0.11906461  0.36563773  0.88311511  1
  O  O285  1  0.11614353  0.86713757  0.38209807  1
  O  O286  1  0.12561017  0.86425628  0.86990410  1
  O  O287  1  0.62071881  0.36630446  0.36415130  1
  O  O288  1  0.61886648  0.36862660  0.86840694  1
  O  O289  1  0.61694312  0.87091964  0.36923059  1
  O  O290  1  0.63107740  0.86020694  0.87560224  1
  O  O291  1  0.36651468  0.13025113  0.13714194  1
  O  O292  1  0.38540916  0.13079559  0.62806711  1
  O  O293  1  0.38696641  0.62092495  0.13786007  1
  O  O294  1  0.37433954  0.63754242  0.62908440  1
  O  O295  1  0.86960243  0.13723280  0.13088435  1
  O  O296  1  0.88311444  0.12326621  0.63421431  1
  O  O297  1  0.87975935  0.62593055  0.13583946  1
  O  O298  1  0.88424798  0.63148397  0.62264090  1
  O  O299  1  0.25545728  0.25522302  0.12933400  1
  O  O300  1  0.26155455  0.23932919  0.62747789  1
  O  O301  1  0.24264600  0.76521911  0.12082581  1
  O  O302  1  0.25689391  0.74715272  0.61328129  1
  O  O303  1  0.76411027  0.25888083  0.12907614  1
  O  O304  1  0.75006436  0.25624953  0.61873073  1
  O  O305  1  0.74768290  0.75238715  0.11467143  1
  O  O306  1  0.75468783  0.75599346  0.62717940  1
  O  O307  1  0.23934488  0.24116722  0.36191148  1
  O  O308  1  0.24626601  0.24237368  0.87810571  1
  O  O309  1  0.24314896  0.74934586  0.38693773  1
  O  O310  1  0.24140594  0.74917694  0.88687086  1
  O  O311  1  0.74221834  0.25611749  0.38352559  1
  O  O312  1  0.74237938  0.24030930  0.86742709  1
  O  O313  1  0.73444284  0.76013873  0.37740485  1
  O  O314  1  0.74087637  0.74512200  0.87757541  1
  O  O315  1  0.01340401  0.12001072  -0.00325258  1
  O  O316  1  0.00162425  0.11435310  0.50627184  1
  O  O317  1  0.00361612  0.62032868  0.01258790  1
  O  O318  1  0.00699092  0.62150108  0.50948548  1
  O  O319  1  0.51383939  0.11502955  -0.00555119  1
  O  O320  1  0.50154828  0.11705337  0.50592400  1
  O  O321  1  0.49751208  0.62752170  0.01667882  1
  O  O322  1  0.50706371  0.60903953  0.49366912  1
  O  O323  1  0.49564416  0.38262254  0.49098562  1
  O  O324  1  0.50154665  0.37205974  0.98759511  1
  O  O325  1  0.48989132  0.87785561  0.49607407  1
  O  O326  1  0.50325798  0.88827672  1.00085558  1
  O  O327  1  0.99686958  0.38120994  0.48671324  1
  O  O328  1  0.99681774  0.38307944  0.98837612  1
  O  O329  1  0.99751921  0.88774355  0.49371450  1
  O  O330  1  0.98717858  0.87531471  1.00187875  1
  O  O331  1  0.49908461  0.48668647  0.38010307  1
  O  O332  1  0.50037869  0.48422513  0.86473090  1
  O  O333  1  0.49355838  0.99363798  0.38007468  1
  O  O334  1  0.48904499  1.00083816  0.88500168  1
  O  O335  1  0.99668469  0.49402202  0.37801488  1
  O  O336  1  0.99820215  0.49751553  0.87735586  1
  O  O337  1  0.99641931  0.99673520  0.38137052  1
  O  O338  1  0.98618548  1.00308174  0.87388223  1
  O  O339  1  0.01348543  -0.00339628  0.12629605  1
  O  O340  1  0.00538185  0.00659999  0.61925864  1
  O  O341  1  0.00411534  0.50437584  0.12225221  1
  O  O342  1  0.00635043  0.50747393  0.62118292  1
  O  O343  1  0.50577731  0.00188163  0.11178816  1
  O  O344  1  0.50543811  0.00385778  0.62382899  1
  O  O345  1  0.49741895  0.50443741  0.12927238  1
  O  O346  1  0.50853354  0.49164187  0.61606917  1
  O  O347  1  0.25194180  0.38377031  0.23956039  1
  O  O348  1  0.25619923  0.38893185  0.75262753  1
  O  O349  1  0.25313902  0.88599425  0.24293010  1
  O  O350  1  0.23642348  0.87397584  0.75182447  1
  O  O351  1  0.73949699  0.37255809  0.24151337  1
  O  O352  1  0.74429143  0.37521189  0.73876276  1
  O  O353  1  0.74373205  0.88852786  0.24880744  1
  O  O354  1  0.75366922  0.88450557  0.73866066  1
  O  O355  1  0.25736814  0.11275374  0.25824102  1
  O  O356  1  0.25178461  0.11615478  0.76547784  1
  O  O357  1  0.25736197  0.61903373  0.24897539  1
  O  O358  1  0.26342049  0.62034291  0.75067350  1
  O  O359  1  0.75941963  0.11551267  0.24814663  1
  O  O360  1  0.75702126  0.11725313  0.75690203  1
  O  O361  1  0.75938672  0.62697930  0.24715624  1
  O  O362  1  0.74728819  0.62644957  0.76014290  1
  O  O363  1  0.36997480  0.12141151  0.36597558  1
  O  O364  1  0.36922233  0.11913537  0.87582790  1
  O  O365  1  0.37420509  0.62054678  0.36302900  1
  O  O366  1  0.37164157  0.62361452  0.86550720  1
  O  O367  1  0.87952186  0.11297139  0.36677021  1
  O  O368  1  0.86837254  0.12029496  0.87062208  1
  O  O369  1  0.87753904  0.61956898  0.36302681  1
  O  O370  1  0.86557513  0.61826279  0.87764170  1
  O  O371  1  0.12910239  0.38337401  0.12219102  1
  O  O372  1  0.11858357  0.38641872  0.61946799  1
  O  O373  1  0.13432590  0.88978893  0.12497791  1
  O  O374  1  0.12051220  0.88388110  0.63273580  1
  O  O375  1  0.63736078  0.37521733  0.13581617  1
  O  O376  1  0.63123156  0.38309722  0.62829192  1
  O  O377  1  0.62561708  0.88827713  0.13146919  1
  O  O378  1  0.62991915  0.88566321  0.62344412  1
  O  O379  1  0.11043165  0.24119432  0.25517847  1
  O  O380  1  0.12370754  0.24327789  0.76584586  1
  O  O381  1  0.12402328  0.74374491  0.26690725  1
  O  O382  1  0.12041208  0.75405670  0.75621581  1
  O  O383  1  0.62070007  0.25450199  0.25370506  1
  O  O384  1  0.61831974  0.25424820  0.75663856  1
  O  O385  1  0.61813474  0.75517613  0.25529820  1
  O  O386  1  0.61177569  0.74633518  0.75781452  1
  O  O387  1  0.38163668  0.24267582  0.24363215  1
  O  O388  1  0.38387774  0.24802506  0.74091482  1
  O  O389  1  0.38461633  0.74191927  0.25598180  1
  O  O390  1  0.38245310  0.74584699  0.74449903  1
  O  O391  1  0.88073079  0.24315351  0.24375480  1
  O  O392  1  0.87854787  0.23653765  0.74805581  1
  O  O393  1  0.87560892  0.73877704  0.25168294  1
  O  O394  1  0.88335174  0.75453406  0.73925612  1
  O  O395  1  0.38106448  0.49337419  0.49981230  1
  O  O396  1  0.37032845  0.49635039  0.99593720  1
  O  O397  1  0.37948613  0.99126797  0.49752350  1
  O  O398  1  0.38827610  1.00367921  0.99340453  1
  O  O399  1  0.88242565  0.50124991  0.49039533  1
  O  O400  1  0.88303595  0.49949100  0.98739620  1
  O  O401  1  0.88153354  1.00077295  0.49309971  1
  O  O402  1  0.87456871  0.99290753  0.99226914  1
  O  O403  1  0.12254803  0.00350162  0.00965072  1
  O  O404  1  0.11873312  0.00210634  0.50765096  1
  O  O405  1  0.12055804  0.50803175  0.01082801  1
  O  O406  1  0.12087278  0.50788190  0.50625729  1
  O  O407  1  0.61722810  0.00397154  0.00493309  1
  O  O408  1  0.61845478  0.00000981  0.50810640  1
  O  O409  1  0.62740936  0.50145532  -0.00391079  1
  O  O410  1  0.61834800  0.50341330  0.50464569  1
  O  O411  1  0.36651341  0.36350910  0.12772307  1
  O  O412  1  0.37875963  0.36256176  0.61497650  1
  O  O413  1  0.36046956  0.87873380  0.12715521  1
  O  O414  1  0.37819999  0.86132905  0.61703433  1
  O  O415  1  0.86361060  0.36663033  0.12443581  1
  O  O416  1  0.86685871  0.37282306  0.62221215  1
  O  O417  1  0.87062342  0.87284346  0.11578020  1
  O  O418  1  0.86749925  0.86788713  0.62357889  1
  O  O419  1  0.13301620  0.13127976  0.37477505  1
  O  O420  1  0.13330525  0.12784061  0.88356741  1
  O  O421  1  0.12315328  0.63284768  0.38893860  1
  O  O422  1  0.12723433  0.63668157  0.88462047  1
  O  O423  1  0.62193258  0.13810877  0.37551423  1
  O  O424  1  0.63180050  0.13041527  0.87890212  1
  O  O425  1  0.62053321  0.63342653  0.38159599  1
  O  O426  1  0.63335165  0.63449165  0.87738006  1
