# generated using pymatgen
data_V85Zn86O256
_symmetry_space_group_name_H-M   'P 1'
_cell_length_a   16.94195131
_cell_length_b   16.94224883
_cell_length_c   16.96089010
_cell_angle_alpha   89.98463733
_cell_angle_beta   90.05497237
_cell_angle_gamma   90.00089823
_symmetry_Int_Tables_number   1
_chemical_formula_structural   V85Zn86O256
_chemical_formula_sum   'V85 Zn86 O256'
_cell_volume   4868.36251170
_cell_formula_units_Z   1
loop_
 _symmetry_equiv_pos_site_id
 _symmetry_equiv_pos_as_xyz
  1  'x, y, z'
loop_
 _atom_site_type_symbol
 _atom_site_label
 _atom_site_symmetry_multiplicity
 _atom_site_fract_x
 _atom_site_fract_y
 _atom_site_fract_z
 _atom_site_occupancy
  V  V0  1  -0.00170943  0.24841895  0.25048317  1
  V  V1  1  0.87124822  -0.01871904  0.37602222  1
  V  V2  1  0.61464140  0.87309155  0.25069704  1
  V  V3  1  0.61169888  0.00140778  0.12520956  1
  V  V4  1  0.75255127  0.38022495  0.13218223  1
  V  V5  1  0.50012404  0.00181572  0.50280322  1
  V  V6  1  0.62442832  0.62601837  0.49086173  1
  V  V7  1  0.49995326  0.75502977  0.75643077  1
  V  V8  1  0.75747192  0.25164476  0.50707530  1
  V  V9  1  0.63064442  0.74972392  0.87613909  1
  V  V10  1  0.75134225  0.25054158  0.00247244  1
  V  V11  1  0.50289436  0.62385966  0.62724300  1
  V  V12  1  0.74535958  0.75458818  0.49692714  1
  V  V13  1  -0.00542264  0.62588205  0.13083393  1
  V  V14  1  0.87546980  0.88192684  -0.00405707  1
  V  V15  1  0.74394985  0.87772226  0.12019083  1
  V  V16  1  0.24430981  0.12377926  0.88381747  1
  V  V17  1  0.37358301  0.62425855  0.75095379  1
  V  V18  1  0.62237189  0.25039361  0.87524357  1
  V  V19  1  0.49614880  0.75075147  0.25478652  1
  V  V20  1  -0.00319462  0.37974050  0.37491171  1
  V  V21  1  0.36891235  0.74613541  0.12676190  1
  V  V22  1  0.75726802  0.38311994  0.63129470  1
  V  V23  1  0.49508750  0.13445166  0.62524680  1
  V  V24  1  0.87552186  0.38167822  -0.00413547  1
  V  V25  1  0.39476575  0.12892261  0.24817649  1
  V  V26  1  0.00567587  0.12429832  0.12199868  1
  V  V27  1  0.25319640  0.49759495  0.25607827  1
  V  V28  1  0.12236152  0.25001151  0.88479643  1
  V  V29  1  -0.00319514  0.13029471  0.62026056  1
  V  V30  1  0.37519102  0.75152573  0.62670241  1
  V  V31  1  0.37014561  0.00099442  0.37476388  1
  V  V32  1  0.75851920  0.12497061  0.87694159  1
  V  V33  1  0.12725025  0.25089180  0.37982811  1
  V  V34  1  0.00167561  0.38377904  0.87143209  1
  V  V35  1  0.62088984  0.87935258  0.75262039  1
  V  V36  1  0.37074859  0.35809389  0.50395585  1
  V  V37  1  0.48832864  0.49922919  0.49974153  1
  V  V38  1  0.87234861  0.74958897  0.12748292  1
  V  V39  1  0.12461222  0.49238318  0.62472699  1
  V  V40  1  0.50108168  -0.00713239  -0.00333442  1
  V  V41  1  0.38193307  0.38016177  0.00064296  1
  V  V42  1  0.62536138  0.12822564  0.49999162  1
  V  V43  1  0.49670866  0.25635166  0.75170396  1
  V  V44  1  0.62431392  0.25254504  0.36667001  1
  V  V45  1  0.87276303  0.75738888  0.62126446  1
  V  V46  1  0.24673641  0.62463666  0.87450314  1
  V  V47  1  0.25142691  0.36183797  0.62673359  1
  V  V48  1  0.38006083  -0.00288476  0.87325189  1
  V  V49  1  0.13467292  0.12354321  0.50159275  1
  V  V50  1  0.37425429  0.87449312  0.00147230  1
  V  V51  1  0.62554902  0.38949775  0.25310078  1
  V  V52  1  0.00557999  0.00504147  -0.00176618  1
  V  V53  1  0.24060215  0.87461587  0.62851669  1
  V  V54  1  0.00822596  0.76213624  0.24766628  1
  V  V55  1  0.87598404  0.12800000  0.74518529  1
  V  V56  1  0.24679050  0.75697224  0.00215352  1
  V  V57  1  0.12497928  0.62402191  0.49601267  1
  V  V58  1  0.37153089  0.13023933  0.74938437  1
  V  V59  1  0.75501032  0.00091289  0.75349639  1
  V  V60  1  0.61952901  0.12513879  0.00477967  1
  V  V61  1  0.13682937  -0.00571555  0.12988738  1
  V  V62  1  0.49425884  0.37535579  0.37259951  1
  V  V63  1  0.37695992  0.61797533  0.25685586  1
  V  V64  1  0.75470933  0.12600970  0.37361961  1
  V  V65  1  0.74814379  -0.00221277  0.24873401  1
  V  V66  1  0.24998638  0.36943128  0.12483051  1
  V  V67  1  0.74937101  0.61282843  0.87594100  1
  V  V68  1  0.24115106  -0.00307436  0.75162341  1
  V  V69  1  0.62529351  0.00351386  0.62683578  1
  V  V70  1  0.00007026  0.75391969  0.74837135  1
  V  V71  1  0.39065226  0.24713718  0.12779019  1
  V  V72  1  0.12284028  0.75740051  0.87076755  1
  V  V73  1  -0.00341650  0.88239594  0.86943163  1
  V  V74  1  0.00420354  0.25377307  0.74889746  1
  V  V75  1  0.86300159  0.50990017  0.36696063  1
  V  V76  1  0.12215114  0.62698948  0.00043546  1
  V  V77  1  0.37513828  0.87638990  0.50423767  1
  V  V78  1  -0.00476323  -0.00690324  0.49907876  1
  V  V79  1  0.12316227  0.49866851  0.12429297  1
  V  V80  1  0.24561351  0.49327781  0.75124553  1
  V  V81  1  0.87002815  0.61406998  0.75223199  1
  V  V82  1  0.62323980  0.50555963  0.10755581  1
  V  V83  1  -0.00146046  0.62329113  0.62399513  1
  V  V84  1  0.24917826  0.12723470  0.36326200  1
  Zn  Zn85  1  0.25489776  0.61851592  0.38083165  1
  Zn  Zn86  1  0.50266255  0.87151581  0.37979605  1
  Zn  Zn87  1  0.87611414  0.24957327  0.12553114  1
  Zn  Zn88  1  -0.00359487  0.50012126  0.49785958  1
  Zn  Zn89  1  0.12500069  0.37422008  0.25095406  1
  Zn  Zn90  1  0.87565621  0.37666791  0.49956072  1
  Zn  Zn91  1  0.37698889  0.50202956  0.87996233  1
  Zn  Zn92  1  0.87586735  0.12157663  0.24751968  1
  Zn  Zn93  1  0.16361001  0.88148588  0.25188490  1
  Zn  Zn94  1  0.62690094  0.49856489  0.62861261  1
  Zn  Zn95  1  0.75347445  0.74786325  -0.00639663  1
  Zn  Zn96  1  0.63467617  0.38151840  0.75296321  1
  Zn  Zn97  1  -0.00540123  0.50456567  -0.00364639  1
  Zn  Zn98  1  0.74158758  0.62391827  0.35534093  1
  Zn  Zn99  1  0.24913865  0.74710787  0.50147348  1
  Zn  Zn100  1  0.24867275  0.24423141  0.00603894  1
  Zn  Zn101  1  0.00769494  0.87496598  0.37294161  1
  Zn  Zn102  1  0.12936216  0.75379569  0.37432236  1
  Zn  Zn103  1  0.50718082  0.39030556  0.88028658  1
  Zn  Zn104  1  0.75303259  0.87844101  0.62337205  1
  Zn  Zn105  1  0.11962792  -0.00299837  0.62767569  1
  Zn  Zn106  1  0.49711673  0.61522912  0.11386576  1
  Zn  Zn107  1  0.18446485  0.18559031  0.18817092  1
  Zn  Zn108  1  0.18112221  0.18408783  0.69341448  1
  Zn  Zn109  1  0.18750461  0.68519795  0.18917112  1
  Zn  Zn110  1  0.18481086  0.68485424  0.68531618  1
  Zn  Zn111  1  0.68641784  0.18982379  0.18799531  1
  Zn  Zn112  1  0.68563607  0.19183796  0.68827778  1
  Zn  Zn113  1  0.68280076  0.68958460  0.18186472  1
  Zn  Zn114  1  0.68823267  0.68659259  0.68781542  1
  Zn  Zn115  1  0.31353448  0.31009258  0.31338599  1
  Zn  Zn116  1  0.30923403  0.31166681  0.81571727  1
  Zn  Zn117  1  0.30945094  0.80453958  0.32158075  1
  Zn  Zn118  1  0.31238347  0.81454073  0.81477035  1
  Zn  Zn119  1  0.81395456  0.31481766  0.31328317  1
  Zn  Zn120  1  0.81878209  0.31051401  0.81338011  1
  Zn  Zn121  1  0.79479699  0.78435994  0.29456551  1
  Zn  Zn122  1  0.81487411  0.81260926  0.80889565  1
  Zn  Zn123  1  0.18764189  0.43454505  0.44083351  1
  Zn  Zn124  1  0.18632973  0.43379433  0.93940298  1
  Zn  Zn125  1  0.18761634  0.93777640  0.43821194  1
  Zn  Zn126  1  0.18405096  0.93910704  0.93907396  1
  Zn  Zn127  1  0.68479889  0.44138654  0.44278381  1
  Zn  Zn128  1  0.69144370  0.43546401  0.93630236  1
  Zn  Zn129  1  0.68645808  0.93475992  0.43664534  1
  Zn  Zn130  1  0.68677799  0.93705138  0.93354515  1
  Zn  Zn131  1  0.31870813  0.06473133  0.06553670  1
  Zn  Zn132  1  0.31106453  0.06401014  0.56524769  1
  Zn  Zn133  1  0.30760322  0.56302809  0.06650749  1
  Zn  Zn134  1  0.31162425  0.55840549  0.56647651  1
  Zn  Zn135  1  0.81658554  0.06179392  0.06317638  1
  Zn  Zn136  1  0.81495443  0.06269533  0.56224310  1
  Zn  Zn137  1  0.80945209  0.56207837  0.06220307  1
  Zn  Zn138  1  0.81520325  0.56526615  0.55632486  1
  Zn  Zn139  1  0.44144474  0.43559189  0.18658967  1
  Zn  Zn140  1  0.43349177  0.43894167  0.68758123  1
  Zn  Zn141  1  0.38121141  0.91731119  0.20903443  1
  Zn  Zn142  1  0.43619619  0.94137223  0.68827222  1
  Zn  Zn143  1  0.93516617  0.43846853  0.19073755  1
  Zn  Zn144  1  0.93594329  0.43375842  0.68421988  1
  Zn  Zn145  1  0.93603232  0.93879408  0.18509747  1
  Zn  Zn146  1  0.93633592  0.94110597  0.68797107  1
  Zn  Zn147  1  0.06229323  0.05867636  0.31053106  1
  Zn  Zn148  1  0.06210962  0.06568644  0.81323440  1
  Zn  Zn149  1  0.06140199  0.56403821  0.30839292  1
  Zn  Zn150  1  0.06300511  0.56528065  0.80847124  1
  Zn  Zn151  1  0.56279927  0.05877667  0.31681173  1
  Zn  Zn152  1  0.56218682  0.06675789  0.81471507  1
  Zn  Zn153  1  0.55527051  0.56129791  0.31315252  1
  Zn  Zn154  1  0.56482165  0.55825710  0.81313552  1
  Zn  Zn155  1  0.43917937  0.19034956  0.43464248  1
  Zn  Zn156  1  0.43608532  0.18723694  0.93990072  1
  Zn  Zn157  1  0.43588651  0.68743146  0.43743760  1
  Zn  Zn158  1  0.43847111  0.67866544  0.93615690  1
  Zn  Zn159  1  0.93855964  0.18417175  0.43555379  1
  Zn  Zn160  1  0.93728084  0.19129068  0.93922333  1
  Zn  Zn161  1  0.93704718  0.69050771  0.43580461  1
  Zn  Zn162  1  0.93393493  0.68940201  0.93782405  1
  Zn  Zn163  1  0.06074388  0.31342855  0.06052891  1
  Zn  Zn164  1  0.06232765  0.31188881  0.56033525  1
  Zn  Zn165  1  0.06315740  0.81848128  0.06348132  1
  Zn  Zn166  1  0.06169998  0.81026057  0.56070527  1
  Zn  Zn167  1  0.56505276  0.31570974  0.06599679  1
  Zn  Zn168  1  0.56760313  0.31431257  0.56146448  1
  Zn  Zn169  1  0.54021184  0.78053028  0.04326678  1
  Zn  Zn170  1  0.56510761  0.81280044  0.56733422  1
  O  O171  1  0.11269059  0.11634802  0.12782088  1
  O  O172  1  0.11755828  0.12172582  0.61693563  1
  O  O173  1  0.11883494  0.61770213  0.11858834  1
  O  O174  1  0.11910522  0.61496757  0.61690162  1
  O  O175  1  0.63306367  0.11787389  0.11187435  1
  O  O176  1  0.61772163  0.12241676  0.62063016  1
  O  O177  1  0.62924396  0.60778511  0.12478418  1
  O  O178  1  0.61141613  0.62720428  0.62053600  1
  O  O179  1  0.38210553  0.36718211  0.38861323  1
  O  O180  1  0.37089333  0.37296757  0.89405710  1
  O  O181  1  0.37734061  0.88451520  0.39161238  1
  O  O182  1  0.36954409  0.88647261  0.88600156  1
  O  O183  1  0.88116549  0.38468214  0.37677671  1
  O  O184  1  0.88631344  0.37050188  0.88402162  1
  O  O185  1  0.87184385  0.88180850  0.36802610  1
  O  O186  1  0.88555266  0.87197037  0.88167534  1
  O  O187  1  0.26463511  0.01085416  0.38511992  1
  O  O188  1  0.25476091  0.00510132  0.87002144  1
  O  O189  1  0.24364393  0.49682366  0.35947532  1
  O  O190  1  0.24899789  0.50439155  0.86830166  1
  O  O191  1  0.75390886  0.00639370  0.37157132  1
  O  O192  1  0.74317217  0.01118979  0.86166835  1
  O  O193  1  0.75731339  0.50677240  0.37822294  1
  O  O194  1  0.74749488  0.51348406  0.87339965  1
  O  O195  1  0.24101729  0.49130521  0.13225725  1
  O  O196  1  0.24273772  0.49142528  0.63308517  1
  O  O197  1  0.23486119  1.00737461  0.11705573  1
  O  O198  1  0.24887906  0.99309335  0.63487693  1
  O  O199  1  0.73971342  0.48926347  0.12126580  1
  O  O200  1  0.75196982  0.48533829  0.61819296  1
  O  O201  1  0.74379756  0.99234766  0.12787479  1
  O  O202  1  0.74443187  1.00376040  0.63618258  1
  O  O203  1  0.00265010  0.36656869  0.25683782  1
  O  O204  1  -0.00735791  0.36463239  0.75752586  1
  O  O205  1  0.00241375  0.86695686  0.24701707  1
  O  O206  1  -0.00456611  0.86914223  0.75832099  1
  O  O207  1  0.50864813  0.37802296  0.26190771  1
  O  O208  1  0.49126421  0.36174562  0.75262152  1
  O  O209  1  0.49696017  0.86969514  0.25252720  1
  O  O210  1  0.50706512  0.86795181  0.74389546  1
  O  O211  1  0.49301283  0.13068755  0.25777886  1
  O  O212  1  0.49301130  0.13460233  0.74524702  1
  O  O213  1  0.49299790  0.63074292  0.24375506  1
  O  O214  1  0.49386522  0.63339141  0.74226156  1
  O  O215  1  0.99816711  0.13145827  0.24380555  1
  O  O216  1  0.99352951  0.12739642  0.74133940  1
  O  O217  1  1.00748893  0.63820446  0.23519262  1
  O  O218  1  0.99072341  0.63287135  0.74500585  1
  O  O219  1  0.37208883  0.25534255  0.01099219  1
  O  O220  1  0.37698921  0.25936011  0.50454013  1
  O  O221  1  0.36513075  0.75655974  0.00259754  1
  O  O222  1  0.37559716  0.75952270  0.50826667  1
  O  O223  1  0.86886113  0.26044757  0.00384430  1
  O  O224  1  0.85965185  0.25010343  0.49138991  1
  O  O225  1  0.87750732  0.76490093  0.00854041  1
  O  O226  1  0.86097237  0.74177546  0.51059947  1
  O  O227  1  0.11618850  0.23842828  0.48683051  1
  O  O228  1  0.12636108  0.24922732  0.98961082  1
  O  O229  1  0.12695981  0.73833599  0.50075636  1
  O  O230  1  0.12950464  0.74857719  0.99343837  1
  O  O231  1  0.63534343  0.24535029  0.49000866  1
  O  O232  1  0.62824230  0.24283122  0.99590839  1
  O  O233  1  0.63468148  0.74153683  0.50836575  1
  O  O234  1  0.63435716  0.76973313  0.97760048  1
  O  O235  1  0.49032789  0.25217416  0.12570703  1
  O  O236  1  0.50659715  0.24083433  0.63324676  1
  O  O237  1  0.47793792  0.75794164  0.13889062  1
  O  O238  1  0.49441763  0.74406728  0.63390247  1
  O  O239  1  1.00247354  0.24325805  0.13307386  1
  O  O240  1  1.00657055  0.23953451  0.63282540  1
  O  O241  1  0.99618970  0.74588067  0.12742082  1
  O  O242  1  0.99389480  0.74518596  0.63064975  1
  O  O243  1  0.00327862  0.25717928  0.36872678  1
  O  O244  1  0.00602936  0.25603836  0.87015799  1
  O  O245  1  0.00276814  0.75290143  0.36250585  1
  O  O246  1  0.00412519  0.75777828  0.86755654  1
  O  O247  1  0.51233331  0.26336592  0.38372813  1
  O  O248  1  0.50777808  0.24969054  0.86909137  1
  O  O249  1  0.49196530  0.75271038  0.36065073  1
  O  O250  1  0.50973516  0.74505058  0.85996138  1
  O  O251  1  0.23832532  0.12219662  0.49494154  1
  O  O252  1  0.25807245  0.12495559  0.98705626  1
  O  O253  1  0.24089016  0.62147039  0.50205167  1
  O  O254  1  0.24324166  0.63478011  0.99378880  1
  O  O255  1  0.74625939  0.13436139  0.49482184  1
  O  O256  1  0.74535578  0.12782091  0.99298198  1
  O  O257  1  0.73656093  0.63393994  0.50465481  1
  O  O258  1  0.75996718  0.62902263  0.98012933  1
  O  O259  1  0.25650509  0.37107540  0.01332061  1
  O  O260  1  0.26401105  0.37755675  0.50752691  1
  O  O261  1  0.25380996  0.86274163  -0.00719102  1
  O  O262  1  0.25895556  0.87572214  0.51117163  1
  O  O263  1  0.75696009  0.36928838  0.00623587  1
  O  O264  1  0.74960983  0.36349543  0.50563822  1
  O  O265  1  0.75904923  0.88124887  0.00393884  1
  O  O266  1  0.74029926  0.86113375  0.50670619  1
  O  O267  1  0.13131577  0.49875524  0.23807446  1
  O  O268  1  0.13662292  0.50598167  0.74034551  1
  O  O269  1  0.12433469  0.99821072  0.23501852  1
  O  O270  1  0.13755136  1.00384479  0.74888567  1
  O  O271  1  0.62622549  0.49146035  0.25104727  1
  O  O272  1  0.62035420  0.49282408  0.74161879  1
  O  O273  1  0.62695358  0.99751662  0.24071246  1
  O  O274  1  0.62926080  0.99775690  0.74702551  1
  O  O275  1  0.38321637  0.01773528  0.26346745  1
  O  O276  1  0.36902979  0.00892039  0.75797844  1
  O  O277  1  0.36606734  0.50584302  0.23995837  1
  O  O278  1  0.36210446  0.50830830  0.75005143  1
  O  O279  1  0.86537444  0.00009924  0.25681669  1
  O  O280  1  0.86663715  0.01349749  0.74822000  1
  O  O281  1  0.87583455  0.49810607  0.26761986  1
  O  O282  1  0.88073390  0.51598748  0.74611596  1
  O  O283  1  0.11803182  0.36632370  0.37491033  1
  O  O284  1  0.11565763  0.36430590  0.87864240  1
  O  O285  1  0.12758048  0.87455008  0.36699933  1
  O  O286  1  0.11625137  0.86349811  0.87743284  1
  O  O287  1  0.62147956  0.37070945  0.37046925  1
  O  O288  1  0.62480844  0.36260209  0.87506382  1
  O  O289  1  0.62015160  0.88509984  0.35619288  1
  O  O290  1  0.62959570  0.87061253  0.85828387  1
  O  O291  1  0.37632842  0.12999716  0.14060990  1
  O  O292  1  0.38285073  0.12175682  0.63622224  1
  O  O293  1  0.37622823  0.63055044  0.13118574  1
  O  O294  1  0.38333973  0.63092912  0.62998714  1
  O  O295  1  0.88737764  0.12717037  0.12753855  1
  O  O296  1  0.88398940  0.12528490  0.63211472  1
  O  O297  1  0.88283041  0.63575731  0.11619417  1
  O  O298  1  0.87870063  0.63241169  0.63438734  1
  O  O299  1  0.25486877  0.25555126  0.12695988  1
  O  O300  1  0.23973680  0.26286079  0.63444213  1
  O  O301  1  0.25811238  0.74319947  0.11472935  1
  O  O302  1  0.25702149  0.75784232  0.62764368  1
  O  O303  1  0.74936617  0.26030968  0.11891448  1
  O  O304  1  0.74714275  0.25293109  0.61033326  1
  O  O305  1  0.75526092  0.76332718  0.11406319  1
  O  O306  1  0.75774210  0.75189235  0.62057928  1
  O  O307  1  0.23851637  0.24241130  0.37228949  1
  O  O308  1  0.24015601  0.24109988  0.87615502  1
  O  O309  1  0.24758948  0.73705084  0.38393679  1
  O  O310  1  0.23979151  0.74648658  0.87855058  1
  O  O311  1  0.74505111  0.24374187  0.38175937  1
  O  O312  1  0.74312761  0.24369459  0.88095415  1
  O  O313  1  0.75113783  0.75057316  0.39647032  1
  O  O314  1  0.74519973  0.74425522  0.87051447  1
  O  O315  1  -0.00544026  0.11585947  0.00634055  1
  O  O316  1  0.00564688  0.11792678  0.50509592  1
  O  O317  1  0.00481611  0.62512858  0.00778676  1
  O  O318  1  0.00612502  0.62419817  0.50814320  1
  O  O319  1  0.51030789  0.11170976  -0.00696917  1
  O  O320  1  0.50373024  0.12389657  0.50831786  1
  O  O321  1  0.51198557  0.66935488  0.01537720  1
  O  O322  1  0.50231285  0.61932997  0.50623919  1
  O  O323  1  0.48957494  0.37969965  0.49948890  1
  O  O324  1  0.48525013  0.37027638  1.00025812  1
  O  O325  1  0.49447134  0.88183769  0.50332241  1
  O  O326  1  0.49177442  0.88471849  0.99999006  1
  O  O327  1  0.99690297  0.37496272  0.48882524  1
  O  O328  1  0.99270421  0.37755531  0.99164717  1
  O  O329  1  1.00474038  0.88923222  0.49845536  1
  O  O330  1  0.99453279  0.88276401  0.99121299  1
  O  O331  1  0.50360741  0.48533306  0.38594896  1
  O  O332  1  0.49088961  0.50235491  0.87509880  1
  O  O333  1  0.48908588  1.00188928  0.38726074  1
  O  O334  1  0.48889069  1.00296660  0.87914073  1
  O  O335  1  0.99915723  0.48884843  0.37218520  1
  O  O336  1  1.00898716  0.48767205  0.87453531  1
  O  O337  1  0.98859509  0.99854844  0.38035348  1
  O  O338  1  1.00714593  0.99093373  0.88140769  1
  O  O339  1  0.00593622  0.00637846  0.11736002  1
  O  O340  1  -0.00081258  0.00962508  0.61727571  1
  O  O341  1  0.00554388  0.50811038  0.12598257  1
  O  O342  1  0.00816212  0.50336706  0.62421423  1
  O  O343  1  0.51103776  0.00007847  0.11408675  1
  O  O344  1  0.50461615  0.01328794  0.62215883  1
  O  O345  1  0.51781890  0.49877314  0.12608943  1
  O  O346  1  0.49676539  0.50937322  0.61886834  1
  O  O347  1  0.25029185  0.37883205  0.24013262  1
  O  O348  1  0.25730709  0.38401510  0.74238839  1
  O  O349  1  0.27854916  0.88251504  0.25055470  1
  O  O350  1  0.25821879  0.88563016  0.74153617  1
  O  O351  1  0.74197788  0.37025207  0.24083356  1
  O  O352  1  0.75482160  0.36496490  0.73457355  1
  O  O353  1  0.73724563  0.87697214  0.23955174  1
  O  O354  1  0.74561365  0.88694620  0.74739660  1
  O  O355  1  0.25434527  0.12527410  0.26160471  1
  O  O356  1  0.25647054  0.11806984  0.75767586  1
  O  O357  1  0.25828650  0.61371810  0.24960889  1
  O  O358  1  0.25350824  0.61948912  0.75521333  1
  O  O359  1  0.74910959  0.11793684  0.25791988  1
  O  O360  1  0.75649949  0.12413477  0.75553649  1
  O  O361  1  0.75963138  0.67728533  0.25900541  1
  O  O362  1  0.76367573  0.62866543  0.75588120  1
  O  O363  1  0.37025515  0.12392619  0.36809728  1
  O  O364  1  0.36834873  0.11604745  0.86925556  1
  O  O365  1  0.37665436  0.62155546  0.36136009  1
  O  O366  1  0.36387143  0.62645049  0.86945386  1
  O  O367  1  0.86241444  0.11978658  0.37268733  1
  O  O368  1  0.86284434  0.12882125  0.87075894  1
  O  O369  1  0.87575725  0.61176004  0.37624888  1
  O  O370  1  0.86652659  0.63042902  0.86091297  1
  O  O371  1  0.13167588  0.38079387  0.12609541  1
  O  O372  1  0.13252521  0.38586318  0.61726898  1
  O  O373  1  0.12720057  0.88986502  0.12711762  1
  O  O374  1  0.13715393  0.87586178  0.62252010  1
  O  O375  1  0.63126350  0.38345369  0.13340236  1
  O  O376  1  0.64209796  0.37286182  0.62580560  1
  O  O377  1  0.63060812  0.88599649  0.12999701  1
  O  O378  1  0.62690693  0.88533080  0.63652785  1
  O  O379  1  0.11409435  0.24897971  0.26110934  1
  O  O380  1  0.10963094  0.24278203  0.76314468  1
  O  O381  1  0.12229650  0.75754528  0.24840795  1
  O  O382  1  0.11026644  0.74354018  0.75624628  1
  O  O383  1  0.62970391  0.25828347  0.26288034  1
  O  O384  1  0.61573230  0.25256019  0.75953851  1
  O  O385  1  0.60698707  0.76344023  0.23469320  1
  O  O386  1  0.61941485  0.75989361  0.75243903  1
  O  O387  1  0.37372963  0.23652955  0.24478145  1
  O  O388  1  0.38032809  0.23733592  0.75898307  1
  O  O389  1  0.37510572  0.73751679  0.24283585  1
  O  O390  1  0.38190361  0.74669530  0.74745152  1
  O  O391  1  0.88731427  0.24799726  0.25004563  1
  O  O392  1  0.88798148  0.23567069  0.75611971  1
  O  O393  1  0.88988768  0.76255313  0.22992815  1
  O  O394  1  0.88555529  0.74344812  0.74307314  1
  O  O395  1  0.38524522  0.49404202  0.50264430  1
  O  O396  1  0.36772622  0.48349715  1.00528135  1
  O  O397  1  0.38090750  0.99573614  0.49903636  1
  O  O398  1  0.38204517  0.99494613  0.99512585  1
  O  O399  1  0.87812699  0.49798079  0.48674169  1
  O  O400  1  0.87617782  0.48638623  1.00411760  1
  O  O401  1  0.88199414  1.00335567  0.48945814  1
  O  O402  1  0.88722410  0.98933738  1.00370396  1
  O  O403  1  0.11268239  -0.00367868  0.00958942  1
  O  O404  1  0.11592018  0.00919780  0.50120373  1
  O  O405  1  0.12399470  0.50478256  0.01173140  1
  O  O406  1  0.12225859  0.50546380  0.50806138  1
  O  O407  1  0.61886149  0.00461860  0.00205805  1
  O  O408  1  0.62057216  0.00802560  0.50502164  1
  O  O409  1  0.62520339  0.49547445  0.00915912  1
  O  O410  1  0.61301923  0.50876120  0.50773968  1
  O  O411  1  0.37033391  0.36662257  0.11924952  1
  O  O412  1  0.36648997  0.37593233  0.61338119  1
  O  O413  1  0.37065660  0.86634060  0.10759308  1
  O  O414  1  0.36940947  0.87375223  0.61791487  1
  O  O415  1  0.86740413  0.37362225  0.12091685  1
  O  O416  1  0.86267926  0.37300138  0.61848060  1
  O  O417  1  0.86514185  0.87323824  0.11658386  1
  O  O418  1  0.87463805  0.86174723  0.62972362  1
  O  O419  1  0.13187363  0.12798107  0.37978271  1
  O  O420  1  0.13419089  0.13210152  0.87329576  1
  O  O421  1  0.12305871  0.62133178  0.38856661  1
  O  O422  1  0.12584457  0.63650748  0.88074811  1
  O  O423  1  0.63457052  0.13120639  0.37930406  1
  O  O424  1  0.63331256  0.13454904  0.88261707  1
  O  O425  1  0.62246362  0.62249840  0.38700088  1
  O  O426  1  0.64230321  0.63541382  0.86307746  1
