# generated using pymatgen
data_V85Zn86O256
_symmetry_space_group_name_H-M   'P 1'
_cell_length_a   16.96498252
_cell_length_b   16.96062910
_cell_length_c   16.95992362
_cell_angle_alpha   90.02593597
_cell_angle_beta   90.08610317
_cell_angle_gamma   89.92641929
_symmetry_Int_Tables_number   1
_chemical_formula_structural   V85Zn86O256
_chemical_formula_sum   'V85 Zn86 O256'
_cell_volume   4879.98371613
_cell_formula_units_Z   1
loop_
 _symmetry_equiv_pos_site_id
 _symmetry_equiv_pos_as_xyz
  1  'x, y, z'
loop_
 _atom_site_type_symbol
 _atom_site_label
 _atom_site_symmetry_multiplicity
 _atom_site_fract_x
 _atom_site_fract_y
 _atom_site_fract_z
 _atom_site_occupancy
  V  V0  1  -0.00156152  0.87487096  0.87371321  1
  V  V1  1  0.37413687  0.38642438  0.00710143  1
  V  V2  1  0.63300138  0.24626796  0.37518785  1
  V  V3  1  0.86356339  0.87325031  0.00211844  1
  V  V4  1  0.63176485  0.87796394  0.74724733  1
  V  V5  1  0.87368965  0.50007688  0.86691848  1
  V  V6  1  0.50186955  0.86875599  0.37012118  1
  V  V7  1  0.31749661  0.19430720  0.68464216  1
  V  V8  1  0.12507913  0.62465202  0.49851194  1
  V  V9  1  0.88007513  0.62249068  0.25166624  1
  V  V10  1  0.50483321  0.37612581  0.37270023  1
  V  V11  1  0.12936890  0.37153068  0.75557931  1
  V  V12  1  0.50462459  0.49914788  0.49794112  1
  V  V13  1  0.38215428  0.75207103  0.13274243  1
  V  V14  1  0.25070343  0.50112604  0.24938381  1
  V  V15  1  0.63039213  -0.00466785  0.12525735  1
  V  V16  1  0.87533373  0.86263056  0.49443743  1
  V  V17  1  -0.00219715  0.00123993  0.00493571  1
  V  V18  1  0.37805680  0.49999761  0.37455521  1
  V  V19  1  0.36881535  0.87404787  0.00007905  1
  V  V20  1  0.74991439  0.63001053  0.88784847  1
  V  V21  1  0.49464592  -0.00630165  0.00037226  1
  V  V22  1  0.49742068  0.25199416  0.74682094  1
  V  V23  1  0.63577111  0.75162306  0.37657909  1
  V  V24  1  0.12379976  0.37171028  0.24793582  1
  V  V25  1  0.52872818  0.42335622  0.92228084  1
  V  V26  1  0.76062850  0.86014982  0.62323057  1
  V  V27  1  0.24767602  0.62498048  0.37460878  1
  V  V28  1  0.86532140  0.75472567  0.12306071  1
  V  V29  1  0.64249579  0.37057690  0.24109849  1
  V  V30  1  0.37728983  0.87241744  0.49815562  1
  V  V31  1  0.12111184  0.76352184  0.37067713  1
  V  V32  1  0.00143518  0.62903211  0.12611941  1
  V  V33  1  0.86984267  0.00586165  0.37908199  1
  V  V34  1  0.62975880  0.75193952  0.88624922  1
  V  V35  1  0.25088588  0.74943476  0.49900552  1
  V  V36  1  0.74139779  0.11184568  0.87044883  1
  V  V37  1  0.38437751  0.62976479  0.24997246  1
  V  V38  1  0.00046493  0.36836887  0.37327828  1
  V  V39  1  0.49942119  0.12399592  0.63052225  1
  V  V40  1  0.75929619  0.37028063  0.63101817  1
  V  V41  1  0.87877018  0.12201753  0.24475281  1
  V  V42  1  0.62075523  0.12382267  0.00288000  1
  V  V43  1  -0.00149970  -0.00221152  0.49554878  1
  V  V44  1  0.61760037  0.24932256  0.87676021  1
  V  V45  1  0.63713616  -0.00015650  0.62632360  1
  V  V46  1  0.12795748  0.50071993  0.62436916  1
  V  V47  1  0.12381856  0.50159483  0.12635288  1
  V  V48  1  0.62931783  0.12453784  0.49647385  1
  V  V49  1  0.25526975  0.50697328  0.75282646  1
  V  V50  1  0.63372514  0.49973796  0.62627327  1
  V  V51  1  0.50201096  0.62707267  0.62143936  1
  V  V52  1  0.00127850  0.76714714  0.25253520  1
  V  V53  1  0.86896280  0.37660286  0.00576400  1
  V  V54  1  0.36477281  0.12853169  0.25134461  1
  V  V55  1  0.49798626  0.25004912  0.24846902  1
  V  V56  1  0.36472712  0.00415207  0.86289389  1
  V  V57  1  0.87472308  0.24226745  0.11797248  1
  V  V58  1  0.74694685  0.00280735  0.25553499  1
  V  V59  1  0.12314274  -0.00065029  0.62555899  1
  V  V60  1  0.12752205  0.87768769  0.75193080  1
  V  V61  1  0.12732582  0.62902043  -0.00280013  1
  V  V62  1  0.25536124  0.24420747  0.48846667  1
  V  V63  1  0.25223038  0.87763016  0.62856776  1
  V  V64  1  -0.00146394  0.63125881  0.62621018  1
  V  V65  1  0.49255284  0.12400196  0.12797003  1
  V  V66  1  0.37940863  0.36845149  0.50162865  1
  V  V67  1  0.12838846  0.12399541  0.49104831  1
  V  V68  1  0.37098028  0.00446819  0.37272085  1
  V  V69  1  0.86841556  0.49413000  0.37330993  1
  V  V70  1  0.76061626  0.24577419  0.50492311  1
  V  V71  1  0.10767413  0.13734915  -0.00607654  1
  V  V72  1  0.71556489  0.53360093  0.20145921  1
  V  V73  1  0.00471703  0.36981021  0.87588627  1
  V  V74  1  0.00067009  0.50162708  -0.00204101  1
  V  V75  1  0.63678480  0.63017696  0.49654078  1
  V  V76  1  0.86593523  0.63096356  0.74310519  1
  V  V77  1  0.00121509  0.49623389  0.49954806  1
  V  V78  1  0.26621652  0.24204288  -0.00072519  1
  V  V79  1  0.50124560  -0.00008892  0.49991269  1
  V  V80  1  0.23844634  0.87741078  0.13506544  1
  V  V81  1  0.25966886  0.37774407  0.62788218  1
  V  V82  1  0.62486842  0.37857618  0.74959871  1
  V  V83  1  0.50306687  0.75224413  0.74960518  1
  V  V84  1  0.62423195  0.87234489  0.24201721  1
  Zn  Zn85  1  0.12991776  0.24044416  0.36583041  1
  Zn  Zn86  1  0.37853449  0.62951332  0.75529776  1
  Zn  Zn87  1  0.37609594  0.74973683  0.62518341  1
  Zn  Zn88  1  0.11695305  0.00678043  0.12889243  1
  Zn  Zn89  1  -0.00235706  0.75349606  0.74555651  1
  Zn  Zn90  1  0.86877065  -0.00379508  0.86856314  1
  Zn  Zn91  1  0.75435983  0.62721860  0.37783847  1
  Zn  Zn92  1  0.25293015  0.36958283  0.12677521  1
  Zn  Zn93  1  0.55276820  0.56784827  0.05378511  1
  Zn  Zn94  1  0.49703078  0.87501218  0.87176611  1
  Zn  Zn95  1  0.23874622  0.00315581  0.25625956  1
  Zn  Zn96  1  0.25450657  0.63108246  0.87646794  1
  Zn  Zn97  1  0.74345962  0.25570536  0.00344075  1
  Zn  Zn98  1  0.24855691  0.13207356  0.86412812  1
  Zn  Zn99  1  0.85777357  0.12501363  0.73808050  1
  Zn  Zn100  1  -0.01502699  0.25156974  0.74470071  1
  Zn  Zn101  1  0.88110675  0.36832587  0.50748031  1
  Zn  Zn102  1  0.12710076  0.75029025  0.87189425  1
  Zn  Zn103  1  0.24996258  0.75043453  0.00110985  1
  Zn  Zn104  1  0.37731213  0.50658220  0.87988659  1
  Zn  Zn105  1  -0.01449915  0.13290003  0.62239360  1
  Zn  Zn106  1  0.00239288  0.24176217  0.24078255  1
  Zn  Zn107  1  0.18361262  0.18684534  0.17405905  1
  Zn  Zn108  1  0.12933039  0.17572926  0.69981744  1
  Zn  Zn109  1  0.18879355  0.69239718  0.18776958  1
  Zn  Zn110  1  0.18626663  0.69199277  0.68744404  1
  Zn  Zn111  1  0.69345640  0.18544824  0.18437825  1
  Zn  Zn112  1  0.68372331  0.18956603  0.68744771  1
  Zn  Zn113  1  0.68675233  0.70150702  0.19017302  1
  Zn  Zn114  1  0.68742250  0.68952613  0.68850107  1
  Zn  Zn115  1  0.31543791  0.31476031  0.31047230  1
  Zn  Zn116  1  0.31671983  0.32441571  0.82875309  1
  Zn  Zn117  1  0.30956016  0.81452872  0.31386042  1
  Zn  Zn118  1  0.31242395  0.81115067  0.81424561  1
  Zn  Zn119  1  0.81576818  0.30375120  0.31483881  1
  Zn  Zn120  1  0.80771354  0.30731962  0.81815132  1
  Zn  Zn121  1  0.81257201  0.81855829  0.30960035  1
  Zn  Zn122  1  0.81323159  0.81248265  0.80962314  1
  Zn  Zn123  1  0.18897909  0.43278200  0.43621217  1
  Zn  Zn124  1  0.19115578  0.44113250  0.93818263  1
  Zn  Zn125  1  0.18986000  0.93780363  0.43793080  1
  Zn  Zn126  1  0.18502260  0.94315047  0.93984429  1
  Zn  Zn127  1  0.68980680  0.43200670  0.44006519  1
  Zn  Zn128  1  0.69622707  0.44782286  0.93903390  1
  Zn  Zn129  1  0.69141331  0.93524154  0.43870651  1
  Zn  Zn130  1  0.67953175  0.93018169  0.94095659  1
  Zn  Zn131  1  0.31090977  0.05960461  0.06468911  1
  Zn  Zn132  1  0.30901815  0.05716905  0.55728472  1
  Zn  Zn133  1  0.31388769  0.56634739  0.06850742  1
  Zn  Zn134  1  0.31740589  0.56182863  0.56207361  1
  Zn  Zn135  1  0.81103948  0.06095993  0.05857865  1
  Zn  Zn136  1  0.81487260  0.06317705  0.56518854  1
  Zn  Zn137  1  0.82158664  0.56752802  0.05711328  1
  Zn  Zn138  1  0.81519483  0.55596036  0.56284235  1
  Zn  Zn139  1  0.44035216  0.43513073  0.18143752  1
  Zn  Zn140  1  0.44137471  0.44092443  0.68905083  1
  Zn  Zn141  1  0.43521342  0.93729235  0.18784176  1
  Zn  Zn142  1  0.44029768  0.93610586  0.68482646  1
  Zn  Zn143  1  0.93487993  0.43658013  0.18657873  1
  Zn  Zn144  1  0.94185943  0.44124386  0.69077343  1
  Zn  Zn145  1  0.93320729  0.94029984  0.18493983  1
  Zn  Zn146  1  0.93537177  0.94691254  0.68920442  1
  Zn  Zn147  1  0.05855447  0.05465371  0.31233697  1
  Zn  Zn148  1  0.05964265  0.05892125  0.81899499  1
  Zn  Zn149  1  0.06042785  0.56129353  0.31457374  1
  Zn  Zn150  1  0.06350519  0.56144124  0.81124560  1
  Zn  Zn151  1  0.55894913  0.06059227  0.31349601  1
  Zn  Zn152  1  0.55732358  0.05872876  0.81188710  1
  Zn  Zn153  1  0.55421237  0.55877976  0.22847913  1
  Zn  Zn154  1  0.57226105  0.56979304  0.80769059  1
  Zn  Zn155  1  0.44281263  0.18707980  0.43521689  1
  Zn  Zn156  1  0.43423934  0.18409879  0.93390553  1
  Zn  Zn157  1  0.44264371  0.68688590  0.43364916  1
  Zn  Zn158  1  0.44195012  0.68348248  0.94041140  1
  Zn  Zn159  1  0.94069046  0.18163768  0.43395649  1
  Zn  Zn160  1  0.92398669  0.19524412  0.91383146  1
  Zn  Zn161  1  0.94179858  0.68484181  0.43418337  1
  Zn  Zn162  1  0.93816633  0.69169783  0.93547553  1
  Zn  Zn163  1  0.05858327  0.30983911  0.06143052  1
  Zn  Zn164  1  0.07049239  0.31088653  0.56249843  1
  Zn  Zn165  1  0.05643820  0.81334354  0.06209600  1
  Zn  Zn166  1  0.06139665  0.81375786  0.55864119  1
  Zn  Zn167  1  0.56252398  0.30957579  0.07083071  1
  Zn  Zn168  1  0.56531819  0.30978258  0.56536886  1
  Zn  Zn169  1  0.54645327  0.77709068  0.04939431  1
  Zn  Zn170  1  0.56668259  0.81255241  0.56024895  1
  O  O171  1  0.12547374  0.12275266  0.09919616  1
  O  O172  1  0.13666890  0.10508523  0.60833081  1
  O  O173  1  0.11994528  0.62047623  0.12095370  1
  O  O174  1  0.11914952  0.61963564  0.61857478  1
  O  O175  1  0.61388121  0.11709373  0.12060785  1
  O  O176  1  0.61728508  0.11674591  0.62043401  1
  O  O177  1  0.64182860  0.60265244  0.15464276  1
  O  O178  1  0.62070104  0.61846695  0.62003569  1
  O  O179  1  0.38282524  0.38046840  0.38175202  1
  O  O180  1  0.39157154  0.38517547  0.89351131  1
  O  O181  1  0.38405938  0.87942830  0.37792896  1
  O  O182  1  0.37544561  0.88291109  0.88454991  1
  O  O183  1  0.88460424  0.37784933  0.37466986  1
  O  O184  1  0.88247371  0.38527782  0.87743479  1
  O  O185  1  0.86722858  0.88579752  0.38925525  1
  O  O186  1  0.87984405  0.87367427  0.88352177  1
  O  O187  1  0.26642665  -0.00544136  0.37439243  1
  O  O188  1  0.26214403  0.00072419  0.87420627  1
  O  O189  1  0.25520994  0.50197110  0.36612247  1
  O  O190  1  0.25472893  0.50520210  0.86458359  1
  O  O191  1  0.75544595  -0.00041648  0.36786295  1
  O  O192  1  0.73481615  0.01006038  0.87595452  1
  O  O193  1  0.76559953  0.49744867  0.38181798  1
  O  O194  1  0.75949586  0.51783019  0.87439300  1
  O  O195  1  0.24509183  0.49845606  0.13793605  1
  O  O196  1  0.24844788  0.49420826  0.62869503  1
  O  O197  1  0.24991157  0.98560518  0.12672859  1
  O  O198  1  0.24270522  0.98395544  0.61679976  1
  O  O199  1  0.76494556  0.49385178  0.12451761  1
  O  O200  1  0.73940565  0.48875306  0.62063165  1
  O  O201  1  0.73397916  1.00257449  0.12861749  1
  O  O202  1  0.73866875  0.99335365  0.62103819  1
  O  O203  1  0.00807665  0.37377230  0.25640109  1
  O  O204  1  0.01113910  0.37505318  0.75705216  1
  O  O205  1  -0.00722002  0.86605534  0.24955103  1
  O  O206  1  0.00469170  0.87464438  0.75636008  1
  O  O207  1  0.50768457  0.36585191  0.25459197  1
  O  O208  1  0.51163375  0.36539210  0.74160273  1
  O  O209  1  0.50934160  0.88743297  0.26244620  1
  O  O210  1  0.51034539  0.86492014  0.74524671  1
  O  O211  1  0.49428806  0.13004904  0.24428575  1
  O  O212  1  0.50255262  0.12981405  0.73734719  1
  O  O213  1  0.48177050  0.63313883  0.27203861  1
  O  O214  1  0.50488127  0.63679785  0.73882629  1
  O  O215  1  0.98306809  0.12364060  0.25504740  1
  O  O216  1  1.02880922  0.13446914  0.74282024  1
  O  O217  1  0.99082048  0.62829997  0.24688836  1
  O  O218  1  0.99298600  0.62572318  0.74120082  1
  O  O219  1  0.36996448  0.25739284  -0.00092214  1
  O  O220  1  0.37352170  0.26110543  0.49401723  1
  O  O221  1  0.37416815  0.75836485  0.01489547  1
  O  O222  1  0.37045921  0.75527452  0.49919503  1
  O  O223  1  0.87200697  0.25911267  0.00092117  1
  O  O224  1  0.86305253  0.24858729  0.49165813  1
  O  O225  1  0.88140928  0.76342490  0.00852378  1
  O  O226  1  0.87939081  0.76379883  0.49136565  1
  O  O227  1  0.13876263  0.24012928  0.49645646  1
  O  O228  1  0.12558837  0.23917961  0.99667448  1
  O  O229  1  0.12945562  0.74354711  0.49220288  1
  O  O230  1  0.12167840  0.73684687  1.00252421  1
  O  O231  1  0.63044932  0.24298257  0.49338281  1
  O  O232  1  0.61735980  0.24062550  0.99460879  1
  O  O233  1  0.62452917  0.74142837  0.49156539  1
  O  O234  1  0.63799112  0.77987830  0.98220850  1
  O  O235  1  0.50514144  0.23855302  0.14071298  1
  O  O236  1  0.50356785  0.24052241  0.63629186  1
  O  O237  1  0.48039217  0.76589316  0.14122286  1
  O  O238  1  0.50383999  0.74241980  0.62914911  1
  O  O239  1  0.98237055  0.25273899  0.12528488  1
  O  O240  1  1.02666598  0.24252130  0.63731109  1
  O  O241  1  0.99392247  0.74564467  0.13507783  1
  O  O242  1  1.00371988  0.73406468  0.62116980  1
  O  O243  1  0.00386510  0.25994486  0.37224527  1
  O  O244  1  0.00736543  0.26871154  0.87959073  1
  O  O245  1  0.00987921  0.74538438  0.36462416  1
  O  O246  1  0.00428953  0.76365687  0.87390402  1
  O  O247  1  0.51223082  0.25494953  0.36676740  1
  O  O248  1  0.50678980  0.23977721  0.86119198  1
  O  O249  1  0.51047205  0.76457775  0.38137744  1
  O  O250  1  0.51171712  0.75361292  0.86401074  1
  O  O251  1  0.24738829  0.13480496  0.49989947  1
  O  O252  1  0.25520141  0.13694980  0.99895593  1
  O  O253  1  0.24628272  0.62967197  0.49578884  1
  O  O254  1  0.23996914  0.62639884  1.00221256  1
  O  O255  1  0.73517487  0.13086684  0.50639909  1
  O  O256  1  0.72838325  0.12179348  0.99704907  1
  O  O257  1  0.74011978  0.61940603  0.50209018  1
  O  O258  1  0.75507950  0.62950810  0.98699652  1
  O  O259  1  0.26322607  0.37126632  -0.00045307  1
  O  O260  1  0.25840166  0.36779379  0.50832417  1
  O  O261  1  0.25864640  0.87677138  0.00846145  1
  O  O262  1  0.25787463  0.86756251  0.50416600  1
  O  O263  1  0.76341289  0.37314879  -0.01101985  1
  O  O264  1  0.75389967  0.36384866  0.51194223  1
  O  O265  1  0.76549454  0.87993284  -0.00328329  1
  O  O266  1  0.76296232  0.87825108  0.51199994  1
  O  O267  1  0.13174254  0.49424719  0.24721662  1
  O  O268  1  0.13791140  0.49693368  0.74247729  1
  O  O269  1  0.12748186  1.00838823  0.24155749  1
  O  O270  1  0.12126761  0.98691477  0.73860944  1
  O  O271  1  0.63776568  0.48256866  0.25941474  1
  O  O272  1  0.62277476  0.49040008  0.73944501  1
  O  O273  1  0.62898636  0.99743816  0.24434871  1
  O  O274  1  0.61625068  0.98657225  0.73948811  1
  O  O275  1  0.37332506  0.01018069  0.25722950  1
  O  O276  1  0.38148135  -0.00748154  0.76543147  1
  O  O277  1  0.36718015  0.50694266  0.25484672  1
  O  O278  1  0.36494668  0.50526782  0.74623456  1
  O  O279  1  0.86615447  0.00170963  0.25699877  1
  O  O280  1  0.88119711  0.01448094  0.75807017  1
  O  O281  1  0.87778464  0.50857260  0.25798009  1
  O  O282  1  0.88115920  0.51196200  0.76163554  1
  O  O283  1  0.11937032  0.37386195  0.36218309  1
  O  O284  1  0.11568017  0.39227555  0.86674372  1
  O  O285  1  0.12770681  0.86246271  0.37887964  1
  O  O286  1  0.11853093  0.87761998  0.86667146  1
  O  O287  1  0.62206881  0.36511165  0.36934715  1
  O  O288  1  0.61580731  0.36959360  0.87169601  1
  O  O289  1  0.61979767  0.87133379  0.37093087  1
  O  O290  1  0.62278181  0.87148729  0.86050222  1
  O  O291  1  0.38693783  0.11858592  0.13294520  1
  O  O292  1  0.37523798  0.12666869  0.62945326  1
  O  O293  1  0.37037841  0.64236695  0.13495635  1
  O  O294  1  0.39284760  0.62626658  0.62231827  1
  O  O295  1  0.87095453  0.12837770  0.13098758  1
  O  O296  1  0.87190666  0.13473179  0.62601238  1
  O  O297  1  0.88255133  0.63322651  0.13178162  1
  O  O298  1  0.88249758  0.61467283  0.63668529  1
  O  O299  1  0.24325283  0.25622326  0.10293803  1
  O  O300  1  0.26465311  0.25613343  0.61960315  1
  O  O301  1  0.25535335  0.76362472  0.12359559  1
  O  O302  1  0.25108932  0.75897663  0.61522330  1
  O  O303  1  0.76405178  0.24682525  0.11821352  1
  O  O304  1  0.74101114  0.25890379  0.61656899  1
  O  O305  1  0.76599603  0.75029468  0.12805475  1
  O  O306  1  0.75003091  0.76189840  0.62255380  1
  O  O307  1  0.24923998  0.25708384  0.38588342  1
  O  O308  1  0.25398737  0.25148683  0.89290021  1
  O  O309  1  0.24242004  0.74450468  0.38023525  1
  O  O310  1  0.24487956  0.74961147  0.88204239  1
  O  O311  1  0.73880998  0.25152899  0.38590602  1
  O  O312  1  0.72864014  0.23954555  0.88164266  1
  O  O313  1  0.73997756  0.75191266  0.37137144  1
  O  O314  1  0.74549695  0.73770685  0.86650954  1
  O  O315  1  0.00355933  0.12052044  -0.01684278  1
  O  O316  1  0.00984163  0.11748288  0.50237131  1
  O  O317  1  0.00455269  0.62028471  0.00442626  1
  O  O318  1  0.00427072  0.61603989  0.50593963  1
  O  O319  1  0.50323442  0.11714353  0.00720770  1
  O  O320  1  0.50787900  0.12301509  0.51134600  1
  O  O321  1  0.52732438  0.66608688  0.00940697  1
  O  O322  1  0.51164883  0.62004600  0.50460203  1
  O  O323  1  0.49599107  0.37619615  0.49657830  1
  O  O324  1  0.48822295  0.36773712  1.00569373  1
  O  O325  1  0.49582438  0.88091340  0.49492687  1
  O  O326  1  0.48631320  0.87914648  1.00126072  1
  O  O327  1  1.00290838  0.37704373  0.49295277  1
  O  O328  1  0.99532063  0.38468751  0.99314941  1
  O  O329  1  0.98357419  0.88220063  0.50645176  1
  O  O330  1  0.99292841  0.88259776  0.99284593  1
  O  O331  1  0.49456392  0.48996103  0.38246482  1
  O  O332  1  0.49648519  0.50033408  0.86001286  1
  O  O333  1  0.49279846  0.99188004  0.38252208  1
  O  O334  1  0.49226077  0.99751657  0.88760343  1
  O  O335  1  0.99367005  0.48756429  0.37949656  1
  O  O336  1  0.99182200  0.49752255  0.88020976  1
  O  O337  1  0.98922509  1.00005634  0.38849196  1
  O  O338  1  0.99721206  0.98758036  0.88496505  1
  O  O339  1  -0.00524749  -0.00086729  0.10909046  1
  O  O340  1  0.00861328  0.00153219  0.61248428  1
  O  O341  1  0.00393203  0.50794552  0.11901883  1
  O  O342  1  0.00867882  0.50573342  0.61934967  1
  O  O343  1  0.50508706  0.00442599  0.11665800  1
  O  O344  1  0.50693620  0.00578895  0.61794846  1
  O  O345  1  0.50074049  0.51624734  0.13833619  1
  O  O346  1  0.51194643  0.50688649  0.61858084  1
  O  O347  1  0.24306624  0.38202996  0.24861048  1
  O  O348  1  0.25306961  0.38652987  0.74550600  1
  O  O349  1  0.25091282  0.87824370  0.23804830  1
  O  O350  1  0.24219515  0.86859924  0.73860543  1
  O  O351  1  0.74145644  0.36791458  0.25282294  1
  O  O352  1  0.73573909  0.36431501  0.74578262  1
  O  O353  1  0.73816132  0.88910229  0.25174062  1
  O  O354  1  0.74594231  0.87289598  0.73493523  1
  O  O355  1  0.26271001  0.13076502  0.24136343  1
  O  O356  1  0.24789778  0.14497542  0.73952194  1
  O  O357  1  0.25396186  0.61740082  0.25613027  1
  O  O358  1  0.25353451  0.61998926  0.74754178  1
  O  O359  1  0.75703136  0.11062187  0.24658188  1
  O  O360  1  0.73862870  0.12746212  0.76728657  1
  O  O361  1  0.76335755  0.62220100  0.25202157  1
  O  O362  1  0.76400586  0.62537650  0.74874444  1
  O  O363  1  0.38438995  0.11551104  0.36536551  1
  O  O364  1  0.37025559  0.10956240  0.87377209  1
  O  O365  1  0.36565860  0.61970534  0.37312260  1
  O  O366  1  0.37428947  0.62427510  0.87416581  1
  O  O367  1  0.87351353  0.11234032  0.36833503  1
  O  O368  1  0.84338979  0.11475306  0.89528714  1
  O  O369  1  0.87507584  0.61534836  0.36836311  1
  O  O370  1  0.86764941  0.62323624  0.86651169  1
  O  O371  1  0.12324414  0.38204963  0.13478574  1
  O  O372  1  0.14253716  0.38210923  0.63081052  1
  O  O373  1  0.13720602  0.87499966  0.11890873  1
  O  O374  1  0.13100079  0.88173597  0.62680604  1
  O  O375  1  0.62761313  0.37037381  0.14200301  1
  O  O376  1  0.63247004  0.38139682  0.63169423  1
  O  O377  1  0.61514780  0.88162875  0.13808869  1
  O  O378  1  0.63660566  0.88028577  0.62650480  1
  O  O379  1  0.12343580  0.25633593  0.24741397  1
  O  O380  1  0.14362613  0.27298656  0.75755225  1
  O  O381  1  0.11406834  0.74498781  0.25896304  1
  O  O382  1  0.11913908  0.76416626  0.74791412  1
  O  O383  1  0.62398316  0.25425577  0.25664902  1
  O  O384  1  0.61475274  0.25611914  0.75747737  1
  O  O385  1  0.62402874  0.76308358  0.26015541  1
  O  O386  1  0.62158094  0.76063990  0.75271283  1
  O  O387  1  0.38714154  0.24259775  0.25783918  1
  O  O388  1  0.37553806  0.25362627  0.74850173  1
  O  O389  1  0.36394720  0.74276377  0.24198206  1
  O  O390  1  0.38839212  0.75096099  0.74593815  1
  O  O391  1  0.87393716  0.23779290  0.24119941  1
  O  O392  1  0.88319047  0.22775938  0.79134972  1
  O  O393  1  0.88182038  0.74469319  0.24661320  1
  O  O394  1  0.87951518  0.73434204  0.75065376  1
  O  O395  1  0.38198712  0.48909653  0.49498077  1
  O  O396  1  0.37422218  0.49127457  1.00373832  1
  O  O397  1  0.38178174  0.99378642  0.49254217  1
  O  O398  1  0.37992904  0.99302824  0.99547617  1
  O  O399  1  0.88507505  0.49279664  0.49291391  1
  O  O400  1  0.88165712  0.49500359  0.98872867  1
  O  O401  1  0.87991009  0.99663791  0.49420999  1
  O  O402  1  0.87881197  0.98854096  0.99587122  1
  O  O403  1  0.11216805  0.00561640  0.00429757  1
  O  O404  1  0.11732814  0.00150605  0.50141697  1
  O  O405  1  0.12143187  0.50958823  0.00696835  1
  O  O406  1  0.12188188  0.50338362  0.50359353  1
  O  O407  1  0.61383120  0.00153911  0.00772799  1
  O  O408  1  0.62121582  0.00657179  0.50522296  1
  O  O409  1  0.59805623  0.48334692  -0.01798042  1
  O  O410  1  0.62156677  0.50432841  0.50541064  1
  O  O411  1  0.37250837  0.37409930  0.11295487  1
  O  O412  1  0.36777978  0.38237337  0.61645425  1
  O  O413  1  0.36507441  0.86952376  0.12197131  1
  O  O414  1  0.36863470  0.87383527  0.61734825  1
  O  O415  1  0.88026759  0.36968715  0.10986519  1
  O  O416  1  0.86351949  0.37884830  0.63117899  1
  O  O417  1  0.87763769  0.86902415  0.11120393  1
  O  O418  1  0.86546476  0.87810441  0.61693151  1
  O  O419  1  0.12272540  0.12305180  0.38664739  1
  O  O420  1  0.13603940  0.11435252  0.89279664  1
  O  O421  1  0.13087828  0.62703678  0.38162458  1
  O  O422  1  0.12576035  0.62627902  0.88430343  1
  O  O423  1  0.61605359  0.13308733  0.38546287  1
  O  O424  1  0.62318483  0.12806578  0.88316345  1
  O  O425  1  0.63224322  0.63681712  0.38388344  1
  O  O426  1  0.64204335  0.63486282  0.87040744  1
