# generated using pymatgen
data_V85Zn86O256
_symmetry_space_group_name_H-M   'P 1'
_cell_length_a   16.94856891
_cell_length_b   16.93638220
_cell_length_c   16.93028192
_cell_angle_alpha   89.96442319
_cell_angle_beta   90.01010842
_cell_angle_gamma   89.91280080
_symmetry_Int_Tables_number   1
_chemical_formula_structural   V85Zn86O256
_chemical_formula_sum   'V85 Zn86 O256'
_cell_volume   4859.78745459
_cell_formula_units_Z   1
loop_
 _symmetry_equiv_pos_site_id
 _symmetry_equiv_pos_as_xyz
  1  'x, y, z'
loop_
 _atom_site_type_symbol
 _atom_site_label
 _atom_site_symmetry_multiplicity
 _atom_site_fract_x
 _atom_site_fract_y
 _atom_site_fract_z
 _atom_site_occupancy
  V  V0  1  0.75189584  0.37272978  0.61606766  1
  V  V1  1  0.49748429  0.37669852  0.87586226  1
  V  V2  1  0.37300678  0.12293673  0.25266272  1
  V  V3  1  0.25022123  0.74734220  0.50310377  1
  V  V4  1  0.75463599  0.87484028  0.62444533  1
  V  V5  1  0.74834703  0.11650239  0.37837135  1
  V  V6  1  0.12502718  0.51337998  0.62487982  1
  V  V7  1  0.62525304  0.12473977  0.00004619  1
  V  V8  1  0.12563134  -0.01602393  0.62115838  1
  V  V9  1  0.49918175  0.24949857  0.75240039  1
  V  V10  1  0.36853025  0.49617822  0.36984673  1
  V  V11  1  0.75777730  0.12779381  0.87729625  1
  V  V12  1  0.75432329  0.00091665  0.75527698  1
  V  V13  1  0.62711177  0.50328904  0.61666556  1
  V  V14  1  0.36725586  0.62076118  0.24915273  1
  V  V15  1  0.24157852  0.24446271  0.50426331  1
  V  V16  1  0.88349928  0.74596268  0.61975452  1
  V  V17  1  0.62652002  0.37593459  0.75014095  1
  V  V18  1  0.12401061  0.87675761  0.24935450  1
  V  V19  1  0.75571636  0.49854753  0.74788463  1
  V  V20  1  0.76086656  -0.00486115  0.25478943  1
  V  V21  1  0.23942388  0.12297327  0.38084067  1
  V  V22  1  0.62432481  0.00057024  0.62604642  1
  V  V23  1  0.87815122  0.88750061  0.49579618  1
  V  V24  1  0.25797785  0.49733777  0.75926410  1
  V  V25  1  0.12293435  0.00871851  0.11926515  1
  V  V26  1  0.37380711  0.87949735  -0.00874860  1
  V  V27  1  0.62646197  0.86703118  0.75680161  1
  V  V28  1  0.50037222  0.62854767  0.62629340  1
  V  V29  1  0.51242376  0.37121273  0.37728461  1
  V  V30  1  0.24734216  -0.01759056  0.74930904  1
  V  V31  1  0.74265618  0.75114558  -0.00775352  1
  V  V32  1  0.87389393  0.75066245  0.12099920  1
  V  V33  1  0.25090567  0.12031695  0.87376917  1
  V  V34  1  0.50174947  0.62313817  0.12452943  1
  V  V35  1  0.24738862  0.37644700  0.63065416  1
  V  V36  1  0.49808872  0.50075601  0.49972677  1
  V  V37  1  0.00036767  0.48994145  -0.01000861  1
  V  V38  1  -0.00378177  0.75102233  0.25344941  1
  V  V39  1  0.37376136  0.24885079  0.62868301  1
  V  V40  1  0.12136520  0.25339955  0.87533939  1
  V  V41  1  -0.00146028  0.62588688  0.12350048  1
  V  V42  1  0.87404718  0.48066881  0.38699942  1
  V  V43  1  -0.00403513  0.89261446  0.37510899  1
  V  V44  1  0.86687188  0.61656212  0.25430525  1
  V  V45  1  0.87468272  0.24698765  0.61747820  1
  V  V46  1  0.12328126  0.37415786  0.26079468  1
  V  V47  1  0.25019048  0.37813614  0.13347092  1
  V  V48  1  0.75030952  0.87584502  0.12281200  1
  V  V49  1  0.62844913  0.25117970  0.87673100  1
  V  V50  1  0.37179529  0.87403843  0.51040775  1
  V  V51  1  0.37283805  0.24989729  0.12717930  1
  V  V52  1  -0.00118718  0.00642957  -0.01128875  1
  V  V53  1  -0.00669980  0.13394084  0.12037899  1
  V  V54  1  0.49707447  0.50038372  -0.00402291  1
  V  V55  1  -0.00949241  0.25499935  0.25822435  1
  V  V56  1  0.49779753  0.12284566  0.12518386  1
  V  V57  1  0.37420667  0.37407379  0.50036928  1
  V  V58  1  0.87410882  0.88023167  -0.01233190  1
  V  V59  1  0.74039013  0.24978130  0.49193239  1
  V  V60  1  0.74625461  0.74922034  0.48908718  1
  V  V61  1  0.37312052  -0.00137895  0.37730070  1
  V  V62  1  0.37095081  0.37885459  -0.00360467  1
  V  V63  1  0.50230875  0.74722715  0.25614872  1
  V  V64  1  0.37479407  0.75220016  0.12534685  1
  V  V65  1  0.24184037  0.24452931  0.00199966  1
  V  V66  1  0.24870884  0.87787407  0.12436408  1
  V  V67  1  0.24506903  0.75170272  -0.00341849  1
  V  V68  1  -0.00083851  0.25828539  0.75152641  1
  V  V69  1  0.01357551  0.86450702  0.87264241  1
  V  V70  1  0.50347559  0.87330663  0.37762629  1
  V  V71  1  0.86401000  0.36983537  0.00242589  1
  V  V72  1  0.01149579  0.12298188  0.61164306  1
  V  V73  1  0.50430516  0.24660350  0.25794736  1
  V  V74  1  0.37810373  0.62387342  0.75596589  1
  V  V75  1  0.49824215  0.12473621  0.62666550  1
  V  V76  1  0.63454746  0.49330418  0.12675589  1
  V  V77  1  0.88168813  0.62467639  0.74536842  1
  V  V78  1  0.88179865  0.12146437  0.75155567  1
  V  V79  1  0.25944181  0.61981155  0.88232959  1
  V  V80  1  0.62534965  0.87246367  0.25117353  1
  V  V81  1  0.74554616  0.62737786  0.87096146  1
  V  V82  1  0.49529100  0.00214737  -0.00887548  1
  V  V83  1  0.12172988  0.62718989  -0.00200489  1
  V  V84  1  0.12577647  0.49996250  0.13382781  1
  Zn  Zn85  1  -0.00198260  0.50114196  0.49374008  1
  Zn  Zn86  1  0.01367809  0.75950714  0.74002931  1
  Zn  Zn87  1  0.50721646  0.74396789  0.76201907  1
  Zn  Zn88  1  0.86971314  0.13023841  0.25051014  1
  Zn  Zn89  1  0.49835288  -0.00101256  0.50264639  1
  Zn  Zn90  1  0.61845204  0.12546425  0.49301292  1
  Zn  Zn91  1  0.88151481  0.49499208  0.86884971  1
  Zn  Zn92  1  0.11514227  0.62904921  0.49630317  1
  Zn  Zn93  1  0.37546609  0.75350168  0.63107615  1
  Zn  Zn94  1  0.12669997  0.74839694  0.37390566  1
  Zn  Zn95  1  0.61761795  0.63675732  0.48764130  1
  Zn  Zn96  1  0.62439334  -0.00085049  0.12525156  1
  Zn  Zn97  1  0.11652007  0.24953288  0.38243269  1
  Zn  Zn98  1  0.37642688  0.11495831  0.75734670  1
  Zn  Zn99  1  0.62123747  0.62901755  -0.00652165  1
  Zn  Zn100  1  0.50432699  0.87022330  0.87783257  1
  Zn  Zn101  1  0.11207763  0.38979074  0.76096707  1
  Zn  Zn102  1  0.73506309  0.61418212  0.36479083  1
  Zn  Zn103  1  0.75002530  0.25044712  0.01733209  1
  Zn  Zn104  1  0.24821221  0.00095860  0.24992920  1
  Zn  Zn105  1  0.24522572  0.62199052  0.37193703  1
  Zn  Zn106  1  0.62763458  0.37161765  0.24234367  1
  Zn  Zn107  1  0.18328478  0.18890223  0.19266978  1
  Zn  Zn108  1  0.18418135  0.18643661  0.69350713  1
  Zn  Zn109  1  0.18561944  0.69054865  0.18467562  1
  Zn  Zn110  1  0.19318912  0.69958023  0.68631209  1
  Zn  Zn111  1  0.68499617  0.18166159  0.19105552  1
  Zn  Zn112  1  0.68709649  0.18702216  0.68789505  1
  Zn  Zn113  1  0.68538095  0.68882743  0.18344333  1
  Zn  Zn114  1  0.69479448  0.68758738  0.67978984  1
  Zn  Zn115  1  0.31246212  0.30920062  0.31590525  1
  Zn  Zn116  1  0.31176348  0.30875508  0.81556799  1
  Zn  Zn117  1  0.31216545  0.81158879  0.31582927  1
  Zn  Zn118  1  0.31311249  0.80674877  0.81600269  1
  Zn  Zn119  1  0.80402069  0.32265342  0.18807989  1
  Zn  Zn120  1  0.81807585  0.31475136  0.81539428  1
  Zn  Zn121  1  0.81658557  0.81272523  0.31357376  1
  Zn  Zn122  1  0.81757647  0.81006543  0.80937259  1
  Zn  Zn123  1  0.18956937  0.43782782  0.44251601  1
  Zn  Zn124  1  0.18560193  0.43740962  0.94027247  1
  Zn  Zn125  1  0.18653406  0.93350263  0.43862108  1
  Zn  Zn126  1  0.18455432  0.94160013  0.93695915  1
  Zn  Zn127  1  0.74048900  0.38750546  0.37517061  1
  Zn  Zn128  1  0.68703811  0.44210909  0.93803596  1
  Zn  Zn129  1  0.68685404  0.93566086  0.43889388  1
  Zn  Zn130  1  0.68878204  0.94344980  0.93691221  1
  Zn  Zn131  1  0.31081080  0.06328042  0.06037774  1
  Zn  Zn132  1  0.30828156  0.05890394  0.56782639  1
  Zn  Zn133  1  0.31281867  0.55990254  0.06660446  1
  Zn  Zn134  1  0.31258549  0.56478599  0.56471234  1
  Zn  Zn135  1  0.81419792  0.06225734  0.06456852  1
  Zn  Zn136  1  0.81223470  0.06557813  0.56561190  1
  Zn  Zn137  1  0.81488796  0.56309510  0.05882626  1
  Zn  Zn138  1  0.81222225  0.56625763  0.55675012  1
  Zn  Zn139  1  0.44180000  0.43638922  0.18820431  1
  Zn  Zn140  1  0.43672400  0.43940199  0.68817036  1
  Zn  Zn141  1  0.43676411  0.93857674  0.18569226  1
  Zn  Zn142  1  0.43743710  0.93901959  0.69503408  1
  Zn  Zn143  1  0.94034426  0.43946453  0.18428716  1
  Zn  Zn144  1  0.95060724  0.42572497  0.64865361  1
  Zn  Zn145  1  0.93876065  0.93853738  0.17980124  1
  Zn  Zn146  1  0.94215656  0.93883415  0.68688960  1
  Zn  Zn147  1  0.06125548  0.06699503  0.30551975  1
  Zn  Zn148  1  0.06949077  0.06615370  0.81057595  1
  Zn  Zn149  1  0.05532539  0.56318376  0.31765350  1
  Zn  Zn150  1  0.08980080  0.60373079  0.79123068  1
  Zn  Zn151  1  0.56561876  0.05864176  0.31408496  1
  Zn  Zn152  1  0.56616402  0.06160392  0.81280472  1
  Zn  Zn153  1  0.56176946  0.55800274  0.31318206  1
  Zn  Zn154  1  0.56629477  0.55950394  0.81180095  1
  Zn  Zn155  1  0.43294645  0.18605805  0.44158971  1
  Zn  Zn156  1  0.43273043  0.19024333  0.93839231  1
  Zn  Zn157  1  0.43370921  0.68627802  0.43639929  1
  Zn  Zn158  1  0.43881833  0.69333250  0.93719681  1
  Zn  Zn159  1  0.92859166  0.18558833  0.43467752  1
  Zn  Zn160  1  0.93817865  0.19309125  0.93786971  1
  Zn  Zn161  1  0.93896869  0.68563677  0.43860851  1
  Zn  Zn162  1  0.93170259  0.68467906  0.93311473  1
  Zn  Zn163  1  0.06324864  0.31529036  0.06491349  1
  Zn  Zn164  1  0.06316650  0.31835329  0.56446653  1
  Zn  Zn165  1  0.06071658  0.81580821  0.06075101  1
  Zn  Zn166  1  0.06208360  0.81512913  0.55576674  1
  Zn  Zn167  1  0.56153127  0.31006077  0.06342291  1
  Zn  Zn168  1  0.56412183  0.31306850  0.56264372  1
  Zn  Zn169  1  0.56162954  0.81350028  0.06359316  1
  Zn  Zn170  1  0.56315671  0.81436158  0.56736739  1
  O  O171  1  0.11465556  0.11462560  0.13240817  1
  O  O172  1  0.11366945  0.12539983  0.62502679  1
  O  O173  1  0.12162087  0.61746837  0.11835526  1
  O  O174  1  0.14485550  0.61363574  0.61821782  1
  O  O175  1  0.61352812  0.12192460  0.11731344  1
  O  O176  1  0.61297972  0.11771972  0.62921094  1
  O  O177  1  0.61198232  0.61991143  0.12229404  1
  O  O178  1  0.61831775  0.61844044  0.62387304  1
  O  O179  1  0.37956269  0.37972615  0.38098836  1
  O  O180  1  0.38083572  0.36802202  0.88863658  1
  O  O181  1  0.38357061  0.88432456  0.37869031  1
  O  O182  1  0.37601000  0.87281447  0.88872678  1
  O  O183  1  0.86638890  0.38313812  0.37910008  1
  O  O184  1  0.87457100  0.38056443  0.89131396  1
  O  O185  1  0.88507626  0.87454579  0.38172002  1
  O  O186  1  0.87852956  0.87536221  0.88503332  1
  O  O187  1  0.25600209  0.00486748  0.37458482  1
  O  O188  1  0.24155382  0.01236328  0.86596509  1
  O  O189  1  0.26464316  0.50017623  0.37932557  1
  O  O190  1  0.25194704  0.50542104  0.87178838  1
  O  O191  1  0.74704902  0.00215786  0.36724693  1
  O  O192  1  0.74787900  0.01083389  0.86247258  1
  O  O193  1  0.76953376  0.50434108  0.37378158  1
  O  O194  1  0.75154796  0.50475480  0.86263496  1
  O  O195  1  0.23948923  0.48981696  0.12232325  1
  O  O196  1  0.25050751  0.49237601  0.63450574  1
  O  O197  1  0.24039829  0.99663923  0.12554529  1
  O  O198  1  0.23878015  1.00021811  0.63895220  1
  O  O199  1  0.73239577  0.50880956  0.11861948  1
  O  O200  1  0.74420095  0.49183767  0.62472836  1
  O  O201  1  0.74741984  0.99235725  0.13264544  1
  O  O202  1  0.74370636  0.99767733  0.63657940  1
  O  O203  1  0.00876938  0.36107054  0.23986005  1
  O  O204  1  -0.00339886  0.36231828  0.74087870  1
  O  O205  1  0.00442940  0.87095587  0.25208155  1
  O  O206  1  -0.00583701  0.87484422  0.76855877  1
  O  O207  1  0.50104918  0.36419981  0.25904428  1
  O  O208  1  0.50566729  0.37215034  0.75561409  1
  O  O209  1  0.50509992  0.86836197  0.25478969  1
  O  O210  1  0.51643493  0.87549154  0.75166662  1
  O  O211  1  0.49242602  0.12692126  0.24745567  1
  O  O212  1  0.49728813  0.12907811  0.74625615  1
  O  O213  1  0.49154617  0.63217957  0.24282381  1
  O  O214  1  0.49529856  0.62221007  0.74571672  1
  O  O215  1  0.99713636  0.13802483  0.24070368  1
  O  O216  1  0.99430678  0.13300510  0.74541237  1
  O  O217  1  0.99074504  0.63508461  0.24288667  1
  O  O218  1  0.98054962  0.61955943  0.75936659  1
  O  O219  1  0.36429822  0.25810203  0.00831766  1
  O  O220  1  0.36509881  0.25526246  0.50974046  1
  O  O221  1  0.36721625  0.75827505  0.00866998  1
  O  O222  1  0.36873812  0.75715418  0.50142175  1
  O  O223  1  0.87352593  0.26610564  -0.00093071  1
  O  O224  1  0.86156864  0.24260271  0.51305710  1
  O  O225  1  0.86616641  0.75697078  0.00345263  1
  O  O226  1  0.86553681  0.75701552  0.50383980  1
  O  O227  1  0.13686537  0.25856801  0.50038874  1
  O  O228  1  0.13574913  0.25622516  0.99565020  1
  O  O229  1  0.13862979  0.75109918  0.49836863  1
  O  O230  1  0.13291917  0.74006673  1.00961611  1
  O  O231  1  0.63694886  0.24252751  0.50980822  1
  O  O232  1  0.62681628  0.24254135  0.99445180  1
  O  O233  1  0.64205295  0.75473659  0.50770473  1
  O  O234  1  0.63884328  0.74983418  1.00490586  1
  O  O235  1  0.49148189  0.24204766  0.13129956  1
  O  O236  1  0.49608746  0.24348879  0.63131697  1
  O  O237  1  0.49519499  0.74267029  0.13216216  1
  O  O238  1  0.50080105  0.73774831  0.63109345  1
  O  O239  1  1.00860857  0.23647473  0.12966517  1
  O  O240  1  0.99327285  0.23910047  0.63087474  1
  O  O241  1  0.99421300  0.74710176  0.13110981  1
  O  O242  1  0.98788488  0.75644199  0.62286378  1
  O  O243  1  -0.00088314  0.24530160  0.36301437  1
  O  O244  1  0.00926672  0.24563429  0.86564987  1
  O  O245  1  -0.00034170  0.75733117  0.36027927  1
  O  O246  1  -0.00352113  0.76326217  0.87862438  1
  O  O247  1  0.48986552  0.25731705  0.36943634  1
  O  O248  1  0.50676800  0.25540617  0.87202458  1
  O  O249  1  0.49190293  0.75768700  0.36301491  1
  O  O250  1  0.50533725  0.75553887  0.87531924  1
  O  O251  1  0.25676746  0.13397966  0.49469799  1
  O  O252  1  0.25137139  0.13354974  0.99033722  1
  O  O253  1  0.25527228  0.63853379  0.49539127  1
  O  O254  1  0.24691060  0.63088261  1.00027483  1
  O  O255  1  0.74615916  0.13060180  0.49689666  1
  O  O256  1  0.74656546  0.12385862  0.99166906  1
  O  O257  1  0.74645735  0.64125374  0.49732539  1
  O  O258  1  0.75068405  0.63433952  0.98982384  1
  O  O259  1  0.25570206  0.36917265  0.01066874  1
  O  O260  1  0.25599093  0.36805728  0.51155961  1
  O  O261  1  0.25403702  0.87021454  0.00228873  1
  O  O262  1  0.26158024  0.86170850  0.49255319  1
  O  O263  1  0.75989729  0.37469944  -0.00121143  1
  O  O264  1  0.74402382  0.35814261  0.50330482  1
  O  O265  1  0.75584580  0.87175658  0.00037558  1
  O  O266  1  0.75688030  0.86784783  0.50392469  1
  O  O267  1  0.11558011  0.49238378  0.24019662  1
  O  O268  1  0.14356470  0.50581906  0.74593500  1
  O  O269  1  0.12427777  0.99017546  0.24034413  1
  O  O270  1  0.13972598  1.00583159  0.74158923  1
  O  O271  1  0.61208640  0.49717216  0.22944987  1
  O  O272  1  0.63529512  0.49570078  0.73844190  1
  O  O273  1  0.62925274  0.98481307  0.24750390  1
  O  O274  1  0.63356542  0.99397552  0.74260497  1
  O  O275  1  0.37197491  0.00414055  0.25895591  1
  O  O276  1  0.35510628  -0.00077088  0.74665739  1
  O  O277  1  0.38134830  0.50816856  0.25693790  1
  O  O278  1  0.36790513  0.51017780  0.74975362  1
  O  O279  1  0.86282315  -0.00384260  0.24553100  1
  O  O280  1  0.86881680  0.01277716  0.74472942  1
  O  O281  1  0.87957359  0.51494218  0.24969768  1
  O  O282  1  0.86294569  0.50343789  0.74296466  1
  O  O283  1  0.13248016  0.37601053  0.36368580  1
  O  O284  1  0.13263457  0.36148964  0.87276019  1
  O  O285  1  0.11640798  0.87329210  0.36483176  1
  O  O286  1  0.11228468  0.87137492  0.88107815  1
  O  O287  1  0.61249397  0.37819978  0.37763604  1
  O  O288  1  0.61938492  0.37098367  0.87084532  1
  O  O289  1  0.61055323  0.87799399  0.36943386  1
  O  O290  1  0.62957664  0.88164351  0.85931103  1
  O  O291  1  0.37845849  0.12918092  0.13141085  1
  O  O292  1  0.38536482  0.12830335  0.62855226  1
  O  O293  1  0.38434359  0.62873572  0.13002186  1
  O  O294  1  0.38476537  0.62490950  0.63628539  1
  O  O295  1  0.89061289  0.12009371  0.13057201  1
  O  O296  1  0.88409561  0.12965971  0.63310603  1
  O  O297  1  0.87925340  0.63138582  0.13053803  1
  O  O298  1  0.86635234  0.63516415  0.63219928  1
  O  O299  1  0.25152073  0.25386070  0.11936373  1
  O  O300  1  0.25284698  0.25551186  0.62373366  1
  O  O301  1  0.25415532  0.75710657  0.11572292  1
  O  O302  1  0.25785232  0.75045937  0.61043149  1
  O  O303  1  0.75461295  0.24012174  0.12897173  1
  O  O304  1  0.75489555  0.25334930  0.62039679  1
  O  O305  1  0.75544926  0.75667085  0.11568004  1
  O  O306  1  0.76143563  0.75868831  0.61634728  1
  O  O307  1  0.25004197  0.24019466  0.38730631  1
  O  O308  1  0.24460296  0.24286341  0.88376495  1
  O  O309  1  0.25008858  0.74606513  0.38534652  1
  O  O310  1  0.25395919  0.73946793  0.89065965  1
  O  O311  1  0.74626542  0.24301734  0.39192045  1
  O  O312  1  0.74314422  0.24298286  0.87518010  1
  O  O313  1  0.75132587  0.75294219  0.38763251  1
  O  O314  1  0.75599021  0.74193023  0.88091303  1
  O  O315  1  -0.00534042  0.12100832  0.01062799  1
  O  O316  1  -0.00405239  0.12896372  0.51366086  1
  O  O317  1  0.00584903  0.61987526  0.00343868  1
  O  O318  1  0.00213523  0.61752706  0.49843648  1
  O  O319  1  0.50160876  0.11996479  0.00353634  1
  O  O320  1  0.50028159  0.12154917  0.51114993  1
  O  O321  1  0.49797779  0.61771254  0.00724896  1
  O  O322  1  0.49830086  0.62076031  0.50912895  1
  O  O323  1  0.49382607  0.37833498  0.49628412  1
  O  O324  1  0.49054273  0.38043972  0.99751377  1
  O  O325  1  0.49375789  0.87371303  0.49223528  1
  O  O326  1  0.49153769  0.88438003  1.00316385  1
  O  O327  1  0.99043303  0.39671317  0.54251741  1
  O  O328  1  0.99472015  0.38657837  1.00484627  1
  O  O329  1  0.99178007  0.87254692  0.48501811  1
  O  O330  1  0.99318078  0.88295084  0.99011258  1
  O  O331  1  0.48949592  0.48972699  0.38110502  1
  O  O332  1  0.50502496  0.49434540  0.88809374  1
  O  O333  1  0.49121720  0.99224874  0.37831905  1
  O  O334  1  0.50341965  0.99742504  0.88731403  1
  O  O335  1  0.98040989  0.49812400  0.37258991  1
  O  O336  1  1.00499541  0.50286757  0.89134444  1
  O  O337  1  1.00191449  0.99164631  0.36715050  1
  O  O338  1  1.00786364  0.99750628  0.88552735  1
  O  O339  1  0.00620235  0.01013420  0.11668398  1
  O  O340  1  0.01433758  0.01311254  0.63236025  1
  O  O341  1  0.00793116  0.50873743  0.11717804  1
  O  O342  1  0.02702099  0.51334479  0.64573766  1
  O  O343  1  0.49951527  0.00825933  0.11610564  1
  O  O344  1  0.50716647  0.00730404  0.62799465  1
  O  O345  1  0.50175855  0.50671348  0.11385935  1
  O  O346  1  0.50651947  0.50890908  0.62273456  1
  O  O347  1  0.24307224  0.36624634  0.23933436  1
  O  O348  1  0.25566510  0.38343640  0.74679742  1
  O  O349  1  0.24048357  0.87520880  0.24485395  1
  O  O350  1  0.24789937  0.88358423  0.76018416  1
  O  O351  1  0.73684151  0.36836576  0.26324573  1
  O  O352  1  0.74450005  0.38097207  0.74333004  1
  O  O353  1  0.74289258  0.87601500  0.24682077  1
  O  O354  1  0.74607148  0.88301445  0.74684569  1
  O  O355  1  0.25656403  0.12512980  0.26080983  1
  O  O356  1  0.25382923  0.12560088  0.76317723  1
  O  O357  1  0.26407462  0.63145120  0.24651102  1
  O  O358  1  0.26105320  0.61910668  0.76323905  1
  O  O359  1  0.74809515  0.11041721  0.25839242  1
  O  O360  1  0.75736314  0.11983277  0.75588896  1
  O  O361  1  0.76360019  0.63309269  0.24663260  1
  O  O362  1  0.75520189  0.61773842  0.75261381  1
  O  O363  1  0.36878108  0.11234648  0.37402744  1
  O  O364  1  0.35720991  0.13052484  0.87571616  1
  O  O365  1  0.37599458  0.61480650  0.36441799  1
  O  O366  1  0.36714840  0.62457710  0.87378415  1
  O  O367  1  0.85574548  0.12823963  0.36912783  1
  O  O368  1  0.86488679  0.13186900  0.86832106  1
  O  O369  1  0.87189809  0.63114654  0.35722591  1
  O  O370  1  0.86296189  0.61768533  0.86607333  1
  O  O371  1  0.13248541  0.38164369  0.13367815  1
  O  O372  1  0.13980083  0.38497140  0.63634326  1
  O  O373  1  0.12813546  0.88444247  0.12988125  1
  O  O374  1  0.11429277  0.88519599  0.63156210  1
  O  O375  1  0.62065500  0.38851855  0.12138737  1
  O  O376  1  0.63358833  0.38137645  0.62964229  1
  O  O377  1  0.63213020  0.87625817  0.13256680  1
  O  O378  1  0.63226419  0.88333789  0.63515768  1
  O  O379  1  0.11557087  0.25819649  0.25600990  1
  O  O380  1  0.11499464  0.25487051  0.75746233  1
  O  O381  1  0.11552943  0.76219774  0.24506740  1
  O  O382  1  0.11365467  0.71239814  0.75880491  1
  O  O383  1  0.60621500  0.24531649  0.24772536  1
  O  O384  1  0.61919638  0.25596694  0.75588555  1
  O  O385  1  0.61512838  0.76151882  0.24364280  1
  O  O386  1  0.63146601  0.76513266  0.74278099  1
  O  O387  1  0.38109846  0.24230404  0.24590592  1
  O  O388  1  0.38306624  0.24912448  0.74446690  1
  O  O389  1  0.38253281  0.74523825  0.24416854  1
  O  O390  1  0.37759530  0.73699307  0.75044022  1
  O  O391  1  0.88994953  0.25391005  0.24546394  1
  O  O392  1  0.87913200  0.24021578  0.74284966  1
  O  O393  1  0.88149986  0.74762506  0.24023381  1
  O  O394  1  0.87772508  0.74164000  0.73853536  1
  O  O395  1  0.38030135  0.49421926  0.49534133  1
  O  O396  1  0.38165707  0.48809465  1.00618611  1
  O  O397  1  0.37394039  0.99152693  0.49461284  1
  O  O398  1  0.38233226  0.99164143  1.00486158  1
  O  O399  1  0.87404684  0.49970575  0.49081897  1
  O  O400  1  0.88790511  0.49546493  0.99828373  1
  O  O401  1  0.86983319  0.98639882  0.50716181  1
  O  O402  1  0.88564756  0.99155503  1.00392567  1
  O  O403  1  0.11430907  -0.00231581  0.00993892  1
  O  O404  1  0.13501984  -0.00565058  0.52094743  1
  O  O405  1  0.11532900  0.50257620  0.01072411  1
  O  O406  1  0.12893311  0.49954843  0.51638846  1
  O  O407  1  0.61668099  0.00795248  0.00188525  1
  O  O408  1  0.62380245  -0.00098797  0.51627037  1
  O  O409  1  0.61481911  0.50370412  0.00877111  1
  O  O410  1  0.61556015  0.50248015  0.51335251  1
  O  O411  1  0.36778254  0.37029661  0.12134621  1
  O  O412  1  0.36678907  0.37009714  0.62246050  1
  O  O413  1  0.36673555  0.87144358  0.11899309  1
  O  O414  1  0.38499324  0.87402534  0.61348882  1
  O  O415  1  0.87328179  0.38239819  0.11095711  1
  O  O416  1  0.85613935  0.36158393  0.63398608  1
  O  O417  1  0.86998961  0.86931532  0.11311246  1
  O  O418  1  0.87223173  0.87019667  0.61917961  1
  O  O419  1  0.13669540  0.12508854  0.37219113  1
  O  O420  1  0.13882547  0.13951007  0.87272185  1
  O  O421  1  0.12849911  0.62858409  0.37450806  1
  O  O422  1  0.14143153  0.61516283  0.89530809  1
  O  O423  1  0.63775997  0.11917830  0.37764980  1
  O  O424  1  0.63557038  0.13013876  0.87976991  1
  O  O425  1  0.62287363  0.62564809  0.37446065  1
  O  O426  1  0.63990445  0.62009242  0.87517397  1
