# generated using pymatgen
data_V85Zn86O256
_symmetry_space_group_name_H-M   'P 1'
_cell_length_a   16.96881546
_cell_length_b   16.95151325
_cell_length_c   16.96339862
_cell_angle_alpha   89.94871715
_cell_angle_beta   90.05807818
_cell_angle_gamma   90.01660452
_symmetry_Int_Tables_number   1
_chemical_formula_structural   V85Zn86O256
_chemical_formula_sum   'V85 Zn86 O256'
_cell_volume   4879.46775668
_cell_formula_units_Z   1
loop_
 _symmetry_equiv_pos_site_id
 _symmetry_equiv_pos_as_xyz
  1  'x, y, z'
loop_
 _atom_site_type_symbol
 _atom_site_label
 _atom_site_symmetry_multiplicity
 _atom_site_fract_x
 _atom_site_fract_y
 _atom_site_fract_z
 _atom_site_occupancy
  V  V0  1  0.24126732  0.24517048  0.50780229  1
  V  V1  1  0.00113002  0.50320382  0.00284004  1
  V  V2  1  0.62731617  0.50075726  0.62191086  1
  V  V3  1  0.50001316  0.75200956  0.74776665  1
  V  V4  1  0.49729413  0.25289960  0.74425815  1
  V  V5  1  0.87783087  0.62417526  0.74830057  1
  V  V6  1  0.12389157  0.87595776  0.74497362  1
  V  V7  1  -0.00078359  0.87849650  0.87908244  1
  V  V8  1  0.74983460  0.12452801  0.87633098  1
  V  V9  1  0.75219033  0.37416221  0.62469946  1
  V  V10  1  0.50188141  0.11481188  0.63196957  1
  V  V11  1  -0.00641177  0.75429028  0.24622096  1
  V  V12  1  0.87589682  0.49924157  0.87691144  1
  V  V13  1  0.00474611  0.74796990  0.75459915  1
  V  V14  1  0.00175535  0.37465159  0.37631363  1
  V  V15  1  0.61784598  0.62060935  -0.00302388  1
  V  V16  1  0.74702580  -0.00430970  0.23118759  1
  V  V17  1  0.50061180  -0.00667858  0.00416481  1
  V  V18  1  0.62376380  0.11824877  0.00492866  1
  V  V19  1  0.37264538  0.62205956  0.74897270  1
  V  V20  1  0.37198456  0.75467571  0.61921709  1
  V  V21  1  0.75118594  0.50100370  0.74922052  1
  V  V22  1  0.12315284  0.62057549  0.50121104  1
  V  V23  1  0.25023779  0.62978007  0.88457428  1
  V  V24  1  0.87636648  0.12534046  0.74480330  1
  V  V25  1  0.25068571  0.00169107  0.75364726  1
  V  V26  1  0.74717770  0.64298329  0.37647672  1
  V  V27  1  0.62811992  0.75453303  0.87244846  1
  V  V28  1  0.62845043  0.64430298  0.49714487  1
  V  V29  1  0.12879318  0.88925582  0.25142381  1
  V  V30  1  0.87692913  -0.00203965  0.87635576  1
  V  V31  1  0.00018840  0.01580899  0.51502872  1
  V  V32  1  0.75032580  0.75585153  0.02104802  1
  V  V33  1  0.74888484  0.25245724  0.00217668  1
  V  V34  1  0.00817574  0.61842525  0.62869189  1
  V  V35  1  0.37970043  0.24337555  0.12809811  1
  V  V36  1  0.87518494  0.37406997  0.50174689  1
  V  V37  1  0.63496436  0.37249873  0.24749931  1
  V  V38  1  0.36914283  0.74626741  0.12123920  1
  V  V39  1  0.23993914  0.75274662  0.50413730  1
  V  V40  1  0.87080011  0.37716146  0.00226221  1
  V  V41  1  0.37666409  0.50264723  0.37640425  1
  V  V42  1  0.12479438  0.50189812  0.12689392  1
  V  V43  1  0.50501278  0.50169405  0.49851807  1
  V  V44  1  0.37530066  0.62616490  0.24856032  1
  V  V45  1  0.01496562  0.37389568  0.87908410  1
  V  V46  1  -0.00375299  0.88292501  0.38286886  1
  V  V47  1  0.23978788  0.24930436  -0.00203168  1
  V  V48  1  0.50922665  0.74856314  0.25368076  1
  V  V49  1  0.74784252  0.12003031  0.37296737  1
  V  V50  1  0.25102712  0.37361836  0.12989382  1
  V  V51  1  0.50244796  0.11966430  0.13337988  1
  V  V52  1  0.38446883  0.37784459  0.00017812  1
  V  V53  1  0.48135165  -0.00189899  0.49212975  1
  V  V54  1  0.37864811  0.36865478  0.50325427  1
  V  V55  1  0.62613156  0.49325344  0.11982552  1
  V  V56  1  0.87352506  0.87336749  0.01081731  1
  V  V57  1  0.25623347  0.38518177  0.62496874  1
  V  V58  1  0.00896221  0.24538924  0.75470026  1
  V  V59  1  0.87738572  0.12231072  0.24941042  1
  V  V60  1  0.86969816  0.50055659  0.37430504  1
  V  V61  1  0.62300742  0.11450629  0.50421422  1
  V  V62  1  0.23703847  0.12896785  0.88076159  1
  V  V63  1  0.88113212  0.24778882  0.62704657  1
  V  V64  1  0.00209955  0.12153152  0.10926441  1
  V  V65  1  0.37374892  0.13287786  0.75426686  1
  V  V66  1  0.62273443  0.24542678  0.37283085  1
  V  V67  1  0.00051915  0.25044430  0.25021770  1
  V  V68  1  0.24556839  0.62269309  0.37377161  1
  V  V69  1  0.49998741  0.62639107  0.62004431  1
  V  V70  1  0.12460824  0.38075057  0.73624049  1
  V  V71  1  0.87066659  0.25405943  0.12513227  1
  V  V72  1  0.74260795  0.00265346  0.74301089  1
  V  V73  1  0.12526308  0.75131868  0.37081223  1
  V  V74  1  0.49882133  0.37322575  0.36744048  1
  V  V75  1  0.62574703  0.37517094  0.74969271  1
  V  V76  1  0.62310247  0.25098269  0.87537013  1
  V  V77  1  0.00502072  0.49542490  0.50471617  1
  V  V78  1  0.36446277  0.86975911  -0.00271012  1
  V  V79  1  -0.00773796  0.63115615  0.12495613  1
  V  V80  1  0.75341760  0.63465090  0.87434995  1
  V  V81  1  0.24784540  0.87883118  0.62002346  1
  V  V82  1  0.62325913  0.88232347  0.73952508  1
  V  V83  1  0.12827936  0.00341816  0.10840420  1
  V  V84  1  0.12545635  0.23735557  0.37897046  1
  Zn  Zn85  1  0.12554268  0.37433743  0.25082822  1
  Zn  Zn86  1  0.25079347  0.49769677  0.25126750  1
  Zn  Zn87  1  0.45976353  0.19593202  0.28758436  1
  Zn  Zn88  1  0.86977784  0.62895128  0.24599817  1
  Zn  Zn89  1  0.38189602  0.50479686  0.88160188  1
  Zn  Zn90  1  0.74674592  0.85297906  0.59495323  1
  Zn  Zn91  1  0.37445705  0.00159970  0.87981406  1
  Zn  Zn92  1  0.50370675  0.38312015  0.87815815  1
  Zn  Zn93  1  0.49736738  0.87536039  0.87589659  1
  Zn  Zn94  1  0.49871329  0.61774499  0.12096550  1
  Zn  Zn95  1  0.75162550  0.50034679  0.24596829  1
  Zn  Zn96  1  0.30773416  0.06646013  0.30731098  1
  Zn  Zn97  1  0.12963178  0.63813135  0.00810115  1
  Zn  Zn98  1  0.49466423  0.87656965  0.37174939  1
  Zn  Zn99  1  0.75033705  0.24193680  0.50374572  1
  Zn  Zn100  1  0.24516420  0.50359432  0.75201691  1
  Zn  Zn101  1  0.63102822  0.87310974  0.23034641  1
  Zn  Zn102  1  0.13404843  0.75836029  0.88500989  1
  Zn  Zn103  1  0.86798070  0.75010881  0.60937052  1
  Zn  Zn104  1  0.25131606  0.87729021  0.12687636  1
  Zn  Zn105  1  0.87353696  -0.00289245  0.37707839  1
  Zn  Zn106  1  0.12595556  0.02119110  0.62528451  1
  Zn  Zn107  1  0.18201844  0.18647034  0.18136467  1
  Zn  Zn108  1  0.19332358  0.19846414  0.69489601  1
  Zn  Zn109  1  0.18604243  0.68973950  0.18933523  1
  Zn  Zn110  1  0.18586130  0.68794553  0.69233396  1
  Zn  Zn111  1  0.68658439  0.18582167  0.18887155  1
  Zn  Zn112  1  0.68819561  0.18630605  0.68599028  1
  Zn  Zn113  1  0.68530251  0.68431387  0.18467236  1
  Zn  Zn114  1  0.68815302  0.69079465  0.68511979  1
  Zn  Zn115  1  0.30141728  0.23624936  0.31128387  1
  Zn  Zn116  1  0.31095981  0.31431488  0.81672741  1
  Zn  Zn117  1  0.31536835  0.90450049  0.32251550  1
  Zn  Zn118  1  0.31386366  0.81139462  0.81024045  1
  Zn  Zn119  1  0.81223083  0.30796319  0.31607939  1
  Zn  Zn120  1  0.81504645  0.31292086  0.81510777  1
  Zn  Zn121  1  0.81489002  0.81670346  0.31003928  1
  Zn  Zn122  1  0.82386268  0.82582670  0.77853232  1
  Zn  Zn123  1  0.18843131  0.43244044  0.43721181  1
  Zn  Zn124  1  0.19549042  0.44472747  0.94193648  1
  Zn  Zn125  1  0.18111424  0.95172173  0.44277552  1
  Zn  Zn126  1  0.18717579  0.93806642  0.93520072  1
  Zn  Zn127  1  0.68829314  0.43467964  0.43683169  1
  Zn  Zn128  1  0.68884423  0.43944611  0.93555474  1
  Zn  Zn129  1  0.67669855  0.92376747  0.42389320  1
  Zn  Zn130  1  0.68889742  0.93540428  0.93971681  1
  Zn  Zn131  1  0.31490873  0.06247829  0.06543154  1
  Zn  Zn132  1  0.31270513  0.06921983  0.57297818  1
  Zn  Zn133  1  0.31271466  0.55852885  0.06397177  1
  Zn  Zn134  1  0.31324197  0.56254340  0.56131529  1
  Zn  Zn135  1  0.82007944  0.06519482  0.05635020  1
  Zn  Zn136  1  0.78968887  0.01759289  0.53574824  1
  Zn  Zn137  1  0.80656404  0.56330608  0.06303954  1
  Zn  Zn138  1  0.81414743  0.56802905  0.56012021  1
  Zn  Zn139  1  0.44131174  0.43797777  0.18674890  1
  Zn  Zn140  1  0.43939901  0.43911356  0.68836024  1
  Zn  Zn141  1  0.43538818  0.93643360  0.18478796  1
  Zn  Zn142  1  0.43307782  0.93903846  0.68800895  1
  Zn  Zn143  1  0.93583080  0.43943773  0.18902722  1
  Zn  Zn144  1  0.94128723  0.43521079  0.68829484  1
  Zn  Zn145  1  0.94178333  0.94192321  0.18874072  1
  Zn  Zn146  1  0.92991145  0.93450027  0.68433972  1
  Zn  Zn147  1  0.06489484  0.06416103  0.30943172  1
  Zn  Zn148  1  0.06285919  0.06156056  0.81051755  1
  Zn  Zn149  1  0.05852793  0.56220079  0.30935093  1
  Zn  Zn150  1  0.06710789  0.56012619  0.81904353  1
  Zn  Zn151  1  0.57339063  0.03344180  0.31894126  1
  Zn  Zn152  1  0.56026621  0.06205453  0.82023590  1
  Zn  Zn153  1  0.56645420  0.56352208  0.31020364  1
  Zn  Zn154  1  0.56060509  0.56325184  0.81213271  1
  Zn  Zn155  1  0.42963786  0.18236788  0.45063065  1
  Zn  Zn156  1  0.43683631  0.18967992  0.93931088  1
  Zn  Zn157  1  0.39898227  0.73394408  0.40626686  1
  Zn  Zn158  1  0.43763674  0.69119145  0.93478443  1
  Zn  Zn159  1  0.93371110  0.18623295  0.43687291  1
  Zn  Zn160  1  0.93678491  0.19082127  0.93280313  1
  Zn  Zn161  1  0.93443387  0.68722244  0.43497930  1
  Zn  Zn162  1  0.93778446  0.69251670  0.94076932  1
  Zn  Zn163  1  0.06073477  0.31387615  0.06450668  1
  Zn  Zn164  1  0.06480207  0.19336648  0.57010902  1
  Zn  Zn165  1  0.06288088  0.81544236  0.06204756  1
  Zn  Zn166  1  0.02933120  0.79634749  0.54720209  1
  Zn  Zn167  1  0.56288563  0.30764364  0.06783204  1
  Zn  Zn168  1  0.56403415  0.30721905  0.56161126  1
  Zn  Zn169  1  0.55539384  0.81099646  0.07055772  1
  Zn  Zn170  1  0.55697703  0.81959864  0.56186442  1
  O  O171  1  0.11222719  0.11596823  0.12366198  1
  O  O172  1  0.11964052  0.13214733  0.64505778  1
  O  O173  1  0.11606227  0.61748617  0.12721445  1
  O  O174  1  0.11449669  0.62525858  0.62286971  1
  O  O175  1  0.61889573  0.13457129  0.11014008  1
  O  O176  1  0.61577138  0.13053826  0.61631490  1
  O  O177  1  0.62406499  0.61687597  0.11165033  1
  O  O178  1  0.62058025  0.61926528  0.61580365  1
  O  O179  1  0.38791888  0.38627020  0.38670993  1
  O  O180  1  0.37582220  0.37396691  0.89103291  1
  O  O181  1  0.38646477  0.84303818  0.37903061  1
  O  O182  1  0.37671254  0.87471885  0.88229438  1
  O  O183  1  0.88170868  0.37947990  0.38020329  1
  O  O184  1  0.88369292  0.38228068  0.88182087  1
  O  O185  1  0.89358996  0.87822006  0.36972551  1
  O  O186  1  0.88181816  0.88271680  0.86990303  1
  O  O187  1  0.25354315  -0.01233342  0.37120252  1
  O  O188  1  0.25186164  0.00960611  0.86964653  1
  O  O189  1  0.25649437  0.50434348  0.37412539  1
  O  O190  1  0.25948937  0.51243682  0.87210509  1
  O  O191  1  0.75248836  0.01360704  0.36111965  1
  O  O192  1  0.75452620  0.00960070  0.87035866  1
  O  O193  1  0.76301376  0.49913711  0.37637807  1
  O  O194  1  0.75530573  0.51189359  0.86826476  1
  O  O195  1  0.24142491  0.49219282  0.12667586  1
  O  O196  1  0.25132810  0.49031760  0.62817899  1
  O  O197  1  0.23231699  1.00161764  0.11871762  1
  O  O198  1  0.24702600  0.99484481  0.63412154  1
  O  O199  1  0.73520543  0.50380670  0.12882500  1
  O  O200  1  0.74803982  0.49611464  0.62957003  1
  O  O201  1  0.76496101  1.00432509  0.13393137  1
  O  O202  1  0.75016302  1.01020934  0.64395935  1
  O  O203  1  -0.00313064  0.36794967  0.25914528  1
  O  O204  1  0.01061953  0.37118847  0.75734689  1
  O  O205  1  0.00898949  0.87223072  0.25611642  1
  O  O206  1  0.00579081  0.86614097  0.75573763  1
  O  O207  1  0.51002894  0.37961003  0.26413150  1
  O  O208  1  0.50760420  0.36761831  0.74909631  1
  O  O209  1  0.50067360  0.85426674  0.23833106  1
  O  O210  1  0.50596915  0.87117878  0.75084495  1
  O  O211  1  0.51613391  0.11133913  0.23599285  1
  O  O212  1  0.49553341  0.13089598  0.74908918  1
  O  O213  1  0.49343688  0.62844730  0.24795227  1
  O  O214  1  0.49474195  0.63346399  0.73988899  1
  O  O215  1  0.99229381  0.13196661  0.24373033  1
  O  O216  1  0.98993304  0.13743492  0.76303728  1
  O  O217  1  0.99715775  0.63539378  0.24307008  1
  O  O218  1  0.99813919  0.62463279  0.74810456  1
  O  O219  1  0.36931252  0.25923874  0.00977162  1
  O  O220  1  0.36441024  0.26526300  0.50028214  1
  O  O221  1  0.37922827  0.75769244  0.00698313  1
  O  O222  1  0.35704877  0.74064756  0.51529039  1
  O  O223  1  0.87024928  0.25740570  0.00597253  1
  O  O224  1  0.87391113  0.25422892  0.51123984  1
  O  O225  1  0.85798485  0.75872337  -0.00708772  1
  O  O226  1  0.92275641  0.76308366  0.51259540  1
  O  O227  1  0.13316284  0.25223769  0.49675148  1
  O  O228  1  0.14087177  0.25444280  1.00591522  1
  O  O229  1  0.12167798  0.74167073  0.49345784  1
  O  O230  1  0.12466523  0.75082469  0.99699716  1
  O  O231  1  0.62704325  0.23969804  0.48851298  1
  O  O232  1  0.63128183  0.24621176  0.99345079  1
  O  O233  1  0.61829190  0.74323719  0.50100562  1
  O  O234  1  0.63923917  0.74169813  0.98907868  1
  O  O235  1  0.49236699  0.23483947  0.12128969  1
  O  O236  1  0.50558536  0.24153956  0.63970248  1
  O  O237  1  0.48619228  0.73767647  0.12986357  1
  O  O238  1  0.48932034  0.74840089  0.62638449  1
  O  O239  1  0.99312614  0.24150927  0.12886313  1
  O  O240  1  0.98778012  0.25352712  0.63848098  1
  O  O241  1  1.00462203  0.74242772  0.13389170  1
  O  O242  1  1.00524616  0.73828980  0.64619914  1
  O  O243  1  0.00386432  0.25791829  0.37275798  1
  O  O244  1  -0.00521607  0.26313217  0.86652747  1
  O  O245  1  0.01002356  0.76163849  0.36851159  1
  O  O246  1  0.00164052  0.75600803  0.86607212  1
  O  O247  1  0.50753630  0.25690210  0.37796187  1
  O  O248  1  0.50964393  0.25203753  0.86636093  1
  O  O249  1  0.50411655  0.74327373  0.35584382  1
  O  O250  1  0.51107464  0.74981665  0.86497985  1
  O  O251  1  0.25672649  0.14687949  0.51003962  1
  O  O252  1  0.25669086  0.13982017  0.99464385  1
  O  O253  1  0.23951354  0.62790820  0.49586658  1
  O  O254  1  0.25265173  0.62179818  0.98760334  1
  O  O255  1  0.74054146  0.11785153  0.49103438  1
  O  O256  1  0.74370282  0.13046824  0.99513412  1
  O  O257  1  0.74172520  0.62024184  0.48626581  1
  O  O258  1  0.74687931  0.63734349  0.99072964  1
  O  O259  1  0.25800177  0.36622300  0.00779916  1
  O  O260  1  0.25935807  0.37599529  0.50932747  1
  O  O261  1  0.26120567  0.87874997  0.00144921  1
  O  O262  1  0.23423039  0.87091251  0.51619250  1
  O  O263  1  0.76405401  0.37018691  -0.00723362  1
  O  O264  1  0.75748617  0.37105599  0.50724597  1
  O  O265  1  0.75730374  0.86138686  -0.00386406  1
  O  O266  1  0.75112559  0.91404962  0.50199850  1
  O  O267  1  0.12457180  0.49608309  0.23928209  1
  O  O268  1  0.12589463  0.48461626  0.75534908  1
  O  O269  1  0.12182058  0.99179208  0.24115544  1
  O  O270  1  0.13551789  0.99424756  0.74874444  1
  O  O271  1  0.62965950  0.48924289  0.24446202  1
  O  O272  1  0.63214263  0.49638908  0.74141766  1
  O  O273  1  0.64592985  1.00933254  0.23086343  1
  O  O274  1  0.62817242  0.99371882  0.75654351  1
  O  O275  1  0.36042227  -0.01734713  0.24964868  1
  O  O276  1  0.36254731  0.00714152  0.75373127  1
  O  O277  1  0.37657267  0.50886602  0.25674090  1
  O  O278  1  0.37480343  0.51529232  0.74663423  1
  O  O279  1  0.87271043  0.01216928  0.25176118  1
  O  O280  1  0.86729218  0.00950700  0.75910561  1
  O  O281  1  0.87217525  0.50365923  0.25984131  1
  O  O282  1  0.87411711  0.50770396  0.75564843  1
  O  O283  1  0.10998225  0.37332367  0.37405283  1
  O  O284  1  0.11649345  0.38232208  0.87779812  1
  O  O285  1  0.11699500  0.87147705  0.36440466  1
  O  O286  1  0.11677205  0.87865314  0.86465543  1
  O  O287  1  0.61902059  0.36514948  0.37219705  1
  O  O288  1  0.62678781  0.36828715  0.86766330  1
  O  O289  1  0.60297611  0.90954294  0.34400190  1
  O  O290  1  0.62234677  0.86249129  0.87257899  1
  O  O291  1  0.38722820  0.13204403  0.12231526  1
  O  O292  1  0.38469385  0.12631338  0.64530323  1
  O  O293  1  0.37628768  0.62455457  0.13091724  1
  O  O294  1  0.37991465  0.63171509  0.62981493  1
  O  O295  1  0.88624230  0.13202180  0.12879932  1
  O  O296  1  0.87079885  0.13422961  0.64266231  1
  O  O297  1  0.88873346  0.61695570  0.12614410  1
  O  O298  1  0.88827623  0.62361885  0.63386713  1
  O  O299  1  0.25706464  0.25504799  0.11423350  1
  O  O300  1  0.24480201  0.26786120  0.61442720  1
  O  O301  1  0.26499159  0.74777881  0.12983225  1
  O  O302  1  0.25202345  0.75829750  0.62480879  1
  O  O303  1  0.76419558  0.24443796  0.12020687  1
  O  O304  1  0.76230208  0.25549272  0.62662449  1
  O  O305  1  0.76208012  0.73689507  0.11692510  1
  O  O306  1  0.75440003  0.74100559  0.61363430  1
  O  O307  1  0.23400918  0.26926419  0.39634729  1
  O  O308  1  0.25240721  0.24547418  0.89008106  1
  O  O309  1  0.23268645  0.74374465  0.38503844  1
  O  O310  1  0.25148890  0.73392964  0.86844578  1
  O  O311  1  0.74367791  0.23641542  0.37844182  1
  O  O312  1  0.74447228  0.24341709  0.88000311  1
  O  O313  1  0.75560556  0.74188618  0.37644112  1
  O  O314  1  0.74510967  0.73991587  0.86470695  1
  O  O315  1  -0.00547625  0.13005820  0.01113407  1
  O  O316  1  -0.00055105  0.12124828  0.50473497  1
  O  O317  1  0.00090517  0.62051869  0.00720617  1
  O  O318  1  0.00475975  0.61418526  0.50933670  1
  O  O319  1  0.50740478  0.11699695  0.00510653  1
  O  O320  1  0.50150950  0.12104550  0.51398498  1
  O  O321  1  0.51554736  0.62888051  -0.00534229  1
  O  O322  1  0.51281896  0.61432446  0.50504436  1
  O  O323  1  0.49638544  0.37954685  0.49601086  1
  O  O324  1  0.48708662  0.36658225  1.00055999  1
  O  O325  1  0.50240424  0.89526081  0.49852951  1
  O  O326  1  0.49174901  0.87954540  0.99978258  1
  O  O327  1  0.99017925  0.38241386  0.49100975  1
  O  O328  1  0.99188272  0.37963465  0.99461734  1
  O  O329  1  1.01177005  0.89319860  0.48469474  1
  O  O330  1  0.98847202  0.86738872  0.98430910  1
  O  O331  1  0.50047742  0.49410618  0.38291843  1
  O  O332  1  0.49494571  0.49616598  0.86936322  1
  O  O333  1  0.48379923  1.01147563  0.39034950  1
  O  O334  1  0.49561429  0.99754881  0.88947555  1
  O  O335  1  0.98897981  0.49466628  0.37967397  1
  O  O336  1  0.99522202  0.49433109  0.88433321  1
  O  O337  1  1.00242055  0.99174987  0.37509372  1
  O  O338  1  0.98967474  0.99058157  0.86701454  1
  O  O339  1  0.00641322  0.01611452  0.12601300  1
  O  O340  1  -0.00280452  -0.00238287  0.61708325  1
  O  O341  1  0.00655998  0.50519718  0.12114264  1
  O  O342  1  -0.00264124  0.50503524  0.61619624  1
  O  O343  1  0.49837882  0.00501849  0.11242817  1
  O  O344  1  0.49786349  0.01144522  0.62355891  1
  O  O345  1  0.51806340  0.50093801  0.12785064  1
  O  O346  1  0.50702379  0.50532511  0.61757064  1
  O  O347  1  0.24933139  0.37358488  0.23379216  1
  O  O348  1  0.24097093  0.37495489  0.74502727  1
  O  O349  1  0.22815013  0.86456482  0.24445503  1
  O  O350  1  0.24398286  0.88422315  0.74683927  1
  O  O351  1  0.73789801  0.37407909  0.25773369  1
  O  O352  1  0.74677703  0.38148472  0.74583543  1
  O  O353  1  0.75306052  0.89242586  0.25304047  1
  O  O354  1  0.73231232  0.89147947  0.76448284  1
  O  O355  1  0.24938716  0.14967544  0.25840084  1
  O  O356  1  0.25785594  0.12339836  0.75914525  1
  O  O357  1  0.25602816  0.62206683  0.25703688  1
  O  O358  1  0.25790522  0.62336227  0.75589714  1
  O  O359  1  0.75995780  0.12095761  0.25230805  1
  O  O360  1  0.75514838  0.12361524  0.75967960  1
  O  O361  1  0.75056360  0.62418958  0.26515821  1
  O  O362  1  0.75981851  0.61985205  0.75431209  1
  O  O363  1  0.37677731  0.15383084  0.35702924  1
  O  O364  1  0.36991832  0.12478989  0.86737787  1
  O  O365  1  0.36559361  0.62457881  0.36823479  1
  O  O366  1  0.36780922  0.62751351  0.86649461  1
  O  O367  1  0.86663372  0.12752677  0.36404585  1
  O  O368  1  0.86806360  0.11937215  0.87042993  1
  O  O369  1  0.86413138  0.61840867  0.37650087  1
  O  O370  1  0.86996710  0.61862319  0.87109118  1
  O  O371  1  0.13183091  0.38274906  0.12535401  1
  O  O372  1  0.13062004  0.37836489  0.63810958  1
  O  O373  1  0.11930264  0.89069358  0.13344635  1
  O  O374  1  0.12973319  0.87492294  0.64011982  1
  O  O375  1  0.62293110  0.37776774  0.13554082  1
  O  O376  1  0.63226330  0.37833063  0.62966670  1
  O  O377  1  0.64434402  0.84620448  0.12097121  1
  O  O378  1  0.62972522  0.87050364  0.63722066  1
  O  O379  1  0.11492082  0.25503100  0.25879058  1
  O  O380  1  0.11600918  0.26657648  0.75468126  1
  O  O381  1  0.11489329  0.75741612  0.25618547  1
  O  O382  1  0.12022748  0.75799392  0.75928788  1
  O  O383  1  0.62764302  0.25404667  0.26340419  1
  O  O384  1  0.62067721  0.25493589  0.75671363  1
  O  O385  1  0.61146701  0.74212202  0.24733797  1
  O  O386  1  0.61999877  0.75694678  0.75501787  1
  O  O387  1  0.38237744  0.26557565  0.23060555  1
  O  O388  1  0.38508506  0.24594206  0.75763698  1
  O  O389  1  0.38446419  0.73251360  0.24087697  1
  O  O390  1  0.37862846  0.74077023  0.73928492  1
  O  O391  1  0.87873356  0.24317281  0.24256775  1
  O  O392  1  0.88309751  0.24622881  0.74734496  1
  O  O393  1  0.88936732  0.74930824  0.25420283  1
  O  O394  1  0.88656296  0.73063862  0.75793501  1
  O  O395  1  0.38912378  0.49743482  0.49646848  1
  O  O396  1  0.37256946  0.48177382  1.00271581  1
  O  O397  1  0.38371978  1.00597715  0.51051051  1
  O  O398  1  0.38182019  0.98917656  1.00118529  1
  O  O399  1  0.88396485  0.49575325  0.49410349  1
  O  O400  1  0.87834060  0.49365356  0.99751246  1
  O  O401  1  0.89594965  1.00813408  0.49234849  1
  O  O402  1  0.86800279  0.98943833  0.98392116  1
  O  O403  1  0.11912616  -0.00525497  0.01032176  1
  O  O404  1  0.10756796  0.00792651  0.50823089  1
  O  O405  1  0.12064049  0.50416345  0.01290943  1
  O  O406  1  0.11106277  0.50302488  0.49173763  1
  O  O407  1  0.61810570  0.00873190  -0.00544664  1
  O  O408  1  0.60835863  0.01430617  0.49496535  1
  O  O409  1  0.63257094  0.50857784  0.00515364  1
  O  O410  1  0.61694265  0.49841239  0.50449779  1
  O  O411  1  0.37049550  0.37119752  0.11628755  1
  O  O412  1  0.36948926  0.38122692  0.61627715  1
  O  O413  1  0.37152663  0.86294763  0.11489049  1
  O  O414  1  0.36151169  0.86586555  0.63246054  1
  O  O415  1  0.88231565  0.36574186  0.11524501  1
  O  O416  1  0.87140098  0.36836088  0.62246874  1
  O  O417  1  0.88660157  0.88063069  0.10903708  1
  O  O418  1  0.85227786  0.85773019  0.66244795  1
  O  O419  1  0.11950842  0.13825819  0.37635467  1
  O  O420  1  0.13791071  0.12413620  0.87177057  1
  O  O421  1  0.12472052  0.63195249  0.37782881  1
  O  O422  1  0.14149738  0.62441834  0.87730502  1
  O  O423  1  0.62928681  0.12795753  0.37848874  1
  O  O424  1  0.62985379  0.13277671  0.88507346  1
  O  O425  1  0.64025174  0.62070968  0.38311005  1
  O  O426  1  0.63430146  0.63321219  0.87645994  1
