# generated using pymatgen
data_V85Zn86O256
_symmetry_space_group_name_H-M   'P 1'
_cell_length_a   16.97128646
_cell_length_b   16.95608865
_cell_length_c   16.96007484
_cell_angle_alpha   90.00021361
_cell_angle_beta   90.04836332
_cell_angle_gamma   90.04892498
_symmetry_Int_Tables_number   1
_chemical_formula_structural   V85Zn86O256
_chemical_formula_sum   'V85 Zn86 O256'
_cell_volume   4880.54019299
_cell_formula_units_Z   1
loop_
 _symmetry_equiv_pos_site_id
 _symmetry_equiv_pos_as_xyz
  1  'x, y, z'
loop_
 _atom_site_type_symbol
 _atom_site_label
 _atom_site_symmetry_multiplicity
 _atom_site_fract_x
 _atom_site_fract_y
 _atom_site_fract_z
 _atom_site_occupancy
  V  V0  1  0.37431414  0.62380908  0.25028422  1
  V  V1  1  -0.01998720  0.63316957  0.12878972  1
  V  V2  1  0.74662184  0.63810604  0.87382299  1
  V  V3  1  0.00088267  -0.00501290  0.00281564  1
  V  V4  1  0.12438232  0.12967590  0.50048629  1
  V  V5  1  0.49877796  0.62376148  0.62362947  1
  V  V6  1  0.12202379  0.62420701  0.50077749  1
  V  V7  1  0.00251625  0.87649547  0.37844889  1
  V  V8  1  0.25356466  0.25020500  -0.00167256  1
  V  V9  1  0.25208828  -0.00222922  0.24977408  1
  V  V10  1  0.50066085  0.24826920  0.24973593  1
  V  V11  1  0.00072338  0.00223925  0.50620169  1
  V  V12  1  0.37441636  -0.00315698  0.38129650  1
  V  V13  1  0.87379829  0.62577761  0.74996231  1
  V  V14  1  0.75252061  0.24824737  -0.00046634  1
  V  V15  1  0.75041453  0.37333809  0.12514878  1
  V  V16  1  0.00173325  0.50020453  0.00673608  1
  V  V17  1  0.24626819  0.62554275  0.37492145  1
  V  V18  1  0.62676402  -0.00754351  0.12458715  1
  V  V19  1  0.00308885  0.74608672  0.75129804  1
  V  V20  1  0.62794953  0.49422039  0.62243805  1
  V  V21  1  0.62507580  0.12381055  0.00088121  1
  V  V22  1  0.50376697  0.12590138  0.64081093  1
  V  V23  1  0.63340752  -0.00938383  0.62500025  1
  V  V24  1  0.24900684  0.25798390  0.50435940  1
  V  V25  1  0.62782911  0.12671325  0.50418958  1
  V  V26  1  0.12213750  0.25212759  0.85885448  1
  V  V27  1  0.74560692  0.75244394  0.51035003  1
  V  V28  1  0.87769092  0.48643407  0.39610286  1
  V  V29  1  0.75289823  0.12270493  0.87287344  1
  V  V30  1  0.35834517  0.12125754  0.74949572  1
  V  V31  1  0.87597751  0.75538663  0.62775329  1
  V  V32  1  0.12402658  0.87181583  0.24892787  1
  V  V33  1  0.87659677  0.37413790  -0.00015788  1
  V  V34  1  0.87449173  0.49931302  0.87595638  1
  V  V35  1  0.49667244  0.37263431  0.37441022  1
  V  V36  1  0.13480776  0.87484602  0.75153880  1
  V  V37  1  0.74727215  0.75573304  0.01411587  1
  V  V38  1  0.25056548  0.61117688  0.87365497  1
  V  V39  1  0.74942977  0.00350186  0.24771680  1
  V  V40  1  0.12777106  0.00453172  0.63317489  1
  V  V41  1  0.48795201  0.49270842  -0.00387864  1
  V  V42  1  0.49769410  0.87352339  0.38327421  1
  V  V43  1  0.25586073  0.87639035  0.61592411  1
  V  V44  1  0.49561833  -0.01792880  -0.00341941  1
  V  V45  1  0.62559954  0.87698359  0.25106219  1
  V  V46  1  0.37742693  0.12433592  0.24952934  1
  V  V47  1  0.80691232  0.67298994  0.31814084  1
  V  V48  1  0.61844466  0.37118921  0.74850728  1
  V  V49  1  0.87337118  0.87632210  0.50710867  1
  V  V50  1  0.49892793  0.12407683  0.11697439  1
  V  V51  1  0.00128252  0.61388997  0.62194047  1
  V  V52  1  0.00324296  0.13127576  0.13321888  1
  V  V53  1  0.62253332  0.62791415  -0.00462307  1
  V  V54  1  0.49757423  -0.00089726  0.50404540  1
  V  V55  1  0.87856676  -0.00314202  0.87559488  1
  V  V56  1  0.49894618  0.74975030  0.24926426  1
  V  V57  1  0.13843786  0.48624237  0.62418508  1
  V  V58  1  0.62862072  0.62203079  0.49448172  1
  V  V59  1  0.88067345  0.26546744  0.63019694  1
  V  V60  1  0.87965118  0.13146237  0.25617994  1
  V  V61  1  0.62384811  0.74543624  0.37640353  1
  V  V62  1  0.62360498  0.49809714  0.12358475  1
  V  V63  1  0.25476753  0.75432173  -0.00095338  1
  V  V64  1  0.62268492  0.24826931  0.87014956  1
  V  V65  1  0.87412821  0.00362927  0.38058800  1
  V  V66  1  0.37121925  0.49514511  0.37204873  1
  V  V67  1  0.12684386  0.74177141  0.87491732  1
  V  V68  1  0.37228850  -0.01545599  0.87370545  1
  V  V69  1  0.12821862  -0.00266037  0.12706537  1
  V  V70  1  0.74738828  0.49718841  0.74858387  1
  V  V71  1  0.37481005  0.61730255  0.75242445  1
  V  V72  1  0.87953308  0.25054452  0.12777123  1
  V  V73  1  0.37632931  0.75712315  0.12398177  1
  V  V74  1  0.62585420  0.25121311  0.37710404  1
  V  V75  1  0.24915002  0.38126915  0.11738543  1
  V  V76  1  0.12569083  0.12618243  -0.00174157  1
  V  V77  1  0.75304876  -0.01188576  0.74720456  1
  V  V78  1  0.12565007  0.62264571  0.01185503  1
  V  V79  1  0.37699486  0.25618436  0.62931562  1
  V  V80  1  0.87323338  0.87022924  0.01761200  1
  V  V81  1  0.23319579  0.49858586  0.24560542  1
  V  V82  1  0.76158017  0.49854004  0.25086444  1
  V  V83  1  0.24362902  0.13140820  0.37471137  1
  V  V84  1  0.75037256  0.26817419  0.51107981  1
  Zn  Zn85  1  0.88108111  0.13165405  0.74831404  1
  Zn  Zn86  1  0.37797482  0.25708877  0.12058211  1
  Zn  Zn87  1  0.24533813  0.11804510  0.86952689  1
  Zn  Zn88  1  0.25472217  0.75327021  0.49611149  1
  Zn  Zn89  1  -0.01250533  0.74983863  0.24835206  1
  Zn  Zn90  1  0.25431853  0.48359541  0.75002663  1
  Zn  Zn91  1  0.37386456  0.74742604  0.62024474  1
  Zn  Zn92  1  0.00511869  0.36604066  0.36760427  1
  Zn  Zn93  1  -0.00353688  0.35958613  0.86335235  1
  Zn  Zn94  1  0.00260167  0.86986318  0.87797701  1
  Zn  Zn95  1  0.25448094  0.87605796  0.12148371  1
  Zn  Zn96  1  0.11827287  0.35486390  0.24602315  1
  Zn  Zn97  1  0.49979375  0.49750002  0.49632954  1
  Zn  Zn98  1  0.48920583  0.37983216  0.87240783  1
  Zn  Zn99  1  0.62408758  0.86260487  0.76370966  1
  Zn  Zn100  1  0.50279305  0.74983601  0.76262770  1
  Zn  Zn101  1  0.00552196  0.14233183  0.63520962  1
  Zn  Zn102  1  0.12217696  0.74879847  0.37478310  1
  Zn  Zn103  1  0.74977503  0.12788659  0.37986458  1
  Zn  Zn104  1  0.62508313  0.37560124  0.24950885  1
  Zn  Zn105  1  0.36982125  0.37675569  0.50370457  1
  Zn  Zn106  1  0.49801559  0.62231771  0.12406598  1
  Zn  Zn107  1  0.19558589  0.18444011  0.17920973  1
  Zn  Zn108  1  0.18709327  0.30920925  0.68293365  1
  Zn  Zn109  1  0.18762343  0.69004612  0.18848517  1
  Zn  Zn110  1  0.19075877  0.68524564  0.68693101  1
  Zn  Zn111  1  0.68781991  0.18552589  0.18873836  1
  Zn  Zn112  1  0.69352266  0.18475822  0.68859994  1
  Zn  Zn113  1  0.67833133  0.68817219  0.18196067  1
  Zn  Zn114  1  0.68244939  0.68652556  0.68669584  1
  Zn  Zn115  1  0.30226814  0.31106211  0.30719190  1
  Zn  Zn116  1  0.31508295  0.31257001  0.81490413  1
  Zn  Zn117  1  0.31221947  0.81308811  0.31494778  1
  Zn  Zn118  1  0.31534105  0.80058195  0.80622741  1
  Zn  Zn119  1  0.81202834  0.31242073  0.31622856  1
  Zn  Zn120  1  0.80868097  0.31532428  0.80952292  1
  Zn  Zn121  1  0.80998978  0.83372734  0.31609614  1
  Zn  Zn122  1  0.81576884  0.81459733  0.81762686  1
  Zn  Zn123  1  0.17086580  0.43804068  0.43688872  1
  Zn  Zn124  1  0.18180895  0.43315975  0.93850933  1
  Zn  Zn125  1  0.18513401  0.94303870  0.43782015  1
  Zn  Zn126  1  0.19086805  0.93413582  0.93537563  1
  Zn  Zn127  1  0.68989464  0.44088933  0.42990625  1
  Zn  Zn128  1  0.68571875  0.43730832  0.93568145  1
  Zn  Zn129  1  0.68698534  0.93649150  0.43935375  1
  Zn  Zn130  1  0.69163240  0.93846933  0.94105697  1
  Zn  Zn131  1  0.31576719  0.06133817  0.05697116  1
  Zn  Zn132  1  0.31007633  0.06420261  0.56613048  1
  Zn  Zn133  1  0.31093682  0.56561013  0.06450170  1
  Zn  Zn134  1  0.31251569  0.56350823  0.55777599  1
  Zn  Zn135  1  0.81494506  0.06211865  0.06482830  1
  Zn  Zn136  1  0.81556785  0.07230661  0.56914100  1
  Zn  Zn137  1  0.80807787  0.56226686  0.06112142  1
  Zn  Zn138  1  0.80872124  0.56621191  0.56455227  1
  Zn  Zn139  1  0.43345895  0.43586914  0.18548841  1
  Zn  Zn140  1  0.43945057  0.44067932  0.68742215  1
  Zn  Zn141  1  0.44193119  0.93720343  0.18899949  1
  Zn  Zn142  1  0.43862284  0.93937103  0.69427358  1
  Zn  Zn143  1  0.94516611  0.43759292  0.18984084  1
  Zn  Zn144  1  0.93905984  0.43336632  0.68380062  1
  Zn  Zn145  1  0.94034283  0.94373184  0.19223981  1
  Zn  Zn146  1  0.94504223  0.93738043  0.69392024  1
  Zn  Zn147  1  0.06410708  0.19672133  0.31861917  1
  Zn  Zn148  1  0.06268028  0.06333206  0.81189173  1
  Zn  Zn149  1  0.05512434  0.56235477  0.31098583  1
  Zn  Zn150  1  0.04606166  0.52743698  0.79485621  1
  Zn  Zn151  1  0.56207185  0.06486187  0.31596188  1
  Zn  Zn152  1  0.56629453  0.04621740  0.81803907  1
  Zn  Zn153  1  0.56318990  0.55981914  0.31063992  1
  Zn  Zn154  1  0.55974113  0.56323837  0.81360701  1
  Zn  Zn155  1  0.43606539  0.18477583  0.44225896  1
  Zn  Zn156  1  0.41971553  0.21319583  0.91392832  1
  Zn  Zn157  1  0.43614628  0.68686940  0.44277988  1
  Zn  Zn158  1  0.43325915  0.67862328  0.93861272  1
  Zn  Zn159  1  0.93046172  0.18908468  0.45058449  1
  Zn  Zn160  1  0.94170199  0.18362308  0.93885028  1
  Zn  Zn161  1  0.94174499  0.69160734  0.44290161  1
  Zn  Zn162  1  0.93541819  0.68664722  0.94092097  1
  Zn  Zn163  1  0.06685666  0.31509258  0.06204031  1
  Zn  Zn164  1  0.04903561  0.31726421  0.53624007  1
  Zn  Zn165  1  0.06237425  0.80745951  0.06386683  1
  Zn  Zn166  1  0.06725864  0.80885846  0.56493140  1
  Zn  Zn167  1  0.56377971  0.31144348  0.06033642  1
  Zn  Zn168  1  0.55804407  0.31235489  0.56348151  1
  Zn  Zn169  1  0.56365430  0.81316929  -0.07004150  1
  Zn  Zn170  1  0.54536208  0.82933893  0.59529084  1
  O  O171  1  0.11944346  0.11522552  0.12027341  1
  O  O172  1  0.12281978  0.10922764  0.61766609  1
  O  O173  1  0.12261158  0.63037422  0.11338052  1
  O  O174  1  0.11856400  0.62417327  0.61688762  1
  O  O175  1  0.61711575  0.11857428  0.12129098  1
  O  O176  1  0.62056619  0.12023119  0.62051375  1
  O  O177  1  0.62197730  0.61701054  0.11268276  1
  O  O178  1  0.61944789  0.61209768  0.61647706  1
  O  O179  1  0.37867463  0.38075247  0.37102100  1
  O  O180  1  0.39454800  0.32339269  0.88813679  1
  O  O181  1  0.38021171  0.88921756  0.37133592  1
  O  O182  1  0.37149329  0.88615351  0.86241328  1
  O  O183  1  0.87383776  0.38521083  0.37728090  1
  O  O184  1  0.87503596  0.38255058  0.88189391  1
  O  O185  1  0.88341476  0.88388883  0.38574313  1
  O  O186  1  0.87877662  0.88587067  0.88650618  1
  O  O187  1  0.25776105  0.00774527  0.37129495  1
  O  O188  1  0.26654100  0.00232134  0.88285300  1
  O  O189  1  0.25437302  0.50906131  0.36584116  1
  O  O190  1  0.24055085  0.50863218  0.87411148  1
  O  O191  1  0.75653238  0.00271067  0.36970036  1
  O  O192  1  0.76100743  0.00576704  0.87149674  1
  O  O193  1  0.76467893  0.49923541  0.36487322  1
  O  O194  1  0.75930654  0.50853848  0.87327275  1
  O  O195  1  0.25275238  0.49051276  0.13015079  1
  O  O196  1  0.24084114  0.49631679  0.62014917  1
  O  O197  1  0.24464189  0.99735749  0.12874862  1
  O  O198  1  0.23932703  0.98857003  0.62056419  1
  O  O199  1  0.74222667  0.49440367  0.12896819  1
  O  O200  1  0.74060204  0.50703620  0.63724538  1
  O  O201  1  0.74001615  1.01021512  0.13544688  1
  O  O202  1  0.74626156  1.00924931  0.63762168  1
  O  O203  1  0.00307230  0.36873979  0.25053182  1
  O  O204  1  0.00450846  0.42087397  0.77107391  1
  O  O205  1  0.00529712  0.87517157  0.25917807  1
  O  O206  1  0.01324297  0.86351488  0.75468945  1
  O  O207  1  0.49943648  0.36677382  0.25803858  1
  O  O208  1  0.51430989  0.38192810  0.75483096  1
  O  O209  1  0.50567481  0.86766831  0.25966443  1
  O  O210  1  0.51475160  0.86014302  0.70915195  1
  O  O211  1  0.49489143  0.12760067  0.24199900  1
  O  O212  1  0.50420319  0.11678736  0.74123357  1
  O  O213  1  0.49082151  0.63105278  0.25164957  1
  O  O214  1  0.49270849  0.62063189  0.74086283  1
  O  O215  1  0.99253393  0.12500714  0.24262743  1
  O  O216  1  0.99203468  0.10922569  0.74225031  1
  O  O217  1  1.00070325  0.62914857  0.23225111  1
  O  O218  1  0.99250067  0.62644823  0.74320293  1
  O  O219  1  0.35396066  0.22401116  0.00819560  1
  O  O220  1  0.36617421  0.24693653  0.51021368  1
  O  O221  1  0.36635395  0.73726220  0.01455511  1
  O  O222  1  0.36832759  0.74649588  0.50554618  1
  O  O223  1  0.87164980  0.25314764  0.00512984  1
  O  O224  1  0.85614355  0.25029944  0.51320006  1
  O  O225  1  0.85987804  0.75827725  -0.00382780  1
  O  O226  1  0.86832124  0.75423646  0.51006035  1
  O  O227  1  0.13276567  0.23646370  0.51126687  1
  O  O228  1  0.13297230  0.23853382  1.00125683  1
  O  O229  1  0.12979037  0.73840498  0.49569854  1
  O  O230  1  0.13216377  0.74252375  0.99371003  1
  O  O231  1  0.63191653  0.24521493  0.49930695  1
  O  O232  1  0.63439139  0.24253637  0.99449548  1
  O  O233  1  0.63365078  0.74386835  0.49397283  1
  O  O234  1  0.63794056  0.74186402  0.99601292  1
  O  O235  1  0.49819172  0.24223831  0.12910327  1
  O  O236  1  0.49112267  0.23531163  0.61794299  1
  O  O237  1  0.49199981  0.74437912  0.14255257  1
  O  O238  1  0.49960830  0.72797068  0.61526522  1
  O  O239  1  0.99607372  0.23737956  0.11641345  1
  O  O240  1  0.98508155  0.25825309  0.61534695  1
  O  O241  1  0.99596772  0.73878226  0.12747488  1
  O  O242  1  0.99455856  0.74175131  0.63266275  1
  O  O243  1  -0.00266181  0.24911298  0.38799306  1
  O  O244  1  0.01528093  0.24510291  0.87845972  1
  O  O245  1  -0.00030170  0.76348744  0.37176463  1
  O  O246  1  0.00906357  0.74693158  0.87125096  1
  O  O247  1  0.50403656  0.25419481  0.37188094  1
  O  O248  1  0.52483308  0.23081925  0.87380249  1
  O  O249  1  0.50214022  0.75425260  0.36797120  1
  O  O250  1  0.49352808  0.74672816  0.87679285  1
  O  O251  1  0.24275836  0.12961987  0.49365493  1
  O  O252  1  0.23454311  0.12530273  1.00315427  1
  O  O253  1  0.24222374  0.62522806  0.48836658  1
  O  O254  1  0.24224639  0.62929082  0.99426485  1
  O  O255  1  0.73664967  0.12908067  0.50123070  1
  O  O256  1  0.74816361  0.12697062  0.99161710  1
  O  O257  1  0.73721232  0.63592991  0.50333821  1
  O  O258  1  0.74428494  0.63530919  0.99455896  1
  O  O259  1  0.24691563  0.36650995  0.00789612  1
  O  O260  1  0.24918912  0.36015218  0.49005380  1
  O  O261  1  0.24763019  0.85813846  0.00204895  1
  O  O262  1  0.24223940  0.87472252  0.51185805  1
  O  O263  1  0.75587776  0.36855968  0.00478947  1
  O  O264  1  0.74066849  0.36568172  0.50209451  1
  O  O265  1  0.75621278  0.86332095  0.00054615  1
  O  O266  1  0.75897621  0.86009239  0.49099392  1
  O  O267  1  0.13422372  0.50910087  0.24565858  1
  O  O268  1  0.13712648  0.51072112  0.72645943  1
  O  O269  1  0.13066260  0.98869514  0.23538149  1
  O  O270  1  0.12278386  0.98801055  0.74357464  1
  O  O271  1  0.63264615  0.50073560  0.23740186  1
  O  O272  1  0.62962108  0.49637921  0.74276832  1
  O  O273  1  0.63171521  1.00161920  0.24651048  1
  O  O274  1  0.63611171  0.99769676  0.73978071  1
  O  O275  1  0.37384810  0.00732476  0.25726571  1
  O  O276  1  0.38253585  0.01010000  0.76305252  1
  O  O277  1  0.36944301  0.50739780  0.25713619  1
  O  O278  1  0.37086510  0.51040152  0.74604205  1
  O  O279  1  0.86900406  0.01111489  0.25631601  1
  O  O280  1  0.87035648  -0.00531041  0.76135466  1
  O  O281  1  0.86136111  0.50170299  0.24091812  1
  O  O282  1  0.86432385  0.50747592  0.75703653  1
  O  O283  1  0.12268189  0.38140516  0.35850999  1
  O  O284  1  0.12201717  0.35420803  0.88013931  1
  O  O285  1  0.11779427  0.87736358  0.36742355  1
  O  O286  1  0.12669120  0.86236053  0.86952622  1
  O  O287  1  0.61514898  0.36969524  0.37150980  1
  O  O288  1  0.62254393  0.36395380  0.86901549  1
  O  O289  1  0.61824037  0.86722224  0.37134862  1
  O  O290  1  0.61581250  0.89568031  0.87332175  1
  O  O291  1  0.38367307  0.11938522  0.13504328  1
  O  O292  1  0.38430713  0.12321688  0.63538916  1
  O  O293  1  0.37449905  0.63205960  0.13905985  1
  O  O294  1  0.38303448  0.61916231  0.62921386  1
  O  O295  1  0.88514846  0.12836032  0.13372396  1
  O  O296  1  0.87883474  0.14408606  0.62764534  1
  O  O297  1  0.88158281  0.62882780  0.12018990  1
  O  O298  1  0.88303051  0.63336496  0.62922655  1
  O  O299  1  0.25451062  0.25935586  0.11563002  1
  O  O300  1  0.26155414  0.24896763  0.61480016  1
  O  O301  1  0.25854702  0.75026028  0.11837570  1
  O  O302  1  0.24725311  0.76511273  0.62276528  1
  O  O303  1  0.75689023  0.25230993  0.11940010  1
  O  O304  1  0.75301407  0.25122732  0.61535885  1
  O  O305  1  0.74691257  0.74917521  0.11271001  1
  O  O306  1  0.76053843  0.74352125  0.61789138  1
  O  O307  1  0.26296924  0.23464336  0.38453279  1
  O  O308  1  0.23548136  0.23987822  0.88344327  1
  O  O309  1  0.24660917  0.73601400  0.37060085  1
  O  O310  1  0.24547977  0.74078423  0.88216590  1
  O  O311  1  0.74289806  0.25014424  0.38914431  1
  O  O312  1  0.74741830  0.24010427  0.87986762  1
  O  O313  1  0.74934005  0.74230529  0.37559709  1
  O  O314  1  0.75249345  0.74021284  0.88005668  1
  O  O315  1  0.00959851  0.11471445  0.00885965  1
  O  O316  1  0.00706907  0.11614316  0.50795286  1
  O  O317  1  0.00546979  0.62434983  0.01233532  1
  O  O318  1  0.00929729  0.63024536  0.50987230  1
  O  O319  1  0.50434062  0.12075679  0.01243505  1
  O  O320  1  0.51090778  0.11621617  0.50607998  1
  O  O321  1  0.50879166  0.61294080  0.00294420  1
  O  O322  1  0.51232116  0.61790706  0.50204647  1
  O  O323  1  0.49564070  0.37504534  0.48496915  1
  O  O324  1  0.50554693  0.38995929  1.00174289  1
  O  O325  1  0.50523332  0.89109442  0.50040266  1
  O  O326  1  0.50370849  0.88460383  1.00694443  1
  O  O327  1  1.00708444  0.39738817  0.47776298  1
  O  O328  1  0.99465590  0.38523756  0.99824105  1
  O  O329  1  0.99580266  0.87703334  0.49636399  1
  O  O330  1  0.99389015  0.87972514  1.00131563  1
  O  O331  1  0.49061063  0.48942714  0.37101365  1
  O  O332  1  0.50248427  0.49740456  0.89137543  1
  O  O333  1  0.49409170  0.99600924  0.38366309  1
  O  O334  1  0.48527300  1.00472495  0.88668919  1
  O  O335  1  0.97323506  0.50790703  0.36577502  1
  O  O336  1  0.98048214  0.51901921  0.89333149  1
  O  O337  1  0.99261202  0.98805099  0.39271759  1
  O  O338  1  0.99678821  0.99693479  0.89007756  1
  O  O339  1  0.00727234  0.00829665  0.11874637  1
  O  O340  1  0.00967573  -0.01012091  0.61420250  1
  O  O341  1  -0.00853628  0.51397144  0.11261574  1
  O  O342  1  0.00927902  0.51177154  0.62573420  1
  O  O343  1  0.50556890  0.00594916  0.11916348  1
  O  O344  1  0.51072901  0.00751078  0.61879618  1
  O  O345  1  0.50792844  0.49995455  0.12005801  1
  O  O346  1  0.50830657  0.50682246  0.61816093  1
  O  O347  1  0.24866940  0.38581978  0.23930845  1
  O  O348  1  0.25120664  0.37110945  0.75031924  1
  O  O349  1  0.24151641  0.88102980  0.24993393  1
  O  O350  1  0.23831301  0.86647583  0.74249454  1
  O  O351  1  0.74796950  0.38181309  0.24325604  1
  O  O352  1  0.73750172  0.39163721  0.75920724  1
  O  O353  1  0.74148701  0.89319092  0.25229175  1
  O  O354  1  0.74915245  0.88540937  0.75597643  1
  O  O355  1  0.26018063  0.11591839  0.25640349  1
  O  O356  1  0.26130029  0.11622919  0.74551928  1
  O  O357  1  0.25533723  0.61899536  0.25386958  1
  O  O358  1  0.25698369  0.62359142  0.75920608  1
  O  O359  1  0.75676850  0.11751249  0.25572340  1
  O  O360  1  0.75651625  0.11624662  0.76294243  1
  O  O361  1  0.74641736  0.62057520  0.25210713  1
  O  O362  1  0.75255271  0.61742720  0.75843298  1
  O  O363  1  0.37313115  0.11427977  0.36810222  1
  O  O364  1  0.37058080  0.12343430  0.85828279  1
  O  O365  1  0.36773260  0.61796060  0.36581837  1
  O  O366  1  0.36151015  0.62329485  0.86634763  1
  O  O367  1  0.87311719  0.12021168  0.37140273  1
  O  O368  1  0.87108845  0.11185500  0.87864261  1
  O  O369  1  0.86856750  0.62249141  0.38053321  1
  O  O370  1  0.86448310  0.62107637  0.87085736  1
  O  O371  1  0.14251916  0.37141196  0.12778408  1
  O  O372  1  0.12185771  0.38443452  0.61863078  1
  O  O373  1  0.12575869  0.88018316  0.13077350  1
  O  O374  1  0.13168514  0.88181603  0.63237113  1
  O  O375  1  0.63253694  0.38096042  0.12626445  1
  O  O376  1  0.61856734  0.38632799  0.63083785  1
  O  O377  1  0.62109218  0.89206037  0.13639514  1
  O  O378  1  0.64163109  0.89179104  0.61021980  1
  O  O379  1  0.14282668  0.24158903  0.25630988  1
  O  O380  1  0.12560007  0.24489174  0.76027973  1
  O  O381  1  0.12251219  0.76338654  0.25099108  1
  O  O382  1  0.12233923  0.75096633  0.75860422  1
  O  O383  1  0.61865179  0.24913321  0.25823081  1
  O  O384  1  0.63846409  0.26091607  0.75637691  1
  O  O385  1  0.61725304  0.75352609  0.25568108  1
  O  O386  1  0.62017550  0.74904403  0.75052204  1
  O  O387  1  0.37953849  0.23595900  0.24900177  1
  O  O388  1  0.37335597  0.23073404  0.73853325  1
  O  O389  1  0.37995115  0.74258010  0.24878940  1
  O  O390  1  0.37974897  0.73352849  0.73950713  1
  O  O391  1  0.86601343  0.23664436  0.24597183  1
  O  O392  1  0.86834477  0.25273051  0.73573375  1
  O  O393  1  0.86328024  0.74104434  0.26596320  1
  O  O394  1  0.87941055  0.74540301  0.74588257  1
  O  O395  1  0.37427020  0.49695199  0.48346888  1
  O  O396  1  0.38997181  0.50470060  1.00689683  1
  O  O397  1  0.38521590  1.00982538  0.49263091  1
  O  O398  1  0.38368382  0.99945438  0.98766586  1
  O  O399  1  0.86860268  0.50073888  0.49431250  1
  O  O400  1  0.87571697  0.49326374  0.99473150  1
  O  O401  1  0.88054266  0.99706485  0.50293282  1
  O  O402  1  0.88274299  0.99371180  0.99762071  1
  O  O403  1  0.11983159  0.00039066  0.00852375  1
  O  O404  1  0.11741653  0.00860680  0.50567139  1
  O  O405  1  0.11206264  0.50978350  -0.00621339  1
  O  O406  1  0.13053237  0.51415610  0.51260539  1
  O  O407  1  0.61908654  0.00681097  0.00912730  1
  O  O408  1  0.62134525  0.00976863  0.50399522  1
  O  O409  1  0.62407142  0.50569666  0.01071437  1
  O  O410  1  0.62814401  0.50567563  0.50429981  1
  O  O411  1  0.35793204  0.37195301  0.12851364  1
  O  O412  1  0.38758154  0.36037762  0.62220770  1
  O  O413  1  0.37443642  0.86088281  0.13460475  1
  O  O414  1  0.35645036  0.88090391  0.63100400  1
  O  O415  1  0.87041891  0.36797515  0.11873387  1
  O  O416  1  0.87007699  0.36612362  0.62690726  1
  O  O417  1  0.87870892  0.88205288  0.11669792  1
  O  O418  1  0.88164021  0.86184266  0.62470582  1
  O  O419  1  0.13590633  0.12025498  0.38599636  1
  O  O420  1  0.12578372  0.12913883  0.88328340  1
  O  O421  1  0.12917465  0.62344915  0.38040821  1
  O  O422  1  0.13143956  0.63489882  0.88328224  1
  O  O423  1  0.62417276  0.13406638  0.38599917  1
  O  O424  1  0.63815402  0.12210624  0.88119978  1
  O  O425  1  0.62045962  0.63044294  0.38277130  1
  O  O426  1  0.63451631  0.61363400  0.88808473  1
