# generated using pymatgen
data_V85Zn86O256
_symmetry_space_group_name_H-M   'P 1'
_cell_length_a   16.90817459
_cell_length_b   16.90953754
_cell_length_c   16.90510952
_cell_angle_alpha   89.97212699
_cell_angle_beta   90.01245150
_cell_angle_gamma   90.05732899
_symmetry_Int_Tables_number   1
_chemical_formula_structural   V85Zn86O256
_chemical_formula_sum   'V85 Zn86 O256'
_cell_volume   4833.32683272
_cell_formula_units_Z   1
loop_
 _symmetry_equiv_pos_site_id
 _symmetry_equiv_pos_as_xyz
  1  'x, y, z'
loop_
 _atom_site_type_symbol
 _atom_site_label
 _atom_site_symmetry_multiplicity
 _atom_site_fract_x
 _atom_site_fract_y
 _atom_site_fract_z
 _atom_site_occupancy
  V  V0  1  0.74470192  0.13107352  0.37379917  1
  V  V1  1  -0.00002982  0.50475629  0.00887870  1
  V  V2  1  0.37458603  0.87259123  -0.00318124  1
  V  V3  1  0.75404141  -0.00622402  0.75016194  1
  V  V4  1  -0.00258304  -0.00235186  -0.01049359  1
  V  V5  1  0.74805218  0.50215949  0.74724874  1
  V  V6  1  0.74244784  0.74333338  -0.00499722  1
  V  V7  1  0.13152168  0.38365860  0.24896689  1
  V  V8  1  0.37176896  0.74484615  0.12852916  1
  V  V9  1  0.12357248  0.61713976  0.49987178  1
  V  V10  1  0.37502982  0.25089365  0.62377030  1
  V  V11  1  0.50472586  0.87857347  0.37921336  1
  V  V12  1  0.37146840  0.49908993  0.87727300  1
  V  V13  1  0.62247171  -0.00267475  0.62080501  1
  V  V14  1  0.12417835  0.12439785  0.50068191  1
  V  V15  1  -0.00488824  0.87695190  0.38196470  1
  V  V16  1  0.62183592  -0.00334122  0.12759849  1
  V  V17  1  0.75436247  0.11793487  0.87381832  1
  V  V18  1  0.24755943  0.12291884  0.88236680  1
  V  V19  1  0.88384385  0.37647156  0.50115094  1
  V  V20  1  0.12520482  0.00312412  0.11897966  1
  V  V21  1  0.49877001  0.62415695  0.13192450  1
  V  V22  1  0.00428157  0.12459151  0.12016434  1
  V  V23  1  0.25622336  0.38451971  0.11777304  1
  V  V24  1  0.62432302  0.62045551  0.50220489  1
  V  V25  1  0.49953066  0.12116202  0.62401657  1
  V  V26  1  0.61769418  0.12654393  0.49659792  1
  V  V27  1  0.12628028  0.87432995  0.24897334  1
  V  V28  1  0.50111555  0.86596530  0.86802372  1
  V  V29  1  0.88219392  0.50121420  0.38002333  1
  V  V30  1  0.25467485  0.86723160  0.62438010  1
  V  V31  1  0.49747142  -0.00191880  -0.00813526  1
  V  V32  1  0.00129903  0.74735942  0.24816257  1
  V  V33  1  0.25000461  0.12370399  0.37467642  1
  V  V34  1  0.74534753  0.25231488  0.49801555  1
  V  V35  1  0.50418691  0.25074189  0.25426909  1
  V  V36  1  0.87512367  0.75022420  0.60893142  1
  V  V37  1  0.49922647  0.25030972  0.75034027  1
  V  V38  1  0.25582659  0.25379462  0.49998008  1
  V  V39  1  0.50322512  0.75526185  0.24973445  1
  V  V40  1  0.74786707  -0.00468587  0.24978320  1
  V  V41  1  0.74965516  0.25145657  -0.00039531  1
  V  V42  1  0.62504228  0.12306260  -0.00009284  1
  V  V43  1  0.37613667  0.12136676  0.75748359  1
  V  V44  1  0.25030092  0.63541369  0.88026626  1
  V  V45  1  0.25207846  -0.00108300  0.75345433  1
  V  V46  1  0.12261963  -0.00196905  0.62591886  1
  V  V47  1  0.25171297  -0.00085723  0.24979798  1
  V  V48  1  0.12340277  0.25109647  0.37285082  1
  V  V49  1  0.12234355  0.24609603  0.88352204  1
  V  V50  1  0.13037311  0.74927272  0.37917295  1
  V  V51  1  0.12497409  0.62950870  0.00657426  1
  V  V52  1  0.74742215  0.87343967  0.12625745  1
  V  V53  1  0.75038246  0.62952554  0.37989237  1
  V  V54  1  0.49407848  0.37325206  0.88699267  1
  V  V55  1  0.62805110  0.75280021  0.37348033  1
  V  V56  1  -0.00071197  0.13248439  0.62842480  1
  V  V57  1  0.12441796  0.36939881  0.75106500  1
  V  V58  1  0.37616294  0.49464764  0.36256523  1
  V  V59  1  0.11314947  0.75517617  0.87651645  1
  V  V60  1  -0.00046007  0.37222557  0.87195218  1
  V  V61  1  0.25064758  0.87033473  0.12020395  1
  V  V62  1  0.37630841  0.12618243  0.24637400  1
  V  V63  1  0.48921777  0.49477761  0.51134402  1
  V  V64  1  0.25631389  0.37842380  0.62420345  1
  V  V65  1  0.87627171  0.50202050  0.87409236  1
  V  V66  1  0.50348280  0.51151117  -0.00432118  1
  V  V67  1  0.62106440  0.37970369  0.74650223  1
  V  V68  1  0.87983155  0.75071929  0.12297479  1
  V  V69  1  0.50201472  0.64185369  0.62754152  1
  V  V70  1  0.87807398  0.62384947  0.24562979  1
  V  V71  1  0.87593961  0.25124975  0.12483006  1
  V  V72  1  0.75021012  0.50026280  0.25038311  1
  V  V73  1  0.62603001  0.37380402  0.25993442  1
  V  V74  1  0.87710564  0.12938093  0.75192437  1
  V  V75  1  0.11598969  0.49725819  0.62389060  1
  V  V76  1  0.62696809  0.50354074  0.12179391  1
  V  V77  1  0.87616313  0.87744608  -0.01515803  1
  V  V78  1  0.75602393  0.87156412  0.60725649  1
  V  V79  1  0.37900703  -0.00206869  0.38429889  1
  V  V80  1  0.37473650  0.63796161  0.74408116  1
  V  V81  1  0.87560906  0.12416596  0.25193345  1
  V  V82  1  0.25971561  0.62175283  0.36370081  1
  V  V83  1  0.74585668  0.37862578  0.62297538  1
  V  V84  1  0.62413879  0.24941936  0.87485072  1
  Zn  Zn85  1  0.37717274  0.25784275  0.11929284  1
  Zn  Zn86  1  0.87640891  0.62781117  0.74712098  1
  Zn  Zn87  1  0.11747676  0.87549183  0.75443382  1
  Zn  Zn88  1  -0.00093376  0.62533774  0.62482023  1
  Zn  Zn89  1  -0.00979520  0.75637277  0.75039484  1
  Zn  Zn90  1  0.74877954  0.37463042  0.12594119  1
  Zn  Zn91  1  0.24964016  0.50216511  0.75079405  1
  Zn  Zn92  1  0.74038557  0.61652149  0.88085474  1
  Zn  Zn93  1  0.00255852  0.25158684  0.24895058  1
  Zn  Zn94  1  0.62394857  0.86525212  0.74443973  1
  Zn  Zn95  1  0.87773453  0.25313327  0.62912221  1
  Zn  Zn96  1  0.86914624  -0.00602782  0.38030528  1
  Zn  Zn97  1  -0.01004518  -0.00268347  0.50639745  1
  Zn  Zn98  1  0.25547270  0.25332547  0.00024939  1
  Zn  Zn99  1  0.49901359  0.12735395  0.12225976  1
  Zn  Zn100  1  0.12595923  0.50840692  0.13056304  1
  Zn  Zn101  1  0.38442243  0.86945081  0.50775011  1
  Zn  Zn102  1  0.25996518  0.74312063  0.50566801  1
  Zn  Zn103  1  0.61460904  0.73235043  0.86610149  1
  Zn  Zn104  1  0.00500202  0.37990991  0.37685452  1
  Zn  Zn105  1  0.87615942  0.37574096  0.00082285  1
  Zn  Zn106  1  0.49877361  0.37174698  0.38267793  1
  Zn  Zn107  1  0.19003247  0.19246149  0.18450420  1
  Zn  Zn108  1  0.18675214  0.18823934  0.69169405  1
  Zn  Zn109  1  0.18924388  0.68705624  0.18859495  1
  Zn  Zn110  1  0.18417803  0.68532946  0.69304315  1
  Zn  Zn111  1  0.68519624  0.18701078  0.18708441  1
  Zn  Zn112  1  0.68860100  0.18902782  0.68593166  1
  Zn  Zn113  1  0.68727321  0.68635859  0.18817386  1
  Zn  Zn114  1  0.68817406  0.69073576  0.68513412  1
  Zn  Zn115  1  0.31243636  0.31403353  0.30845893  1
  Zn  Zn116  1  0.31096243  0.31096964  0.81352918  1
  Zn  Zn117  1  0.31740226  0.81072518  0.31276056  1
  Zn  Zn118  1  0.31037395  0.81531877  0.81479025  1
  Zn  Zn119  1  0.81326725  0.31307286  0.31334826  1
  Zn  Zn120  1  0.81217862  0.31325640  0.81276761  1
  Zn  Zn121  1  0.81221350  0.81139587  0.31275856  1
  Zn  Zn122  1  0.80867425  0.80769854  0.80519095  1
  Zn  Zn123  1  0.19394238  0.43902464  0.43838048  1
  Zn  Zn124  1  0.18519308  0.44308671  0.93800826  1
  Zn  Zn125  1  0.18711877  0.93655687  0.44091641  1
  Zn  Zn126  1  0.18800648  0.93841105  0.93913393  1
  Zn  Zn127  1  0.68698404  0.44488905  0.43927156  1
  Zn  Zn128  1  0.68453521  0.43699388  0.93624027  1
  Zn  Zn129  1  0.68328012  0.94202751  0.43523570  1
  Zn  Zn130  1  0.68562975  0.93275751  0.93691896  1
  Zn  Zn131  1  0.31534199  0.05911072  0.06159015  1
  Zn  Zn132  1  0.31138787  0.06125381  0.56572696  1
  Zn  Zn133  1  0.31280629  0.56101765  0.06136914  1
  Zn  Zn134  1  0.31097061  0.56400989  0.56135516  1
  Zn  Zn135  1  0.81491245  0.06134154  0.06155113  1
  Zn  Zn136  1  0.81258172  0.06166273  0.56272576  1
  Zn  Zn137  1  0.81589773  0.56242408  0.06459646  1
  Zn  Zn138  1  0.81205104  0.56233651  0.56206893  1
  Zn  Zn139  1  0.44091938  0.43755705  0.18850081  1
  Zn  Zn140  1  0.43486925  0.44150328  0.69223959  1
  Zn  Zn141  1  0.43830535  0.93557356  0.19012619  1
  Zn  Zn142  1  0.43646738  0.93945303  0.68854068  1
  Zn  Zn143  1  0.94132909  0.43377205  0.19142980  1
  Zn  Zn144  1  0.93676611  0.43627344  0.68957013  1
  Zn  Zn145  1  0.93682143  0.93583804  0.18707724  1
  Zn  Zn146  1  0.93611754  0.93621604  0.69185000  1
  Zn  Zn147  1  0.06284944  0.06186658  0.30841060  1
  Zn  Zn148  1  0.06360737  0.06386471  0.80920079  1
  Zn  Zn149  1  0.06374105  0.56514155  0.31457313  1
  Zn  Zn150  1  0.06087417  0.56590001  0.81025217  1
  Zn  Zn151  1  0.56248611  0.06243660  0.31114106  1
  Zn  Zn152  1  0.56624510  0.05699826  0.81042990  1
  Zn  Zn153  1  0.55936081  0.56182413  0.31342567  1
  Zn  Zn154  1  0.56224737  0.56515998  0.80809053  1
  Zn  Zn155  1  0.43701403  0.18830679  0.43368325  1
  Zn  Zn156  1  0.43375590  0.18686050  0.94058965  1
  Zn  Zn157  1  0.43733481  0.68850710  0.43961990  1
  Zn  Zn158  1  0.43332966  0.68756415  0.94234673  1
  Zn  Zn159  1  0.93601729  0.18585352  0.44065888  1
  Zn  Zn160  1  0.93766905  0.18620176  0.93703130  1
  Zn  Zn161  1  0.94131540  0.68726984  0.43803207  1
  Zn  Zn162  1  0.93422976  0.68331973  0.93807304  1
  Zn  Zn163  1  0.06520035  0.31616988  0.06093382  1
  Zn  Zn164  1  0.06635863  0.31118943  0.56257695  1
  Zn  Zn165  1  0.06141914  0.81288556  0.05815589  1
  Zn  Zn166  1  0.06595307  0.81081538  0.56422855  1
  Zn  Zn167  1  0.56216465  0.31484015  0.06843790  1
  Zn  Zn168  1  0.56294111  0.31244905  0.56231771  1
  Zn  Zn169  1  0.56224999  0.81284547  0.06161348  1
  Zn  Zn170  1  0.56835231  0.81090900  0.55616588  1
  O  O171  1  0.11610542  0.11686359  0.13041223  1
  O  O172  1  0.11957196  0.12003287  0.62296310  1
  O  O173  1  0.12836373  0.62727198  0.11272991  1
  O  O174  1  0.12794464  0.61453870  0.61864274  1
  O  O175  1  0.62417705  0.11570295  0.11641195  1
  O  O176  1  0.62053741  0.11953946  0.61819940  1
  O  O177  1  0.61819654  0.61200600  0.12970285  1
  O  O178  1  0.61129218  0.62866059  0.61739286  1
  O  O179  1  0.37486447  0.38963697  0.37163818  1
  O  O180  1  0.38421838  0.38389381  0.86755646  1
  O  O181  1  0.38405840  0.88422137  0.37290261  1
  O  O182  1  0.38481553  0.87083727  0.88494506  1
  O  O183  1  0.87595874  0.38362696  0.38207420  1
  O  O184  1  0.88200677  0.38254268  0.87593534  1
  O  O185  1  0.89153261  0.87374520  0.36875601  1
  O  O186  1  0.86791456  0.87197278  0.88693887  1
  O  O187  1  0.25559546  0.00329877  0.36948201  1
  O  O188  1  0.24094967  0.00637778  0.86199987  1
  O  O189  1  0.26490118  0.50952225  0.37925517  1
  O  O190  1  0.25687534  0.50904612  0.87400947  1
  O  O191  1  0.74846700  0.00938980  0.36463968  1
  O  O192  1  0.74147592  0.00732800  0.86582449  1
  O  O193  1  0.75958118  0.51054272  0.36934649  1
  O  O194  1  0.75817114  0.49420803  0.86683084  1
  O  O195  1  0.24595526  0.48980885  0.12468626  1
  O  O196  1  0.24387223  0.49113265  0.62660337  1
  O  O197  1  0.24282135  0.99397277  0.12941891  1
  O  O198  1  0.24259446  0.99498333  0.63404118  1
  O  O199  1  0.74390965  0.49884746  0.13032388  1
  O  O200  1  0.75332443  0.48675261  0.63112843  1
  O  O201  1  0.74522621  0.99346167  0.12962689  1
  O  O202  1  0.74492961  0.99038358  0.62960668  1
  O  O203  1  0.01387750  0.37015969  0.25473724  1
  O  O204  1  0.00695593  0.37824675  0.76304285  1
  O  O205  1  0.00622768  0.86546951  0.25575316  1
  O  O206  1  0.00402878  0.87167227  0.74954537  1
  O  O207  1  0.50857992  0.36898428  0.25301992  1
  O  O208  1  0.50608943  0.37123788  0.75633961  1
  O  O209  1  0.50032844  0.86268842  0.25753493  1
  O  O210  1  0.49890168  0.88081475  0.76545078  1
  O  O211  1  0.49333764  0.13172073  0.24848839  1
  O  O212  1  0.49395811  0.12824990  0.74804407  1
  O  O213  1  0.50328888  0.63476277  0.23890186  1
  O  O214  1  0.48998950  0.62059101  0.73505056  1
  O  O215  1  0.99176307  0.12630404  0.24021168  1
  O  O216  1  0.98827181  0.12032900  0.74318090  1
  O  O217  1  0.99387037  0.63862274  0.25625765  1
  O  O218  1  0.99603905  0.63140445  0.74383914  1
  O  O219  1  0.37011013  0.24743581  0.00592315  1
  O  O220  1  0.36318092  0.24384808  0.50445529  1
  O  O221  1  0.37997560  0.76264664  0.01465242  1
  O  O222  1  0.37074789  0.75730318  0.49449504  1
  O  O223  1  0.86682829  0.25007449  0.00733152  1
  O  O224  1  0.86233714  0.25777558  0.50003689  1
  O  O225  1  0.87023058  0.75866640  0.00638283  1
  O  O226  1  0.87399845  0.74889401  0.50859184  1
  O  O227  1  0.13609676  0.24528536  0.49329100  1
  O  O228  1  0.13027482  0.25283918  0.98740439  1
  O  O229  1  0.13195683  0.74530552  0.48873891  1
  O  O230  1  0.12073511  0.74236808  0.99014726  1
  O  O231  1  0.63684022  0.24360381  0.50294323  1
  O  O232  1  0.63063463  0.24455165  0.99758950  1
  O  O233  1  0.61878897  0.73471474  0.48414932  1
  O  O234  1  0.64123510  0.75439998  1.00072377  1
  O  O235  1  0.49739079  0.24848330  0.13690157  1
  O  O236  1  0.49489744  0.24384861  0.63053624  1
  O  O237  1  0.49818227  0.74421022  0.13066096  1
  O  O238  1  0.49917455  0.74053217  0.62108969  1
  O  O239  1  0.99406267  0.24261284  0.12251925  1
  O  O240  1  1.00089004  0.23742787  0.62358100  1
  O  O241  1  0.98870500  0.75711706  0.13282480  1
  O  O242  1  0.98589734  0.75169044  0.62098147  1
  O  O243  1  0.01462972  0.24939449  0.37661308  1
  O  O244  1  0.00716296  0.25874539  0.88061647  1
  O  O245  1  0.00840550  0.75909519  0.36948028  1
  O  O246  1  0.01016692  0.74637859  0.87669504  1
  O  O247  1  0.49542146  0.25442176  0.36141694  1
  O  O248  1  0.50344161  0.25646672  0.87044310  1
  O  O249  1  0.50685075  0.75395308  0.36623861  1
  O  O250  1  0.49920723  0.76223307  0.88281851  1
  O  O251  1  0.24419289  0.13054376  0.49472350  1
  O  O252  1  0.25314264  0.11759496  0.98498841  1
  O  O253  1  0.24065195  0.62571608  0.49092114  1
  O  O254  1  0.24021383  0.62033016  0.99104168  1
  O  O255  1  0.74220648  0.13366030  0.49313909  1
  O  O256  1  0.74749143  0.13132575  0.99336127  1
  O  O257  1  0.73876521  0.61706136  0.49088689  1
  O  O258  1  0.75644304  0.64087517  1.00392013  1
  O  O259  1  0.24342032  0.37801812  0.01457967  1
  O  O260  1  0.24644890  0.36499842  0.51096387  1
  O  O261  1  0.25885607  0.88127674  0.01196372  1
  O  O262  1  0.24982041  0.87558866  0.51620701  1
  O  O263  1  0.75041663  0.36187582  0.00116256  1
  O  O264  1  0.75234409  0.37102996  0.50499955  1
  O  O265  1  0.75932782  0.86776599  0.00615358  1
  O  O266  1  0.74893838  0.88052519  0.50886606  1
  O  O267  1  0.12040260  0.48811343  0.25048136  1
  O  O268  1  0.12779443  0.48924654  0.74407152  1
  O  O269  1  0.13065253  0.99416001  0.23942198  1
  O  O270  1  0.13255276  1.00098340  0.73909735  1
  O  O271  1  0.63003349  0.49518366  0.24521777  1
  O  O272  1  0.63098981  0.48627464  0.75328470  1
  O  O273  1  0.63285782  1.00539847  0.23595490  1
  O  O274  1  0.63518978  0.99778984  0.73670458  1
  O  O275  1  0.36993198  0.00618705  0.25681448  1
  O  O276  1  0.36508354  0.00997037  0.74678024  1
  O  O277  1  0.38338425  0.50443399  0.26399856  1
  O  O278  1  0.37411834  0.51071376  0.76304465  1
  O  O279  1  0.86673843  0.00780034  0.25145148  1
  O  O280  1  0.86051740  0.01192138  0.74353612  1
  O  O281  1  0.87212646  0.50727962  0.25409689  1
  O  O282  1  0.86634598  0.49961541  0.75697380  1
  O  O283  1  0.12869610  0.36996963  0.36692433  1
  O  O284  1  0.11981514  0.37060238  0.86924232  1
  O  O285  1  0.12228121  0.86694853  0.36889864  1
  O  O286  1  0.13219075  0.85773624  0.87856231  1
  O  O287  1  0.62360505  0.38293617  0.36377858  1
  O  O288  1  0.61572575  0.36784861  0.86815320  1
  O  O289  1  0.62031552  0.86586275  0.37637754  1
  O  O290  1  0.60914162  0.87162363  0.87579834  1
  O  O291  1  0.37644670  0.12071048  0.13810002  1
  O  O292  1  0.38037583  0.12964296  0.63321179  1
  O  O293  1  0.38349318  0.63341550  0.12004110  1
  O  O294  1  0.38029531  0.62372859  0.63724209  1
  O  O295  1  0.87831306  0.13253949  0.13414715  1
  O  O296  1  0.88195501  0.12905263  0.63238642  1
  O  O297  1  0.87278785  0.63391011  0.13762564  1
  O  O298  1  0.87450102  0.63763499  0.62096456  1
  O  O299  1  0.25061902  0.26555191  0.12210903  1
  O  O300  1  0.25357529  0.25526796  0.61840197  1
  O  O301  1  0.25844153  0.75898330  0.13097705  1
  O  O302  1  0.24231246  0.76467522  0.62816465  1
  O  O303  1  0.75751233  0.24842590  0.11691006  1
  O  O304  1  0.75171914  0.26070577  0.61689295  1
  O  O305  1  0.75733900  0.75600535  0.11973537  1
  O  O306  1  0.75751308  0.76339025  0.62024532  1
  O  O307  1  0.24342852  0.24640077  0.38091027  1
  O  O308  1  0.24263092  0.24121532  0.87634540  1
  O  O309  1  0.24493254  0.73920919  0.37124479  1
  O  O310  1  0.24316805  0.73929781  0.87440101  1
  O  O311  1  0.75167699  0.23900672  0.38010570  1
  O  O312  1  0.74425105  0.24339864  0.88223429  1
  O  O313  1  0.74477764  0.73824572  0.36971834  1
  O  O314  1  0.75172102  0.74741071  0.88944326  1
  O  O315  1  -0.01125131  0.11463844  0.01418788  1
  O  O316  1  0.00871143  0.12477131  0.50784651  1
  O  O317  1  0.00805378  0.61538427  -0.00443944  1
  O  O318  1  0.01822345  0.62924063  0.50074852  1
  O  O319  1  0.50611786  0.11462433  -0.00062441  1
  O  O320  1  0.51161419  0.13239105  0.50309433  1
  O  O321  1  0.49960405  0.61700629  0.01074148  1
  O  O322  1  0.50133558  0.61771966  0.51227637  1
  O  O323  1  0.50496432  0.39007629  0.50052619  1
  O  O324  1  0.50437324  0.38282762  0.99024430  1
  O  O325  1  0.50234827  0.87458577  0.48489167  1
  O  O326  1  0.49445274  0.87994094  0.99357220  1
  O  O327  1  0.98751824  0.36790899  0.49840110  1
  O  O328  1  1.00062056  0.38435640  0.98891413  1
  O  O329  1  1.00941280  0.87660879  0.48449966  1
  O  O330  1  0.98404157  0.88158757  1.00409150  1
  O  O331  1  0.48737207  0.50285546  0.38512673  1
  O  O332  1  0.49486980  0.49363563  0.88125342  1
  O  O333  1  0.49228585  0.99057698  0.36678795  1
  O  O334  1  0.50548139  0.99091411  0.88659331  1
  O  O335  1  0.98644832  0.50100930  0.37255244  1
  O  O336  1  0.99248588  0.49467906  0.88089604  1
  O  O337  1  1.00380218  0.98386195  0.37059358  1
  O  O338  1  1.00715249  1.00686763  0.89063680  1
  O  O339  1  0.00649787  0.00531078  0.12130215  1
  O  O340  1  0.00779738  0.00953630  0.62502048  1
  O  O341  1  0.00031961  0.49534699  0.11258174  1
  O  O342  1  0.01226118  0.49814336  0.62658840  1
  O  O343  1  0.50865135  -0.00265249  0.11767619  1
  O  O344  1  0.50994185  0.00689627  0.62898192  1
  O  O345  1  0.50479949  0.50666167  0.11853506  1
  O  O346  1  0.49376442  0.50584139  0.61411700  1
  O  O347  1  0.23697435  0.37332152  0.24177912  1
  O  O348  1  0.24272719  0.37655268  0.74238363  1
  O  O349  1  0.24620632  0.87932771  0.24139344  1
  O  O350  1  0.24650983  0.88271247  0.74294591  1
  O  O351  1  0.74449850  0.38143428  0.24904795  1
  O  O352  1  0.74300468  0.38048696  0.74321420  1
  O  O353  1  0.75515683  0.88675698  0.24321241  1
  O  O354  1  0.74788605  0.88338010  0.74087419  1
  O  O355  1  0.25676471  0.12125164  0.25516439  1
  O  O356  1  0.25751681  0.11912348  0.75568789  1
  O  O357  1  0.24529246  0.62151913  0.26509976  1
  O  O358  1  0.26152987  0.62327370  0.75591802  1
  O  O359  1  0.75489504  0.11878389  0.25478118  1
  O  O360  1  0.75235546  0.11877270  0.75664157  1
  O  O361  1  0.75901695  0.62022008  0.25665997  1
  O  O362  1  0.74935033  0.60837552  0.74496849  1
  O  O363  1  0.37074465  0.11765381  0.36535725  1
  O  O364  1  0.36744458  0.12758315  0.86296308  1
  O  O365  1  0.36455948  0.61861332  0.37621182  1
  O  O366  1  0.36957994  0.62163841  0.86895331  1
  O  O367  1  0.86926540  0.12776517  0.36202284  1
  O  O368  1  0.86220838  0.12702370  0.86980984  1
  O  O369  1  0.87015086  0.62184197  0.36890709  1
  O  O370  1  0.86701600  0.61198500  0.87331541  1
  O  O371  1  0.13108727  0.37814436  0.13605818  1
  O  O372  1  0.13176590  0.37822948  0.63196431  1
  O  O373  1  0.13215817  0.87850845  0.12868007  1
  O  O374  1  0.13421968  0.88364545  0.62629817  1
  O  O375  1  0.62599862  0.38763056  0.13570974  1
  O  O376  1  0.63280067  0.37031361  0.63457765  1
  O  O377  1  0.63865372  0.88112533  0.12051933  1
  O  O378  1  0.63444310  0.88109369  0.62120099  1
  O  O379  1  0.12549322  0.25841140  0.25843486  1
  O  O380  1  0.12885771  0.26341034  0.75924421  1
  O  O381  1  0.11871312  0.75205969  0.25882158  1
  O  O382  1  0.12336347  0.74930695  0.76661311  1
  O  O383  1  0.61843910  0.26019643  0.24530656  1
  O  O384  1  0.61979688  0.25757281  0.75509377  1
  O  O385  1  0.61876281  0.74489658  0.26172343  1
  O  O386  1  0.62977915  0.75316902  0.75501960  1
  O  O387  1  0.38059543  0.24155307  0.24667845  1
  O  O388  1  0.38042679  0.24220282  0.74462902  1
  O  O389  1  0.38591615  0.75276103  0.23760720  1
  O  O390  1  0.37393905  0.73650932  0.75535260  1
  O  O391  1  0.87712857  0.24328646  0.24235504  1
  O  O392  1  0.86650144  0.23535347  0.74834836  1
  O  O393  1  0.88130281  0.74448239  0.24346797  1
  O  O394  1  0.87079883  0.74576457  0.73446818  1
  O  O395  1  0.38660532  0.50399377  0.49404225  1
  O  O396  1  0.38589640  0.50518536  0.98631967  1
  O  O397  1  0.37170548  0.99915203  0.48728618  1
  O  O398  1  0.38650452  0.98631557  1.00662190  1
  O  O399  1  0.86922067  0.48963604  0.49150560  1
  O  O400  1  0.88097826  0.49776121  0.99368427  1
  O  O401  1  0.87861287  1.00917318  0.49113522  1
  O  O402  1  0.87975326  0.98548565  1.00370649  1
  O  O403  1  0.11587982  -0.00718916  0.01296755  1
  O  O404  1  0.12416225  0.00700775  0.51127077  1
  O  O405  1  0.11532787  0.51043465  0.00124603  1
  O  O406  1  0.12962417  0.50465439  0.50885253  1
  O  O407  1  0.62061204  0.00225251  0.00918346  1
  O  O408  1  0.63039858  0.01235425  0.51161866  1
  O  O409  1  0.61635137  0.49421584  0.00969601  1
  O  O410  1  0.60873379  0.51319060  0.49300440  1
  O  O411  1  0.35954022  0.37903215  0.13266979  1
  O  O412  1  0.36420566  0.36843169  0.63292888  1
  O  O413  1  0.36794126  0.86907844  0.12157724  1
  O  O414  1  0.35943346  0.88250441  0.62543392  1
  O  O415  1  0.87415147  0.36203793  0.12504530  1
  O  O416  1  0.86848462  0.37296483  0.61802758  1
  O  O417  1  0.86446127  0.86773675  0.12159470  1
  O  O418  1  0.86340886  0.86770590  0.62206359  1
  O  O419  1  0.13058892  0.13104924  0.37732319  1
  O  O420  1  0.13414526  0.13599912  0.86608240  1
  O  O421  1  0.13467719  0.62954455  0.38025770  1
  O  O422  1  0.13177738  0.63281178  0.88208079  1
  O  O423  1  0.63278066  0.12016923  0.38322791  1
  O  O424  1  0.63366468  0.12953502  0.87915223  1
  O  O425  1  0.63279086  0.62831758  0.37897883  1
  O  O426  1  0.62662544  0.61948388  0.87973735  1
