# generated using pymatgen
data_V85Zn86O256
_symmetry_space_group_name_H-M   'P 1'
_cell_length_a   16.94365885
_cell_length_b   16.93853023
_cell_length_c   16.93390713
_cell_angle_alpha   90.06612809
_cell_angle_beta   89.97380562
_cell_angle_gamma   89.94003374
_symmetry_Int_Tables_number   1
_chemical_formula_structural   V85Zn86O256
_chemical_formula_sum   'V85 Zn86 O256'
_cell_volume   4860.03641123
_cell_formula_units_Z   1
loop_
 _symmetry_equiv_pos_site_id
 _symmetry_equiv_pos_as_xyz
  1  'x, y, z'
loop_
 _atom_site_type_symbol
 _atom_site_label
 _atom_site_symmetry_multiplicity
 _atom_site_fract_x
 _atom_site_fract_y
 _atom_site_fract_z
 _atom_site_occupancy
  V  V0  1  0.12784328  0.38807074  0.74444805  1
  V  V1  1  0.12620943  -0.00134690  0.12578505  1
  V  V2  1  0.12519668  0.12393149  -0.00001902  1
  V  V3  1  0.87135254  0.11079482  0.25522810  1
  V  V4  1  0.25160505  0.74716784  -0.00291883  1
  V  V5  1  -0.00450308  0.00204167  0.50408247  1
  V  V6  1  0.87541290  0.37652791  0.49940007  1
  V  V7  1  0.87566874  0.25024889  0.13182312  1
  V  V8  1  0.37294911  0.37391233  0.00998681  1
  V  V9  1  0.36649596  0.50077652  0.87190344  1
  V  V10  1  0.75006609  0.62590827  0.37657114  1
  V  V11  1  -0.00103844  0.12392733  0.12782947  1
  V  V12  1  0.00739909  0.50495787  0.50493993  1
  V  V13  1  0.75030294  0.50163189  0.75148880  1
  V  V14  1  0.49776081  0.87759672  0.37861671  1
  V  V15  1  0.12158290  0.13138321  0.50606620  1
  V  V16  1  0.62547620  0.24465616  0.37776277  1
  V  V17  1  0.37006824  0.13376313  0.74441168  1
  V  V18  1  0.25398209  0.49778873  0.24068337  1
  V  V19  1  0.25349613  -0.00613732  0.74318883  1
  V  V20  1  0.49187229  0.24620762  0.25112561  1
  V  V21  1  0.62265283  0.51457928  0.12322299  1
  V  V22  1  0.12853137  0.87130748  0.74137713  1
  V  V23  1  0.35779038  0.87531164  0.50272593  1
  V  V24  1  0.37920143  0.87307558  -0.01152638  1
  V  V25  1  0.12489891  0.24774774  0.87346403  1
  V  V26  1  0.88465935  0.12020372  0.74801957  1
  V  V27  1  0.74966024  0.25032684  0.00169630  1
  V  V28  1  0.54843817  0.19273156  0.69122623  1
  V  V29  1  0.61501688  0.88021899  0.75950657  1
  V  V30  1  0.50197938  0.51103611  0.00371008  1
  V  V31  1  0.62816635  0.00260482  0.13153545  1
  V  V32  1  0.00307617  0.24842570  0.74713811  1
  V  V33  1  0.51047751  0.01556828  0.50899955  1
  V  V34  1  0.49399689  0.37439371  0.37771437  1
  V  V35  1  0.25244111  0.25704087  0.50096023  1
  V  V36  1  0.00008821  0.87132723  0.87382889  1
  V  V37  1  0.61722497  0.62739250  0.50317127  1
  V  V38  1  0.75108183  0.50040652  0.25062501  1
  V  V39  1  -0.00271193  0.50145181  0.00125132  1
  V  V40  1  0.13041173  0.37035346  0.26243698  1
  V  V41  1  0.75111125  0.11239966  0.37470399  1
  V  V42  1  0.12446758  0.62459431  0.00042511  1
  V  V43  1  -0.00638809  0.87652911  0.37063815  1
  V  V44  1  0.25406784  0.00438111  0.24882905  1
  V  V45  1  0.48963750  0.12444360  0.12861004  1
  V  V46  1  0.62974047  0.87857627  0.25156742  1
  V  V47  1  0.49135485  0.49930258  0.50398999  1
  V  V48  1  0.74921779  0.24565688  0.49817338  1
  V  V49  1  0.88387446  0.24702495  0.62167293  1
  V  V50  1  0.49672799  0.37067065  0.87658756  1
  V  V51  1  0.50026616  -0.00387358  -0.00439501  1
  V  V52  1  0.25454563  0.39011203  0.62507436  1
  V  V53  1  0.74912478  0.75057718  0.50160616  1
  V  V54  1  0.37386758  0.62207682  0.73500533  1
  V  V55  1  0.61802286  0.37808986  0.74848476  1
  V  V56  1  0.37436121  0.00779903  0.37349440  1
  V  V57  1  0.75450543  0.87909744  0.12216659  1
  V  V58  1  0.74254314  0.62504813  0.88068871  1
  V  V59  1  0.74612930  0.74851852  0.00150314  1
  V  V60  1  0.12540927  0.86124326  0.24880203  1
  V  V61  1  0.37239344  0.50279238  0.37751245  1
  V  V62  1  0.87283621  0.74770117  0.62638632  1
  V  V63  1  0.74078693  0.88274592  0.62566501  1
  V  V64  1  0.12647219  0.74724840  0.39379413  1
  V  V65  1  0.01441621  0.62353084  0.62674151  1
  V  V66  1  0.87448043  -0.00615573  0.87788714  1
  V  V67  1  0.75287916  0.12417971  0.87791458  1
  V  V68  1  0.87510457  0.50176587  0.37703321  1
  V  V69  1  0.62340870  0.75108355  0.37541329  1
  V  V70  1  0.62055336  0.50681101  0.62578186  1
  V  V71  1  0.38222842  0.62571126  0.24645175  1
  V  V72  1  0.62215004  0.24936696  0.87582939  1
  V  V73  1  0.24948719  0.25292062  0.00539948  1
  V  V74  1  0.38485688  0.74699728  0.12270949  1
  V  V75  1  -0.00223047  -0.00654448  0.00117711  1
  V  V76  1  0.25304576  0.87478200  0.12326872  1
  V  V77  1  0.12808432  0.49039404  0.12386662  1
  V  V78  1  0.74833809  0.37600726  0.12648177  1
  V  V79  1  0.24155637  0.13258471  0.37167625  1
  V  V80  1  0.62545582  0.37480089  0.25010086  1
  V  V81  1  0.62335474  0.12583547  0.00282189  1
  V  V82  1  0.88333329  0.63095045  0.25099607  1
  V  V83  1  0.87592800  0.37413283  0.00058352  1
  V  V84  1  0.88099239  0.75363677  0.12374179  1
  Zn  Zn85  1  0.61624794  0.75126132  0.88040040  1
  Zn  Zn86  1  0.37409467  0.75444124  0.61886747  1
  Zn  Zn87  1  0.36731044  0.24978167  0.13217720  1
  Zn  Zn88  1  0.37588287  0.25383285  0.62214717  1
  Zn  Zn89  1  0.24944767  0.63664343  0.37925273  1
  Zn  Zn90  1  0.50355901  0.74777825  0.24664421  1
  Zn  Zn91  1  0.37817634  -0.00129596  0.86852140  1
  Zn  Zn92  1  0.87169000  0.87914689  0.49657427  1
  Zn  Zn93  1  0.00470330  0.63085423  0.13034020  1
  Zn  Zn94  1  -0.00148024  0.37582636  0.87378758  1
  Zn  Zn95  1  0.74970940  0.00079915  0.74645216  1
  Zn  Zn96  1  0.75005480  0.37598857  0.62558707  1
  Zn  Zn97  1  -0.00032555  0.74838794  0.75057452  1
  Zn  Zn98  1  0.00941497  0.37307089  0.38089877  1
  Zn  Zn99  1  0.24528126  0.61849226  0.86848104  1
  Zn  Zn100  1  0.00618201  0.24753567  0.25916223  1
  Zn  Zn101  1  0.25335416  0.12173267  0.87508704  1
  Zn  Zn102  1  0.12491792  0.74933945  0.87453135  1
  Zn  Zn103  1  0.49915249  0.74469489  0.74805533  1
  Zn  Zn104  1  0.87411294  0.62542444  0.75166955  1
  Zn  Zn105  1  0.87330764  0.50064143  0.87598337  1
  Zn  Zn106  1  0.12654660  -0.00203789  0.62314841  1
  Zn  Zn107  1  0.18692459  0.18762518  0.18804282  1
  Zn  Zn108  1  0.19032312  0.18814024  0.68269838  1
  Zn  Zn109  1  0.19614429  0.68123670  0.18430021  1
  Zn  Zn110  1  0.19644070  0.69384179  0.69122986  1
  Zn  Zn111  1  0.68641817  0.18616305  0.19233272  1
  Zn  Zn112  1  0.71066242  0.18678210  0.68765810  1
  Zn  Zn113  1  0.69330354  0.69172146  0.19053166  1
  Zn  Zn114  1  0.68433756  0.69092645  0.69037421  1
  Zn  Zn115  1  0.30771516  0.31700885  0.31415032  1
  Zn  Zn116  1  0.30819176  0.31314918  0.81351095  1
  Zn  Zn117  1  0.31101611  0.81385822  0.31370426  1
  Zn  Zn118  1  0.31315813  0.80713002  0.80884729  1
  Zn  Zn119  1  0.81593923  0.31063726  0.31569839  1
  Zn  Zn120  1  0.81231895  0.31444363  0.81261345  1
  Zn  Zn121  1  0.81092777  0.81370901  0.30950578  1
  Zn  Zn122  1  0.80937240  0.81152817  0.81068203  1
  Zn  Zn123  1  0.20768237  0.46607234  0.45668111  1
  Zn  Zn124  1  0.18505252  0.43110049  0.93777363  1
  Zn  Zn125  1  0.18036819  0.94243359  0.43256731  1
  Zn  Zn126  1  0.18889691  0.93685552  0.93082275  1
  Zn  Zn127  1  0.68612756  0.43571752  0.43870423  1
  Zn  Zn128  1  0.68482253  0.43891982  0.93891410  1
  Zn  Zn129  1  0.68329630  0.93827064  0.44318206  1
  Zn  Zn130  1  0.68924881  0.93670130  0.94152143  1
  Zn  Zn131  1  0.31250890  0.06211931  0.05874824  1
  Zn  Zn132  1  0.31395878  0.06278052  0.56168420  1
  Zn  Zn133  1  0.31548168  0.56356436  0.06016311  1
  Zn  Zn134  1  0.27943355  0.60522563  0.57044775  1
  Zn  Zn135  1  0.81349715  0.06124405  0.06392020  1
  Zn  Zn136  1  0.81640992  0.06400187  0.55980593  1
  Zn  Zn137  1  0.81178553  0.56646892  0.06432096  1
  Zn  Zn138  1  0.81005460  0.56364391  0.56511032  1
  Zn  Zn139  1  0.44193138  0.43737183  0.18739048  1
  Zn  Zn140  1  0.43493813  0.43931178  0.68759002  1
  Zn  Zn141  1  0.43848062  0.93512110  0.18690871  1
  Zn  Zn142  1  0.43658975  0.94071340  0.67984463  1
  Zn  Zn143  1  0.94240813  0.43927626  0.18917103  1
  Zn  Zn144  1  0.93820411  0.43640529  0.68617369  1
  Zn  Zn145  1  0.93904640  0.93425212  0.18937611  1
  Zn  Zn146  1  0.93717384  0.93281381  0.68510237  1
  Zn  Zn147  1  0.06368070  0.05857776  0.31387818  1
  Zn  Zn148  1  0.06542750  0.05858591  0.81083111  1
  Zn  Zn149  1  0.06420506  0.56041699  0.31633061  1
  Zn  Zn150  1  0.05844570  0.56468303  0.81534348  1
  Zn  Zn151  1  0.56188692  0.06385993  0.31525698  1
  Zn  Zn152  1  0.56617548  0.05513120  0.81336149  1
  Zn  Zn153  1  0.56190795  0.56256629  0.31250493  1
  Zn  Zn154  1  0.55716415  0.56394339  0.81743891  1
  Zn  Zn155  1  0.42992339  0.18783689  0.43623764  1
  Zn  Zn156  1  0.43512090  0.18536003  0.93513372  1
  Zn  Zn157  1  0.43682595  0.69006603  0.43682076  1
  Zn  Zn158  1  0.44165900  0.68782853  0.92904337  1
  Zn  Zn159  1  0.94157522  0.18771710  0.43266753  1
  Zn  Zn160  1  0.93991278  0.18552431  0.93764381  1
  Zn  Zn161  1  0.94113308  0.69142588  0.43957278  1
  Zn  Zn162  1  0.92938915  0.68659772  0.93976945  1
  Zn  Zn163  1  0.06091799  0.31195933  0.06564581  1
  Zn  Zn164  1  0.06656238  0.31521030  0.56134642  1
  Zn  Zn165  1  0.06343828  0.81290883  0.06188748  1
  Zn  Zn166  1  0.05840106  0.81286375  0.56165221  1
  Zn  Zn167  1  0.55964086  0.31515901  0.06457059  1
  Zn  Zn168  1  0.56719435  0.31886547  0.55709809  1
  Zn  Zn169  1  0.56451116  0.81375183  0.06151431  1
  Zn  Zn170  1  0.55345784  0.81458515  0.56760872  1
  O  O171  1  0.11782341  0.11819891  0.12151836  1
  O  O172  1  0.12530086  0.12290613  0.60932091  1
  O  O173  1  0.12469819  0.61531022  0.11580767  1
  O  O174  1  0.11201766  0.62599610  0.63081587  1
  O  O175  1  0.61938205  0.11909527  0.12195608  1
  O  O176  1  0.61540501  0.14023266  0.64061733  1
  O  O177  1  0.63004669  0.61337994  0.13400768  1
  O  O178  1  0.62794034  0.61554938  0.61832744  1
  O  O179  1  0.38854926  0.38198729  0.36953801  1
  O  O180  1  0.38039625  0.38097196  0.88093432  1
  O  O181  1  0.38085525  0.88644477  0.37720183  1
  O  O182  1  0.37193700  0.87532084  0.88593813  1
  O  O183  1  0.87322584  0.38250918  0.38775573  1
  O  O184  1  0.87594292  0.37557305  0.88724521  1
  O  O185  1  0.88955531  0.87019121  0.37315788  1
  O  O186  1  0.88069977  0.88739516  0.86915365  1
  O  O187  1  0.25413746  0.00664292  0.36597905  1
  O  O188  1  0.25261018  0.00290104  0.86115935  1
  O  O189  1  0.27001052  0.48183918  0.35514411  1
  O  O190  1  0.26384185  0.49498398  0.88226619  1
  O  O191  1  0.74560232  0.01310262  0.38126227  1
  O  O192  1  0.75983238  0.00615410  0.87813860  1
  O  O193  1  0.75458350  0.50562908  0.37170418  1
  O  O194  1  0.74864326  0.50516880  0.86889489  1
  O  O195  1  0.24499094  0.50340923  0.13282151  1
  O  O196  1  0.25180948  0.48760918  0.62234407  1
  O  O197  1  0.24689874  0.99654377  0.13013512  1
  O  O198  1  0.24759424  1.00536357  0.63824167  1
  O  O199  1  0.74387486  0.49411051  0.12984838  1
  O  O200  1  0.73985561  0.49765069  0.63348722  1
  O  O201  1  0.74030803  0.99340435  0.12051868  1
  O  O202  1  0.75832232  0.98589743  0.62313973  1
  O  O203  1  0.01881279  0.38070673  0.25166190  1
  O  O204  1  0.00997671  0.36718263  0.75000305  1
  O  O205  1  0.01029679  0.88080772  0.26207031  1
  O  O206  1  0.00729590  0.87336774  0.75820925  1
  O  O207  1  0.50769429  0.36880816  0.25736570  1
  O  O208  1  0.51043267  0.38054512  0.75951871  1
  O  O209  1  0.51019084  0.87597781  0.25978840  1
  O  O210  1  0.51394778  0.88364772  0.74631651  1
  O  O211  1  0.50424172  0.13459604  0.24208870  1
  O  O212  1  0.49400277  0.12691287  0.75062041  1
  O  O213  1  0.48720748  0.62742211  0.25352919  1
  O  O214  1  0.47902284  0.61990318  0.75810007  1
  O  O215  1  0.98993734  0.12366149  0.24699660  1
  O  O216  1  0.99194568  0.13131457  0.75436144  1
  O  O217  1  0.98685826  0.61706677  0.24923541  1
  O  O218  1  0.99549666  0.62481774  0.73902426  1
  O  O219  1  0.36659180  0.25661210  -0.00003290  1
  O  O220  1  0.35775000  0.24881489  0.50124515  1
  O  O221  1  0.37083286  0.75433085  0.00451721  1
  O  O222  1  0.37829890  0.77234379  0.49046018  1
  O  O223  1  0.87156565  0.25209690  0.01201081  1
  O  O224  1  0.87314197  0.25580804  0.50600140  1
  O  O225  1  0.86121539  0.74687969  0.01254735  1
  O  O226  1  0.86544054  0.75242808  0.50551348  1
  O  O227  1  0.13008995  0.23771379  0.50140679  1
  O  O228  1  0.12866588  0.24696806  0.99350983  1
  O  O229  1  0.12573113  0.74990110  0.49250735  1
  O  O230  1  0.13313711  0.74131162  1.00139967  1
  O  O231  1  0.63641057  0.25436220  0.49043824  1
  O  O232  1  0.63064062  0.24642656  0.99732600  1
  O  O233  1  0.62726383  0.74376306  0.49703057  1
  O  O234  1  0.63934130  0.75422349  1.00079348  1
  O  O235  1  0.50011861  0.24181225  0.13446051  1
  O  O236  1  0.49779843  0.25394439  0.62519460  1
  O  O237  1  0.48865317  0.75485422  0.12643891  1
  O  O238  1  0.48836045  0.75396824  0.63225430  1
  O  O239  1  0.99198299  0.24224046  0.12987271  1
  O  O240  1  0.99180665  0.25328343  0.63085470  1
  O  O241  1  0.98608647  0.75081135  0.11929459  1
  O  O242  1  0.99183427  0.73754458  0.62271436  1
  O  O243  1  -0.00500855  0.26139621  0.37081854  1
  O  O244  1  0.00628053  0.25209049  0.86736442  1
  O  O245  1  0.01139955  0.76539331  0.38145145  1
  O  O246  1  -0.00380880  0.76241320  0.87865598  1
  O  O247  1  0.50506332  0.25507046  0.37138780  1
  O  O248  1  0.50584796  0.26244305  0.88218730  1
  O  O249  1  0.50679113  0.76048088  0.37208441  1
  O  O250  1  0.50400595  0.74990001  0.86488582  1
  O  O251  1  0.23895625  0.13140927  0.49389088  1
  O  O252  1  0.24209448  0.12996155  0.99615518  1
  O  O253  1  0.24402385  0.57407715  0.47222356  1
  O  O254  1  0.24197252  0.63108123  0.99886608  1
  O  O255  1  0.75920853  0.13800655  0.49128606  1
  O  O256  1  0.74440165  0.13129391  0.99738898  1
  O  O257  1  0.73807034  0.62891844  0.49537018  1
  O  O258  1  0.75073293  0.63288010  0.99326583  1
  O  O259  1  0.25920389  0.36503682  -0.00323092  1
  O  O260  1  0.23918220  0.37014223  0.51521959  1
  O  O261  1  0.25658896  0.86845478  0.00388424  1
  O  O262  1  0.25980193  0.88314348  0.49201320  1
  O  O263  1  0.75549138  0.36965991  0.00627416  1
  O  O264  1  0.75715550  0.36454151  0.50011761  1
  O  O265  1  0.74858790  0.86945966  0.01498473  1
  O  O266  1  0.74988545  0.87060229  0.50950731  1
  O  O267  1  0.13514520  0.49710425  0.24327541  1
  O  O268  1  0.12063696  0.48557889  0.75746455  1
  O  O269  1  0.13502999  0.99150913  0.24424575  1
  O  O270  1  0.13217559  0.99171682  0.74645411  1
  O  O271  1  0.63065088  0.49418239  0.24549960  1
  O  O272  1  0.62731415  0.49547632  0.74443205  1
  O  O273  1  0.62060839  0.99511823  0.23918992  1
  O  O274  1  0.63294183  0.98734068  0.75137125  1
  O  O275  1  0.36204083  -0.00590770  0.25524715  1
  O  O276  1  0.37006999  0.00757731  0.74900667  1
  O  O277  1  0.37283159  0.50636756  0.25033732  1
  O  O278  1  0.37806863  0.50162546  0.76787802  1
  O  O279  1  0.87425843  0.01252346  0.24572273  1
  O  O280  1  0.87723309  0.00659730  0.75651645  1
  O  O281  1  0.86942262  0.50502435  0.25593436  1
  O  O282  1  0.86208931  0.49616401  0.75163476  1
  O  O283  1  0.13121074  0.38476072  0.36203106  1
  O  O284  1  0.12352110  0.36272349  0.86429234  1
  O  O285  1  0.11952697  0.86483903  0.36679077  1
  O  O286  1  0.11497733  0.87272927  0.86666168  1
  O  O287  1  0.61877887  0.36624829  0.36888882  1
  O  O288  1  0.61828232  0.36898082  0.86877303  1
  O  O289  1  0.61977683  0.87259464  0.36858981  1
  O  O290  1  0.63153061  0.87546142  0.86272403  1
  O  O291  1  0.38666976  0.12695249  0.12151892  1
  O  O292  1  0.37336006  0.12962185  0.63915613  1
  O  O293  1  0.37031361  0.63526314  0.13227878  1
  O  O294  1  0.37901407  0.60102991  0.63785777  1
  O  O295  1  0.87703328  0.13122884  0.13539314  1
  O  O296  1  0.87144467  0.13474245  0.63551354  1
  O  O297  1  0.87570963  0.63393122  0.13480356  1
  O  O298  1  0.87293924  0.63756690  0.62710587  1
  O  O299  1  0.25067674  0.24327171  0.11067337  1
  O  O300  1  0.25033237  0.25860994  0.61590701  1
  O  O301  1  0.25954866  0.75384457  0.11348401  1
  O  O302  1  0.26738086  0.71313602  0.60813739  1
  O  O303  1  0.75607167  0.25520056  0.12243946  1
  O  O304  1  0.76405688  0.25495557  0.61640400  1
  O  O305  1  0.75680314  0.75862952  0.12086957  1
  O  O306  1  0.75410208  0.75806429  0.61979960  1
  O  O307  1  0.25257974  0.24229955  0.38136965  1
  O  O308  1  0.24032716  0.24687944  0.88431394  1
  O  O309  1  0.23221138  0.75286941  0.37116865  1
  O  O310  1  0.24996382  0.74695693  0.88851659  1
  O  O311  1  0.74342305  0.24495041  0.38086279  1
  O  O312  1  0.74409708  0.24440674  0.88012972  1
  O  O313  1  0.74341615  0.74715325  0.38207642  1
  O  O314  1  0.74951109  0.74381996  0.88480442  1
  O  O315  1  0.00579215  0.11587323  0.00664058  1
  O  O316  1  0.01085187  0.11339146  0.49089306  1
  O  O317  1  0.00621087  0.61842243  0.00257181  1
  O  O318  1  -0.00520296  0.61401349  0.51137328  1
  O  O319  1  0.50548348  0.12056269  0.00907819  1
  O  O320  1  0.49368020  0.11446203  0.49303716  1
  O  O321  1  0.49435215  0.60967792  -0.00115704  1
  O  O322  1  0.51153411  0.61726907  0.49218070  1
  O  O323  1  0.50697108  0.38595108  0.48768626  1
  O  O324  1  0.49180806  0.37969135  0.99388728  1
  O  O325  1  0.50031420  0.88669929  0.48610489  1
  O  O326  1  0.49102854  0.88454018  1.00776658  1
  O  O327  1  0.99094585  0.38577434  0.50410972  1
  O  O328  1  0.99328388  0.38204002  1.00100484  1
  O  O329  1  0.99892098  0.88546094  0.49053870  1
  O  O330  1  1.00516820  0.88696602  0.99303532  1
  O  O331  1  0.49311884  0.49269375  0.37774280  1
  O  O332  1  0.49357810  0.48854319  0.88578787  1
  O  O333  1  0.48967375  0.99661424  0.37514489  1
  O  O334  1  0.50011947  1.00438134  0.89203821  1
  O  O335  1  0.99315897  0.49885198  0.38863453  1
  O  O336  1  0.99676318  0.49762967  0.88898745  1
  O  O337  1  1.00876701  0.98428031  0.38482029  1
  O  O338  1  0.99562681  0.99111899  0.88141955  1
  O  O339  1  0.00381368  0.00252748  0.11787038  1
  O  O340  1  0.00211524  -0.00570474  0.60799130  1
  O  O341  1  0.00831367  0.50377496  0.11507810  1
  O  O342  1  -0.00952243  0.51383119  0.61675148  1
  O  O343  1  0.50581675  0.00745346  0.11962615  1
  O  O344  1  0.49916271  0.00262050  0.60789243  1
  O  O345  1  0.51003075  0.49530961  0.11563064  1
  O  O346  1  0.50977738  0.49134706  0.61568001  1
  O  O347  1  0.23927206  0.38041017  0.24301547  1
  O  O348  1  0.23551849  0.36983060  0.74151078  1
  O  O349  1  0.24367292  0.88182312  0.24269840  1
  O  O350  1  0.24169840  0.88052604  0.75406278  1
  O  O351  1  0.74626490  0.38019638  0.24701901  1
  O  O352  1  0.73671493  0.38317267  0.75264840  1
  O  O353  1  0.73701812  0.87327014  0.24175388  1
  O  O354  1  0.74515331  0.87731279  0.73750741  1
  O  O355  1  0.24406394  0.11656924  0.25732301  1
  O  O356  1  0.25871866  0.12064819  0.75161686  1
  O  O357  1  0.26051797  0.61457350  0.25550186  1
  O  O358  1  0.26622675  0.62016067  0.75543057  1
  O  O359  1  0.76276432  0.12902417  0.25789221  1
  O  O360  1  0.76630260  0.12199758  0.76021817  1
  O  O361  1  0.75921254  0.61929173  0.25809501  1
  O  O362  1  0.74879550  0.61404530  0.75482212  1
  O  O363  1  0.36039145  0.11369800  0.37685094  1
  O  O364  1  0.37512529  0.12166543  0.86114642  1
  O  O365  1  0.37441223  0.61805128  0.36717945  1
  O  O366  1  0.37066984  0.60618565  0.88220957  1
  O  O367  1  0.86757275  0.12825629  0.36162887  1
  O  O368  1  0.87447878  0.11547336  0.86953736  1
  O  O369  1  0.87103690  0.62298133  0.37041556  1
  O  O370  1  0.86139277  0.62090701  0.87173607  1
  O  O371  1  0.12297131  0.38762114  0.12885390  1
  O  O372  1  0.13129961  0.37322750  0.63910213  1
  O  O373  1  0.13134643  0.88100752  0.12901313  1
  O  O374  1  0.11939557  0.87373586  0.63767096  1
  O  O375  1  0.63089627  0.37959628  0.13327856  1
  O  O376  1  0.62792676  0.38369573  0.63347337  1
  O  O377  1  0.63014574  0.88349129  0.13305868  1
  O  O378  1  0.63823805  0.87293740  0.62979000  1
  O  O379  1  0.12599684  0.26658554  0.24533720  1
  O  O380  1  0.11541977  0.24778784  0.75489871  1
  O  O381  1  0.12898022  0.76078574  0.23835936  1
  O  O382  1  0.12327394  0.75564603  0.75499085  1
  O  O383  1  0.61641397  0.25638026  0.25695415  1
  O  O384  1  0.61855012  0.25338007  0.75005442  1
  O  O385  1  0.62406426  0.75899944  0.25624559  1
  O  O386  1  0.62555679  0.76704120  0.75153708  1
  O  O387  1  0.38774994  0.25695674  0.25039574  1
  O  O388  1  0.37177123  0.23769168  0.75042225  1
  O  O389  1  0.37453546  0.74394349  0.24143361  1
  O  O390  1  0.37309512  0.73369275  0.74513227  1
  O  O391  1  0.87539620  0.24594521  0.23926387  1
  O  O392  1  0.88542649  0.24658991  0.74486279  1
  O  O393  1  0.86861580  0.74048390  0.24067679  1
  O  O394  1  0.87782575  0.74868523  0.74107087  1
  O  O395  1  0.38972599  0.50261229  0.49006091  1
  O  O396  1  0.38175862  0.49090702  0.99531830  1
  O  O397  1  0.37928089  0.99283857  0.48992601  1
  O  O398  1  0.38241355  0.99059129  0.99920964  1
  O  O399  1  0.87684816  0.49319985  0.49755342  1
  O  O400  1  0.88213403  0.49349948  1.00412303  1
  O  O401  1  0.89093209  1.00057332  0.49762582  1
  O  O402  1  0.88647112  1.00632173  0.99137584  1
  O  O403  1  0.11954911  0.00413031  0.00441638  1
  O  O404  1  0.11724323  0.00971777  0.50223108  1
  O  O405  1  0.11973315  0.50337777  0.00515644  1
  O  O406  1  0.10403128  0.49133221  0.50365537  1
  O  O407  1  0.61825620  0.00370959  0.01088282  1
  O  O408  1  0.61006354  0.00697838  0.49376035  1
  O  O409  1  0.61366071  0.49462507  0.01015172  1
  O  O410  1  0.61953799  0.50705723  0.50714652  1
  O  O411  1  0.38066638  0.37133910  0.11333819  1
  O  O412  1  0.35880855  0.37207780  0.63518577  1
  O  O413  1  0.36947272  0.86769233  0.11757508  1
  O  O414  1  0.37104587  0.87923372  0.60620807  1
  O  O415  1  0.87145672  0.36803296  0.12139642  1
  O  O416  1  0.87264663  0.36844141  0.61525920  1
  O  O417  1  0.86558728  0.86778167  0.13371472  1
  O  O418  1  0.86682710  0.86349774  0.62197961  1
  O  O419  1  0.13567893  0.11900955  0.38410783  1
  O  O420  1  0.12300972  0.13491105  0.88031462  1
  O  O421  1  0.12009986  0.64645106  0.36709432  1
  O  O422  1  0.12588810  0.62589437  0.88739437  1
  O  O423  1  0.63459866  0.13842566  0.36616558  1
  O  O424  1  0.62999472  0.13076959  0.88128297  1
  O  O425  1  0.62996345  0.63038926  0.38118991  1
  O  O426  1  0.63815535  0.62639162  0.87037073  1
