# generated using pymatgen
data_V85Zn86O256
_symmetry_space_group_name_H-M   'P 1'
_cell_length_a   16.95784080
_cell_length_b   16.94843491
_cell_length_c   16.94616555
_cell_angle_alpha   89.94776637
_cell_angle_beta   89.99413894
_cell_angle_gamma   90.02640611
_symmetry_Int_Tables_number   1
_chemical_formula_structural   V85Zn86O256
_chemical_formula_sum   'V85 Zn86 O256'
_cell_volume   4870.47557183
_cell_formula_units_Z   1
loop_
 _symmetry_equiv_pos_site_id
 _symmetry_equiv_pos_as_xyz
  1  'x, y, z'
loop_
 _atom_site_type_symbol
 _atom_site_label
 _atom_site_symmetry_multiplicity
 _atom_site_fract_x
 _atom_site_fract_y
 _atom_site_fract_z
 _atom_site_occupancy
  V  V0  1  0.76412096  0.50978528  0.25867309  1
  V  V1  1  0.26633628  0.62696732  0.37528849  1
  V  V2  1  0.74850620  0.87782702  0.12510932  1
  V  V3  1  0.24925269  0.37454955  0.12685150  1
  V  V4  1  0.25226563  0.87465753  0.12972690  1
  V  V5  1  0.25664224  0.61699331  0.87692491  1
  V  V6  1  0.75863752  0.00779127  0.24887022  1
  V  V7  1  -0.00660489  0.75651642  0.25461815  1
  V  V8  1  0.12815852  0.00400499  0.62873056  1
  V  V9  1  0.62924963  0.37788615  0.24713902  1
  V  V10  1  0.62904554  0.87184206  0.73793166  1
  V  V11  1  0.24854942  0.86788115  0.61631158  1
  V  V12  1  0.11817515  0.37069749  0.75293267  1
  V  V13  1  0.12442457  0.62322780  0.00213180  1
  V  V14  1  0.00187560  0.87409980  0.87809624  1
  V  V15  1  0.75234019  -0.00441914  0.73811258  1
  V  V16  1  0.24783100  0.37605599  0.62446502  1
  V  V17  1  0.37022497  0.74746064  0.61024186  1
  V  V18  1  0.38087989  0.73845055  0.12742661  1
  V  V19  1  0.87457170  0.62459893  0.75177961  1
  V  V20  1  0.49950230  0.61999643  0.62212046  1
  V  V21  1  0.11762068  0.24271477  0.88105667  1
  V  V22  1  0.12982931  0.75414959  0.37495660  1
  V  V23  1  0.25518526  0.49374527  0.75550020  1
  V  V24  1  0.26492734  0.50255355  0.25572429  1
  V  V25  1  0.62231283  0.88141966  0.25008173  1
  V  V26  1  0.76743335  0.12689996  0.37200110  1
  V  V27  1  -0.00528375  0.24669434  0.25357466  1
  V  V28  1  0.88100128  0.25766976  0.62506766  1
  V  V29  1  0.75426641  0.37723091  0.11795633  1
  V  V30  1  0.73780323  0.12093634  0.87528183  1
  V  V31  1  0.49985712  0.73898246  0.24874559  1
  V  V32  1  -0.05665519  0.54875481  0.44359732  1
  V  V33  1  0.24780030  0.24370286  0.50199528  1
  V  V34  1  0.87549152  0.25024858  0.12459866  1
  V  V35  1  0.24084426  0.23739943  0.00199537  1
  V  V36  1  0.00378323  0.00643979  0.00140424  1
  V  V37  1  0.49632725  0.24544289  0.75050395  1
  V  V38  1  0.36734217  0.00362335  0.86039432  1
  V  V39  1  0.36987918  0.37527412  -0.01162538  1
  V  V40  1  0.87185074  0.49572535  0.88041759  1
  V  V41  1  0.50620839  0.00963831  -0.00695226  1
  V  V42  1  0.37755573  0.87672084  -0.00004223  1
  V  V43  1  0.86307374  0.76152041  0.62853398  1
  V  V44  1  0.37494905  0.24448552  0.63001633  1
  V  V45  1  0.00156724  0.12416175  0.12967400  1
  V  V46  1  0.87553422  0.87378101  0.00092781  1
  V  V47  1  0.74908972  0.75034765  0.00072991  1
  V  V48  1  0.37360942  0.38045892  0.49611738  1
  V  V49  1  0.49402567  0.74862420  0.74779306  1
  V  V50  1  0.00239249  0.12726471  0.62154511  1
  V  V51  1  0.87804410  0.13160504  0.75024025  1
  V  V52  1  0.49675599  0.37946013  0.37396041  1
  V  V53  1  0.13083403  0.00341462  0.12463541  1
  V  V54  1  -0.00686496  0.62546499  0.13326323  1
  V  V55  1  0.13182674  0.62630902  0.49694990  1
  V  V56  1  -0.00346747  0.49574620  0.00300440  1
  V  V57  1  0.63283092  0.62492098  0.49239109  1
  V  V58  1  0.61906926  0.62521127  0.00885876  1
  V  V59  1  0.49466724  0.50223378  0.00736183  1
  V  V60  1  0.87460221  0.00142974  0.87536810  1
  V  V61  1  -0.00915863  0.37570383  0.38706016  1
  V  V62  1  0.12621946  0.74710561  0.87664924  1
  V  V63  1  0.49784508  0.38314121  0.87457229  1
  V  V64  1  -0.00634409  0.37059550  0.87657939  1
  V  V65  1  0.12691395  0.24290156  0.37967968  1
  V  V66  1  0.75845526  0.26000633  0.49943179  1
  V  V67  1  0.62319797  0.25045268  0.88004517  1
  V  V68  1  0.49822229  0.89208792  0.37863752  1
  V  V69  1  0.00298647  -0.00859142  0.49572403  1
  V  V70  1  0.37389572  0.11891933  0.25464188  1
  V  V71  1  0.75394009  0.24648267  -0.00072986  1
  V  V72  1  0.49913321  0.87362379  0.87121157  1
  V  V73  1  0.11834524  0.50139101  0.62239287  1
  V  V74  1  0.25060943  0.74811310  0.00259041  1
  V  V75  1  0.12504553  0.50062275  0.12861224  1
  V  V76  1  0.00231867  0.74802638  0.74863848  1
  V  V77  1  0.50142616  0.25035403  0.24576108  1
  V  V78  1  0.63000119  0.24736951  0.37277837  1
  V  V79  1  0.12447545  0.37611012  0.25536767  1
  V  V80  1  0.74793788  0.62383560  0.87696321  1
  V  V81  1  0.13331057  0.87761200  0.75216595  1
  V  V82  1  0.62449207  0.37520509  0.73922206  1
  V  V83  1  0.37490585  0.24811403  0.12192142  1
  V  V84  1  0.62304495  0.74781182  0.87373815  1
  Zn  Zn85  1  0.50609976  0.12805056  0.11882186  1
  Zn  Zn86  1  0.62700663  0.12294113  0.50348135  1
  Zn  Zn87  1  0.62630302  0.49850281  0.62222795  1
  Zn  Zn88  1  0.74681365  0.49730339  0.75044004  1
  Zn  Zn89  1  0.63014145  0.01141869  0.11536449  1
  Zn  Zn90  1  0.47871671  0.08435435  0.58246064  1
  Zn  Zn91  1  0.62604392  0.50355936  0.12664189  1
  Zn  Zn92  1  0.62426774  0.00150510  0.61349002  1
  Zn  Zn93  1  0.12575697  0.87629316  0.25547712  1
  Zn  Zn94  1  0.25540309  -0.00548411  0.26300913  1
  Zn  Zn95  1  0.74790658  0.75592438  0.48703701  1
  Zn  Zn96  1  -0.00277336  0.62378731  0.61984171  1
  Zn  Zn97  1  0.62926553  0.75014597  0.37036874  1
  Zn  Zn98  1  0.37401550  0.90800670  0.48585312  1
  Zn  Zn99  1  0.25266909  0.11517498  0.38393094  1
  Zn  Zn100  1  0.88603744  -0.00588903  0.36785244  1
  Zn  Zn101  1  0.37587938  0.61789324  0.75146891  1
  Zn  Zn102  1  0.87031261  0.74551549  0.13111551  1
  Zn  Zn103  1  0.86508665  0.88288498  0.49476248  1
  Zn  Zn104  1  0.49831353  0.50149647  0.49474160  1
  Zn  Zn105  1  0.75764703  0.37905565  0.62157372  1
  Zn  Zn106  1  0.24093127  0.11255586  0.86570414  1
  Zn  Zn107  1  0.18565524  0.18567931  0.19084434  1
  Zn  Zn108  1  0.18319082  0.18796267  0.69237729  1
  Zn  Zn109  1  0.18851628  0.68659155  0.19314686  1
  Zn  Zn110  1  0.18932531  0.68421751  0.68804815  1
  Zn  Zn111  1  0.68634033  0.18447423  0.18564610  1
  Zn  Zn112  1  0.68905685  0.18676670  0.68457941  1
  Zn  Zn113  1  0.68790962  0.69054840  0.19234830  1
  Zn  Zn114  1  0.68448593  0.68207910  0.68665938  1
  Zn  Zn115  1  0.31244207  0.30911017  0.31239487  1
  Zn  Zn116  1  0.29243148  0.27800285  0.79960556  1
  Zn  Zn117  1  0.31923156  0.81046936  0.31507545  1
  Zn  Zn118  1  0.31382940  0.80994156  0.81190077  1
  Zn  Zn119  1  0.81362537  0.31793340  0.30889193  1
  Zn  Zn120  1  0.81080730  0.31213766  0.81109607  1
  Zn  Zn121  1  0.80996947  0.81899482  0.32205222  1
  Zn  Zn122  1  0.81218648  0.81298049  0.81324671  1
  Zn  Zn123  1  0.18704190  0.44024130  0.43712577  1
  Zn  Zn124  1  0.18432835  0.43240778  0.93868328  1
  Zn  Zn125  1  0.18564836  0.94172175  0.44157510  1
  Zn  Zn126  1  0.18835228  0.93633271  0.94215064  1
  Zn  Zn127  1  0.68705540  0.43955725  0.43659479  1
  Zn  Zn128  1  0.68389348  0.43618713  0.93864323  1
  Zn  Zn129  1  0.68790479  0.94077681  0.44194018  1
  Zn  Zn130  1  0.68653748  0.93444327  0.92955189  1
  Zn  Zn131  1  0.31648974  0.06173698  0.05963632  1
  Zn  Zn132  1  0.30393170  0.06225889  0.57180938  1
  Zn  Zn133  1  0.31215966  0.55789561  0.06375634  1
  Zn  Zn134  1  0.31021027  0.56088482  0.56246963  1
  Zn  Zn135  1  0.81532535  0.06584764  0.06196811  1
  Zn  Zn136  1  0.81479169  0.06904716  0.55820270  1
  Zn  Zn137  1  0.81062951  0.56210635  0.06468892  1
  Zn  Zn138  1  0.80768389  0.56508092  0.56981607  1
  Zn  Zn139  1  0.43910026  0.43307182  0.18258665  1
  Zn  Zn140  1  0.43614826  0.43245817  0.68563233  1
  Zn  Zn141  1  0.44183703  0.93744176  0.18236735  1
  Zn  Zn142  1  0.42540633  0.94587166  0.66237974  1
  Zn  Zn143  1  0.93678308  0.43285070  0.19040900  1
  Zn  Zn144  1  0.93776177  0.44043984  0.69197050  1
  Zn  Zn145  1  0.93664561  0.93377430  0.18749967  1
  Zn  Zn146  1  0.94328089  0.93968607  0.69008715  1
  Zn  Zn147  1  0.06759313  0.06193981  0.31022394  1
  Zn  Zn148  1  0.05879837  0.06250933  0.80932370  1
  Zn  Zn149  1  0.06912796  0.56683680  0.31030127  1
  Zn  Zn150  1  0.06442186  0.55889068  0.81359929  1
  Zn  Zn151  1  0.56726426  0.06536074  0.30776353  1
  Zn  Zn152  1  0.54427094  0.04611973  0.77474973  1
  Zn  Zn153  1  0.56563579  0.55904782  0.31137334  1
  Zn  Zn154  1  0.56110235  0.56068323  0.81376775  1
  Zn  Zn155  1  0.43540805  0.19510510  0.43257478  1
  Zn  Zn156  1  0.43166441  0.18808536  0.92971883  1
  Zn  Zn157  1  0.44698180  0.69410420  0.43555697  1
  Zn  Zn158  1  0.43609180  0.68625447  0.93858731  1
  Zn  Zn159  1  0.94157022  0.18552542  0.44368290  1
  Zn  Zn160  1  0.93298841  0.18586023  0.94024292  1
  Zn  Zn161  1  0.93533324  0.71248843  0.43514914  1
  Zn  Zn162  1  0.93713504  0.68532072  0.94048007  1
  Zn  Zn163  1  0.06109127  0.31409666  0.06421811  1
  Zn  Zn164  1  0.06271471  0.31078284  0.56360011  1
  Zn  Zn165  1  0.06371792  0.81333451  0.06815331  1
  Zn  Zn166  1  0.06280630  0.80978872  0.56376400  1
  Zn  Zn167  1  0.56411135  0.31346642  0.06034611  1
  Zn  Zn168  1  0.54961229  0.27915224  0.54854974  1
  Zn  Zn169  1  0.56275968  0.81540434  0.06393068  1
  Zn  Zn170  1  0.56023446  0.81089967  0.55818839  1
  O  O171  1  0.11349322  0.11796161  0.12774143  1
  O  O172  1  0.11635068  0.11576742  0.63710616  1
  O  O173  1  0.11763548  0.61960705  0.12097173  1
  O  O174  1  0.12411989  0.61892016  0.61652499  1
  O  O175  1  0.61957871  0.12443351  0.12165100  1
  O  O176  1  0.62571969  0.12156628  0.62256810  1
  O  O177  1  0.62730409  0.62672564  0.11116794  1
  O  O178  1  0.61435740  0.62277285  0.61720555  1
  O  O179  1  0.38497634  0.36465072  0.38259936  1
  O  O180  1  0.38064234  0.36720102  0.88642336  1
  O  O181  1  0.39067725  0.87706007  0.37454200  1
  O  O182  1  0.37855267  0.87852118  0.88218231  1
  O  O183  1  0.89233350  0.37144488  0.37350257  1
  O  O184  1  0.88072345  0.38384848  0.87172246  1
  O  O185  1  0.88275726  0.88032322  0.37901826  1
  O  O186  1  0.88279527  0.88027272  0.88045273  1
  O  O187  1  0.25143381  0.00258683  0.37650079  1
  O  O188  1  0.26082400  -0.00267778  0.87887819  1
  O  O189  1  0.24768172  0.51224424  0.36698493  1
  O  O190  1  0.24172873  0.50529723  0.86895582  1
  O  O191  1  0.75272966  0.01300738  0.36503475  1
  O  O192  1  0.75695723  0.00683799  0.87121305  1
  O  O193  1  0.74911131  0.49293353  0.35729980  1
  O  O194  1  0.75720334  0.50392993  0.87663341  1
  O  O195  1  0.24330114  0.49410023  0.13294119  1
  O  O196  1  0.23881178  0.49489619  0.63364030  1
  O  O197  1  0.24490711  0.99343190  0.12273390  1
  O  O198  1  0.23402392  0.99015771  0.62924510  1
  O  O199  1  0.74828901  0.48998072  0.12790454  1
  O  O200  1  0.74502496  0.49409161  0.63195457  1
  O  O201  1  0.75093306  0.99553228  0.12791158  1
  O  O202  1  0.75395431  1.00416582  0.63651984  1
  O  O203  1  0.00844031  0.36808057  0.25829798  1
  O  O204  1  0.00587523  0.38246951  0.76614657  1
  O  O205  1  0.00743137  0.86006150  0.24042033  1
  O  O206  1  0.00904523  0.86556851  0.75813757  1
  O  O207  1  0.50835643  0.36942438  0.25218791  1
  O  O208  1  0.50624368  0.37205943  0.75945646  1
  O  O209  1  0.50754367  0.87446852  0.25331559  1
  O  O210  1  0.50793333  0.86270474  0.75600424  1
  O  O211  1  0.49039324  0.13278260  0.24606674  1
  O  O212  1  0.49465322  0.14808873  0.76751108  1
  O  O213  1  0.50946490  0.64002582  0.25003011  1
  O  O214  1  0.49830553  0.63062094  0.74382900  1
  O  O215  1  1.00406632  0.13459112  0.24302628  1
  O  O216  1  0.98574329  0.11807608  0.74008682  1
  O  O217  1  1.00722691  0.63669563  0.24146707  1
  O  O218  1  0.99281837  0.63271958  0.75508385  1
  O  O219  1  0.36507838  0.25432357  0.00391902  1
  O  O220  1  0.36563587  0.26066409  0.50886213  1
  O  O221  1  0.37209185  0.76018143  0.00450552  1
  O  O222  1  0.38103020  0.75500071  0.51059911  1
  O  O223  1  0.86197643  0.25010332  0.00605839  1
  O  O224  1  0.87134576  0.24712164  0.51164190  1
  O  O225  1  0.86831491  0.75659729  0.00120935  1
  O  O226  1  0.87518205  0.75254701  0.52049387  1
  O  O227  1  0.13524581  0.25670664  0.49147310  1
  O  O228  1  0.12880045  0.25189604  0.99596906  1
  O  O229  1  0.11713810  0.73540753  0.49314023  1
  O  O230  1  0.13038074  0.74438083  0.99698838  1
  O  O231  1  0.64079885  0.25122122  0.48591765  1
  O  O232  1  0.63327392  0.25448290  0.98651310  1
  O  O233  1  0.62198074  0.73548771  0.49846842  1
  O  O234  1  0.62689534  0.74420748  0.99399708  1
  O  O235  1  0.49072339  0.25193509  0.12676434  1
  O  O236  1  0.49075265  0.25864660  0.64342094  1
  O  O237  1  0.49291351  0.75734733  0.13579187  1
  O  O238  1  0.49220731  0.74028302  0.63104041  1
  O  O239  1  0.99583738  0.24464917  0.13164189  1
  O  O240  1  0.99495491  0.24064275  0.62276109  1
  O  O241  1  1.00053926  0.74150593  0.13475180  1
  O  O242  1  0.99520613  0.74616732  0.63887088  1
  O  O243  1  0.00628597  0.25660745  0.37150041  1
  O  O244  1  0.00244933  0.26224861  0.88840263  1
  O  O245  1  0.01184111  0.74761653  0.36059637  1
  O  O246  1  0.00501143  0.75308463  0.86890356  1
  O  O247  1  0.51137672  0.25905327  0.36365314  1
  O  O248  1  0.50481640  0.26138889  0.87265091  1
  O  O249  1  0.50570622  0.75875143  0.35871769  1
  O  O250  1  0.50299901  0.75191319  0.86712950  1
  O  O251  1  0.25391684  0.13930368  0.50231479  1
  O  O252  1  0.25183931  0.13559193  0.99352104  1
  O  O253  1  0.24420715  0.62022090  0.48639089  1
  O  O254  1  0.24383944  0.62625136  0.99524485  1
  O  O255  1  0.75224803  0.13785021  0.48703604  1
  O  O256  1  0.75483983  0.13319259  0.98797987  1
  O  O257  1  0.73492458  0.63018414  0.50758978  1
  O  O258  1  0.74186895  0.63056279  0.99578707  1
  O  O259  1  0.25508332  0.37185715  0.00982544  1
  O  O260  1  0.25462658  0.36960779  0.50403001  1
  O  O261  1  0.25834372  0.86831701  0.00917240  1
  O  O262  1  0.25814892  0.88045879  0.51394156  1
  O  O263  1  0.74506410  0.36683706  0.01109676  1
  O  O264  1  0.74978740  0.36394405  0.49956262  1
  O  O265  1  0.75317116  0.87101345  0.00479393  1
  O  O266  1  0.75201374  0.86957510  0.49895814  1
  O  O267  1  0.13185035  0.49146752  0.24642520  1
  O  O268  1  0.13286126  0.49018691  0.74687378  1
  O  O269  1  0.12982217  0.99572073  0.23803418  1
  O  O270  1  0.11723387  0.98724327  0.74438690  1
  O  O271  1  0.62906818  0.48776032  0.24593179  1
  O  O272  1  0.62417066  0.48891269  0.74973083  1
  O  O273  1  0.63612659  0.99377959  0.24436821  1
  O  O274  1  0.63994688  0.98507740  0.75851336  1
  O  O275  1  0.37631386  0.01690766  0.23811292  1
  O  O276  1  0.37262307  -0.00943198  0.76304507  1
  O  O277  1  0.36333611  0.49216564  0.24376087  1
  O  O278  1  0.35896448  0.49674196  0.74636845  1
  O  O279  1  0.86315129  -0.00273718  0.24764517  1
  O  O280  1  0.86988968  0.00423752  0.75702616  1
  O  O281  1  0.86369477  0.49805448  0.24576913  1
  O  O282  1  0.87451600  0.50933422  0.76297620  1
  O  O283  1  0.11972670  0.36896755  0.36713527  1
  O  O284  1  0.11174483  0.37063073  0.87157072  1
  O  O285  1  0.13587155  0.85815004  0.37750425  1
  O  O286  1  0.12110031  0.86857219  0.87140656  1
  O  O287  1  0.62199121  0.36585815  0.36593843  1
  O  O288  1  0.61635286  0.36822719  0.86892071  1
  O  O289  1  0.61532665  0.87640800  0.36192167  1
  O  O290  1  0.61833419  0.86340257  0.86745039  1
  O  O291  1  0.37828824  0.13652525  0.12725116  1
  O  O292  1  0.37344308  0.14273871  0.62728504  1
  O  O293  1  0.37213917  0.63976445  0.11621771  1
  O  O294  1  0.37909710  0.63066399  0.62671552  1
  O  O295  1  0.88872260  0.13753311  0.12039892  1
  O  O296  1  0.88169770  0.13394675  0.63256477  1
  O  O297  1  0.88958945  0.62731941  0.11775169  1
  O  O298  1  0.87722918  0.63290712  0.64046809  1
  O  O299  1  0.25318191  0.25396094  0.11936863  1
  O  O300  1  0.25249648  0.25858870  0.61910031  1
  O  O301  1  0.25646451  0.75577288  0.12147316  1
  O  O302  1  0.25696056  0.75395610  0.62694888  1
  O  O303  1  0.75828864  0.25268792  0.11844384  1
  O  O304  1  0.76106368  0.25310947  0.61609027  1
  O  O305  1  0.75036404  0.75948719  0.11960280  1
  O  O306  1  0.76319879  0.74847905  0.63309682  1
  O  O307  1  0.24252989  0.24991467  0.38436818  1
  O  O308  1  0.22942141  0.26634375  0.89372527  1
  O  O309  1  0.24625723  0.73508444  0.36703178  1
  O  O310  1  0.24485788  0.74134005  0.88276669  1
  O  O311  1  0.74986418  0.24693527  0.37678410  1
  O  O312  1  0.74352341  0.24515533  0.88166591  1
  O  O313  1  0.74282853  0.74586830  0.37073475  1
  O  O314  1  0.74360180  0.74475357  0.88155500  1
  O  O315  1  -0.00365779  0.11155425  0.00643919  1
  O  O316  1  0.00027725  0.11536062  0.51584970  1
  O  O317  1  0.00636132  0.61445921  0.00547484  1
  O  O318  1  0.00448712  0.61908342  0.49780079  1
  O  O319  1  0.49353565  0.11140202  -0.00706077  1
  O  O320  1  0.51062064  0.16249500  0.50806173  1
  O  O321  1  0.50639137  0.61442997  -0.00736619  1
  O  O322  1  0.50556487  0.62269274  0.50708366  1
  O  O323  1  0.49217174  0.36956823  0.49024001  1
  O  O324  1  0.49227060  0.38041113  0.99351838  1
  O  O325  1  0.50054110  0.87300236  0.48141246  1
  O  O326  1  0.49338243  0.87925542  0.99068390  1
  O  O327  1  1.00530024  0.37391250  0.48569238  1
  O  O328  1  1.00231302  0.38933276  0.99615055  1
  O  O329  1  0.99777387  0.88927183  0.50940493  1
  O  O330  1  0.99637614  0.88277540  0.99818856  1
  O  O331  1  0.50337441  0.48349639  0.37338328  1
  O  O332  1  0.50085760  0.48822139  0.88433024  1
  O  O333  1  0.50180582  0.99101090  0.36793749  1
  O  O334  1  0.48962296  0.99272551  0.87663315  1
  O  O335  1  1.00365713  0.49025516  0.37543794  1
  O  O336  1  0.99333937  0.49399124  0.88453443  1
  O  O337  1  1.00666897  1.00800119  0.39201843  1
  O  O338  1  0.99710690  0.99508761  0.88436248  1
  O  O339  1  0.00519621  0.00620989  0.12148878  1
  O  O340  1  0.00867009  0.00575108  0.62142384  1
  O  O341  1  0.00319462  0.50485697  0.12160473  1
  O  O342  1  0.01449847  0.50469062  0.63523179  1
  O  O343  1  0.50069571  -0.00021321  0.10280129  1
  O  O344  1  0.51449821  0.01259409  0.66492819  1
  O  O345  1  0.50504090  0.49451915  0.11148525  1
  O  O346  1  0.49816943  0.51138789  0.62531718  1
  O  O347  1  0.24260751  0.37884389  0.24725082  1
  O  O348  1  0.23947409  0.37717151  0.74620664  1
  O  O349  1  0.25490544  0.87506358  0.23870885  1
  O  O350  1  0.23579927  0.86491876  0.74692271  1
  O  O351  1  0.74528317  0.37929024  0.23721385  1
  O  O352  1  0.73717474  0.37403534  0.74943159  1
  O  O353  1  0.74232546  0.88289771  0.24036533  1
  O  O354  1  0.74196636  0.88235919  0.75542069  1
  O  O355  1  0.26520742  0.12552208  0.24823884  1
  O  O356  1  0.25892442  0.16880476  0.76970820  1
  O  O357  1  0.24928125  0.61503724  0.26254991  1
  O  O358  1  0.24826556  0.61297217  0.76030533  1
  O  O359  1  0.75066888  0.11915053  0.25739027  1
  O  O360  1  0.75933156  0.11672440  0.75733085  1
  O  O361  1  0.74584044  0.60793063  0.24225528  1
  O  O362  1  0.75752846  0.62374060  0.75927737  1
  O  O363  1  0.37345521  0.13429965  0.35821963  1
  O  O364  1  0.37160690  0.10585441  0.87684919  1
  O  O365  1  0.36500647  0.62976661  0.38149103  1
  O  O366  1  0.36000125  0.62575569  0.87517856  1
  O  O367  1  0.86997705  0.12274780  0.37531421  1
  O  O368  1  0.86905779  0.12059730  0.86730631  1
  O  O369  1  0.89029619  0.61345016  0.39059626  1
  O  O370  1  0.86993045  0.62010638  0.86862639  1
  O  O371  1  0.12766520  0.37898476  0.13754829  1
  O  O372  1  0.12632517  0.38113518  0.63367164  1
  O  O373  1  0.13793337  0.88187333  0.12582877  1
  O  O374  1  0.13072560  0.87645446  0.63378809  1
  O  O375  1  0.63473524  0.37399958  0.13112638  1
  O  O376  1  0.62000329  0.37087434  0.63632115  1
  O  O377  1  0.63610638  0.88236525  0.12705897  1
  O  O378  1  0.61915445  0.87514246  0.63575393  1
  O  O379  1  0.11697432  0.25822359  0.25593425  1
  O  O380  1  0.11929370  0.26534543  0.76172734  1
  O  O381  1  0.11943931  0.75255888  0.25815940  1
  O  O382  1  0.11779326  0.75193355  0.75664869  1
  O  O383  1  0.62440075  0.26153379  0.25278499  1
  O  O384  1  0.61544449  0.25666989  0.75967077  1
  O  O385  1  0.61431116  0.76366657  0.24318021  1
  O  O386  1  0.61655890  0.75232953  0.75335878  1
  O  O387  1  0.37928381  0.24471036  0.23879308  1
  O  O388  1  0.39013635  0.26800828  0.74322768  1
  O  O389  1  0.39089955  0.75231149  0.24138452  1
  O  O390  1  0.38588277  0.74351682  0.74843021  1
  O  O391  1  0.88823230  0.25425925  0.24276118  1
  O  O392  1  0.86970401  0.23850530  0.74410406  1
  O  O393  1  0.89096693  0.75334998  0.24940752  1
  O  O394  1  0.88209631  0.74470926  0.74715902  1
  O  O395  1  0.37666910  0.48458344  0.50463363  1
  O  O396  1  0.38107141  0.48801337  1.00460124  1
  O  O397  1  0.39554936  0.99870893  0.55219901  1
  O  O398  1  0.38293611  0.98872781  0.99315533  1
  O  O399  1  0.88366839  0.50248838  0.50889722  1
  O  O400  1  0.88185697  0.50627100  0.98869143  1
  O  O401  1  0.89172527  1.00189080  0.50333554  1
  O  O402  1  0.88304614  0.99381601  0.99518607  1
  O  O403  1  0.11687689  -0.00509933  0.01328072  1
  O  O404  1  0.11333049  -0.00326900  0.51444540  1
  O  O405  1  0.11740858  0.50303394  0.00849233  1
  O  O406  1  0.12878951  0.51077982  0.50985368  1
  O  O407  1  0.60854396  -0.00544581  -0.00931975  1
  O  O408  1  0.61971689  0.00846984  0.49875279  1
  O  O409  1  0.61622560  0.50866654  0.00061072  1
  O  O410  1  0.62075900  0.50987837  0.50183922  1
  O  O411  1  0.36967736  0.36232780  0.11674511  1
  O  O412  1  0.36678380  0.36832701  0.61762659  1
  O  O413  1  0.36993615  0.86966840  0.11625633  1
  O  O414  1  0.35981108  0.85823422  0.63853337  1
  O  O415  1  0.86975911  0.36088041  0.12586401  1
  O  O416  1  0.87867220  0.36158509  0.63561195  1
  O  O417  1  0.86322909  0.87283381  0.11861134  1
  O  O418  1  0.87825171  0.86178355  0.63457778  1
  O  O419  1  0.12977368  0.14033061  0.36852031  1
  O  O420  1  0.11973770  0.13888661  0.87105178  1
  O  O421  1  0.13371396  0.63247777  0.38150700  1
  O  O422  1  0.13230394  0.62838239  0.88213364  1
  O  O423  1  0.63399384  0.14039756  0.36757795  1
  O  O424  1  0.63630261  0.13390969  0.86608773  1
  O  O425  1  0.61785926  0.62447043  0.38993545  1
  O  O426  1  0.62926352  0.63011718  0.88189147  1
