# generated using pymatgen
data_V85Zn86O256
_symmetry_space_group_name_H-M   'P 1'
_cell_length_a   16.91937580
_cell_length_b   16.91233217
_cell_length_c   16.91168895
_cell_angle_alpha   89.96139402
_cell_angle_beta   90.00162786
_cell_angle_gamma   90.02605189
_symmetry_Int_Tables_number   1
_chemical_formula_structural   V85Zn86O256
_chemical_formula_sum   'V85 Zn86 O256'
_cell_volume   4839.21230063
_cell_formula_units_Z   1
loop_
 _symmetry_equiv_pos_site_id
 _symmetry_equiv_pos_as_xyz
  1  'x, y, z'
loop_
 _atom_site_type_symbol
 _atom_site_label
 _atom_site_symmetry_multiplicity
 _atom_site_fract_x
 _atom_site_fract_y
 _atom_site_fract_z
 _atom_site_occupancy
  V  V0  1  0.74692882  0.13380704  0.87397893  1
  V  V1  1  0.37500128  0.75677356  0.12059315  1
  V  V2  1  -0.00399513  0.50109707  -0.00542206  1
  V  V3  1  -0.00114604  0.00968544  -0.01173874  1
  V  V4  1  0.12667342  0.62671841  0.00044248  1
  V  V5  1  0.37178412  0.74288866  0.62369137  1
  V  V6  1  0.24577934  0.12341181  0.87725938  1
  V  V7  1  0.37602454  0.86414299  0.49778013  1
  V  V8  1  0.24971880  0.62383079  0.87476439  1
  V  V9  1  0.25023388  0.24660397  0.00188390  1
  V  V10  1  -0.00168914  0.24830009  0.75013180  1
  V  V11  1  0.37683228  0.49520187  0.88303340  1
  V  V12  1  0.11991810  0.24447958  0.37310126  1
  V  V13  1  0.37695045  -0.00378830  0.37671417  1
  V  V14  1  0.12424354  0.00044549  0.12267977  1
  V  V15  1  0.75505236  0.13463173  0.37715973  1
  V  V16  1  0.75235227  0.37892253  0.13207933  1
  V  V17  1  0.24550592  0.12220353  0.38153274  1
  V  V18  1  0.50635809  -0.00029028  0.50878905  1
  V  V19  1  0.87691104  0.87596695  0.49790464  1
  V  V20  1  0.37544638  0.39543926  0.49172761  1
  V  V21  1  0.25167066  0.37775433  0.62455998  1
  V  V22  1  0.87567678  0.11904597  0.75475077  1
  V  V23  1  0.87363878  0.61735583  0.75286356  1
  V  V24  1  0.11352220  0.49845355  0.62083127  1
  V  V25  1  0.87947096  0.75323442  0.12510402  1
  V  V26  1  0.37740714  0.62165675  0.74928309  1
  V  V27  1  0.11929781  0.87465194  0.74827188  1
  V  V28  1  0.00544908  0.00208003  0.49868222  1
  V  V29  1  0.75015402  0.87829004  0.13317168  1
  V  V30  1  0.74584171  0.88457731  0.62303368  1
  V  V31  1  0.87444141  0.24365990  0.13940629  1
  V  V32  1  0.87005550  0.24654328  0.61880982  1
  V  V33  1  -0.00277621  0.75118687  0.75147955  1
  V  V34  1  0.63026106  0.75767939  0.36486475  1
  V  V35  1  0.24943126  0.24603443  0.50195995  1
  V  V36  1  0.62252457  0.50111557  0.61309104  1
  V  V37  1  0.51483584  0.36929168  0.87627725  1
  V  V38  1  -0.00226914  0.37076530  0.36868923  1
  V  V39  1  0.87275885  0.74865046  0.62406898  1
  V  V40  1  0.63049324  0.50479449  0.11915686  1
  V  V41  1  0.87953701  0.37950814  0.50348975  1
  V  V42  1  0.62342921  -0.00032972  0.13615156  1
  V  V43  1  -0.00481994  0.37531780  0.87630774  1
  V  V44  1  0.62744426  0.38128536  0.25533660  1
  V  V45  1  0.62283397  0.25375257  0.38834050  1
  V  V46  1  0.13668030  0.75211171  0.37867362  1
  V  V47  1  0.62321430  0.87971545  0.74748660  1
  V  V48  1  0.37625382  0.12836593  0.74950648  1
  V  V49  1  0.75193206  0.61944327  0.88049406  1
  V  V50  1  0.51441084  0.25377029  0.75076067  1
  V  V51  1  0.87386636  0.37328033  -0.00172526  1
  V  V52  1  0.87341960  0.61934559  0.24810186  1
  V  V53  1  0.12355177  0.49859960  0.13003276  1
  V  V54  1  0.49287767  0.87397649  0.87951493  1
  V  V55  1  0.12340408  0.37465868  0.75074433  1
  V  V56  1  0.50609550  0.62330521  0.61782764  1
  V  V57  1  0.74056937  0.49577260  0.75293861  1
  V  V58  1  0.87532640  0.00353431  0.36451402  1
  V  V59  1  0.50533961  0.62848639  0.11383442  1
  V  V60  1  0.50146581  0.74866933  0.75085325  1
  V  V61  1  0.12096399  0.75119428  0.87180597  1
  V  V62  1  0.87808748  0.88353771  -0.01337548  1
  V  V63  1  0.74464912  0.37132066  0.62413359  1
  V  V64  1  0.74708977  0.61907807  0.37588872  1
  V  V65  1  0.75201753  -0.00273501  0.76071763  1
  V  V66  1  0.12489043  0.62076562  0.49191111  1
  V  V67  1  0.50120291  0.12734171  0.12791775  1
  V  V68  1  0.00253988  0.12747855  0.13796875  1
  V  V69  1  0.87997921  0.50140996  0.37722396  1
  V  V70  1  0.62424340  0.13053500  -0.00266036  1
  V  V71  1  0.37365098  0.12601648  0.25256979  1
  V  V72  1  0.50494612  0.75502458  0.24635420  1
  V  V73  1  0.00788707  0.12483925  0.62157735  1
  V  V74  1  0.74914846  0.75087815  0.00002539  1
  V  V75  1  0.24950735  0.49775374  0.75087413  1
  V  V76  1  0.62497101  0.74515918  0.87777067  1
  V  V77  1  0.25328645  0.76095793  -0.00370610  1
  V  V78  1  0.12248730  0.24781638  0.88262989  1
  V  V79  1  0.25023926  0.87083449  0.62065531  1
  V  V80  1  0.74376147  0.74590768  0.49970733  1
  V  V81  1  0.49814532  0.25683127  0.25887427  1
  V  V82  1  0.25151391  0.37448933  0.12788459  1
  V  V83  1  0.49531396  -0.00152922  0.00101893  1
  V  V84  1  0.25050161  -0.00085326  0.74856377  1
  Zn  Zn85  1  0.25011309  -0.00470341  0.24806886  1
  Zn  Zn86  1  0.00135142  0.74970449  0.25557279  1
  Zn  Zn87  1  0.25305512  0.87920163  0.12204111  1
  Zn  Zn88  1  0.74726930  0.25098286  0.00023609  1
  Zn  Zn89  1  0.50584973  0.87441069  0.37147882  1
  Zn  Zn90  1  0.63281002  0.12376313  0.50774123  1
  Zn  Zn91  1  -0.00528227  0.61955604  0.62072315  1
  Zn  Zn92  1  0.12943252  0.00257201  0.61845927  1
  Zn  Zn93  1  -0.00080816  0.62514503  0.12509597  1
  Zn  Zn94  1  0.49840274  0.41811221  0.38406218  1
  Zn  Zn95  1  0.37590255  0.25148560  0.12640268  1
  Zn  Zn96  1  0.37446154  0.62283111  0.26947978  1
  Zn  Zn97  1  0.00127368  0.87368305  0.36938440  1
  Zn  Zn98  1  0.50811303  0.50270450  -0.00393457  1
  Zn  Zn99  1  0.12247165  0.36890455  0.24914202  1
  Zn  Zn100  1  0.12711199  0.87091541  0.24620661  1
  Zn  Zn101  1  0.74953182  0.00627940  0.25053725  1
  Zn  Zn102  1  0.37047930  -0.00508905  0.87947155  1
  Zn  Zn103  1  0.25898926  0.50207746  0.27418434  1
  Zn  Zn104  1  0.37781571  0.25340299  0.62462630  1
  Zn  Zn105  1  0.37862736  0.37127882  0.00015125  1
  Zn  Zn106  1  0.50608776  0.12313984  0.62848081  1
  Zn  Zn107  1  0.18538178  0.18406225  0.18995531  1
  Zn  Zn108  1  0.18789347  0.19013393  0.69015003  1
  Zn  Zn109  1  0.18826634  0.68957541  0.18914039  1
  Zn  Zn110  1  0.18756829  0.68191551  0.68047921  1
  Zn  Zn111  1  0.68675219  0.19116292  0.19386634  1
  Zn  Zn112  1  0.68617998  0.18314445  0.68335471  1
  Zn  Zn113  1  0.69283662  0.68666416  0.18773562  1
  Zn  Zn114  1  0.68825543  0.68751025  0.68865123  1
  Zn  Zn115  1  0.31034356  0.31685311  0.31611108  1
  Zn  Zn116  1  0.31553827  0.31149122  0.81390904  1
  Zn  Zn117  1  0.31373098  0.80768105  0.30716422  1
  Zn  Zn118  1  0.31053259  0.81072905  0.80916485  1
  Zn  Zn119  1  0.81011254  0.31319299  0.31563557  1
  Zn  Zn120  1  0.81188576  0.31149289  0.80939470  1
  Zn  Zn121  1  0.81637821  0.81193521  0.31184781  1
  Zn  Zn122  1  0.81194744  0.80972370  0.81170777  1
  Zn  Zn123  1  0.17924967  0.43235318  0.44238047  1
  Zn  Zn124  1  0.18692093  0.43609721  0.94238598  1
  Zn  Zn125  1  0.18982343  0.93327944  0.43730796  1
  Zn  Zn126  1  0.17673887  0.93975838  0.93511723  1
  Zn  Zn127  1  0.69313203  0.43656316  0.44000532  1
  Zn  Zn128  1  0.69177918  0.43612589  0.93969604  1
  Zn  Zn129  1  0.69061224  0.93909652  0.43397777  1
  Zn  Zn130  1  0.68272223  0.93862401  0.94143317  1
  Zn  Zn131  1  0.31333304  0.06583981  0.06243697  1
  Zn  Zn132  1  0.31854072  0.05997278  0.56344982  1
  Zn  Zn133  1  0.31492295  0.56238702  0.12907148  1
  Zn  Zn134  1  0.30087605  0.57921535  0.44160231  1
  Zn  Zn135  1  0.81300596  0.06354089  0.06256125  1
  Zn  Zn136  1  0.81392157  0.06198079  0.56055906  1
  Zn  Zn137  1  0.81317791  0.56102529  0.06178688  1
  Zn  Zn138  1  0.81048139  0.56064019  0.56192795  1
  Zn  Zn139  1  0.44227005  0.43838237  0.18700534  1
  Zn  Zn140  1  0.43891950  0.43643737  0.68810087  1
  Zn  Zn141  1  0.43614515  0.93543930  0.18781492  1
  Zn  Zn142  1  0.43402618  0.93612134  0.68993708  1
  Zn  Zn143  1  0.93669151  0.43830732  0.18803576  1
  Zn  Zn144  1  0.93101911  0.43494554  0.69253602  1
  Zn  Zn145  1  0.94254217  0.93567980  0.18483185  1
  Zn  Zn146  1  0.93610519  0.93785060  0.68582879  1
  Zn  Zn147  1  0.06407258  0.05930313  0.31086786  1
  Zn  Zn148  1  0.06520290  0.06165428  0.80837835  1
  Zn  Zn149  1  0.05889989  0.56337277  0.31402641  1
  Zn  Zn150  1  0.05977135  0.56240999  0.81159588  1
  Zn  Zn151  1  0.56238858  0.06797286  0.31979664  1
  Zn  Zn152  1  0.56369799  0.06189894  0.81300533  1
  Zn  Zn153  1  0.57187255  0.57071234  0.29489921  1
  Zn  Zn154  1  0.56422625  0.56090628  0.81177742  1
  Zn  Zn155  1  0.43396113  0.18801191  0.44137813  1
  Zn  Zn156  1  0.43549695  0.18706984  0.93562199  1
  Zn  Zn157  1  0.47193763  0.63224947  0.41438524  1
  Zn  Zn158  1  0.43543659  0.68423542  0.94181262  1
  Zn  Zn159  1  0.93589018  0.18685965  0.43895138  1
  Zn  Zn160  1  0.93242303  0.18749001  0.94051562  1
  Zn  Zn161  1  0.94316359  0.68697121  0.43828406  1
  Zn  Zn162  1  0.93547308  0.68932184  0.93570221  1
  Zn  Zn163  1  0.06033640  0.30963924  0.06469963  1
  Zn  Zn164  1  0.06192595  0.30967182  0.55742482  1
  Zn  Zn165  1  0.05976531  0.81826225  0.05879633  1
  Zn  Zn166  1  0.06155781  0.80632629  0.56013562  1
  Zn  Zn167  1  0.56328163  0.31309861  0.06577773  1
  Zn  Zn168  1  0.55548205  0.32118742  0.56569801  1
  Zn  Zn169  1  0.56660258  0.81624541  0.06232443  1
  Zn  Zn170  1  0.56188077  0.81020637  0.55994686  1
  O  O171  1  0.10995311  0.12215244  0.12536303  1
  O  O172  1  0.11185751  0.12479979  0.63100742  1
  O  O173  1  0.12046105  0.61858788  0.11451443  1
  O  O174  1  0.11795262  0.61299465  0.62234282  1
  O  O175  1  0.61991718  0.11967108  0.12229686  1
  O  O176  1  0.61977336  0.12326152  0.61947034  1
  O  O177  1  0.62329124  0.61546169  0.12986881  1
  O  O178  1  0.62106425  0.61135894  0.63429504  1
  O  O179  1  0.37605120  0.37964201  0.38744095  1
  O  O180  1  0.38278988  0.38148342  0.87714131  1
  O  O181  1  0.37618392  0.87909752  0.38224952  1
  O  O182  1  0.38891890  0.87410509  0.86788922  1
  O  O183  1  0.87694996  0.37974957  0.38345132  1
  O  O184  1  0.88246925  0.36745142  0.88464361  1
  O  O185  1  0.87455347  0.88409391  0.38345538  1
  O  O186  1  0.87036117  0.87338588  0.88806525  1
  O  O187  1  0.26073078  0.00533697  0.37754560  1
  O  O188  1  0.24843145  0.00726104  0.87104837  1
  O  O189  1  0.24089417  0.50227488  0.38320503  1
  O  O190  1  0.25657309  0.50273045  0.87227762  1
  O  O191  1  0.75800095  0.00859080  0.37154280  1
  O  O192  1  0.74588539  0.00516955  0.86499571  1
  O  O193  1  0.76215059  0.50941537  0.38074262  1
  O  O194  1  0.74551398  0.50987796  0.86955735  1
  O  O195  1  0.23633112  0.48216866  0.10588896  1
  O  O196  1  0.23420430  0.48423998  0.63354103  1
  O  O197  1  0.23848939  1.00226745  0.11975186  1
  O  O198  1  0.24969759  0.99144317  0.63001033  1
  O  O199  1  0.74769655  0.48719739  0.12314561  1
  O  O200  1  0.74014664  0.49539667  0.63186068  1
  O  O201  1  0.74271678  0.99670005  0.12827923  1
  O  O202  1  0.75465823  0.98852407  0.63399358  1
  O  O203  1  -0.00094506  0.37528062  0.26400369  1
  O  O204  1  0.00141118  0.36788398  0.75790947  1
  O  O205  1  0.00669732  0.86994356  0.25022783  1
  O  O206  1  0.00769848  0.86668241  0.74317548  1
  O  O207  1  0.50608555  0.37118109  0.25807422  1
  O  O208  1  0.49753981  0.36226841  0.76122192  1
  O  O209  1  0.49695065  0.86106454  0.25204386  1
  O  O210  1  0.50740808  0.87022245  0.75594283  1
  O  O211  1  0.49029772  0.13220642  0.25010829  1
  O  O212  1  0.49367893  0.13611490  0.75548299  1
  O  O213  1  0.49936084  0.63910805  0.23095516  1
  O  O214  1  0.49619062  0.63110275  0.74744462  1
  O  O215  1  0.99756458  0.12212566  0.23683919  1
  O  O216  1  0.99220838  0.12711501  0.74373338  1
  O  O217  1  0.98752866  0.62752912  0.24598227  1
  O  O218  1  0.98917696  0.63024377  0.74837156  1
  O  O219  1  0.36499301  0.24899465  0.00365721  1
  O  O220  1  0.36298546  0.25569105  0.50358493  1
  O  O221  1  0.36228959  0.75079857  0.00001083  1
  O  O222  1  0.38289119  0.76245108  0.51271700  1
  O  O223  1  0.87290213  0.26076239  0.01051305  1
  O  O224  1  0.87543598  0.25474536  0.51410336  1
  O  O225  1  0.86799797  0.76102204  0.00326435  1
  O  O226  1  0.86698721  0.75855600  0.50292050  1
  O  O227  1  0.13960138  0.25343874  0.49049334  1
  O  O228  1  0.12879572  0.25163892  0.98831095  1
  O  O229  1  0.12266144  0.74042473  0.48783508  1
  O  O230  1  0.12479126  0.74486658  0.99191707  1
  O  O231  1  0.61537732  0.25558488  0.49048818  1
  O  O232  1  0.62738692  0.23522432  1.00848521  1
  O  O233  1  0.63957472  0.75486101  0.49206568  1
  O  O234  1  0.64118704  0.75703310  0.99277737  1
  O  O235  1  0.50061751  0.24603308  0.14137925  1
  O  O236  1  0.49770457  0.25247501  0.64065048  1
  O  O237  1  0.49937148  0.74839357  0.12492523  1
  O  O238  1  0.49570044  0.74606669  0.63409861  1
  O  O239  1  0.98937353  0.23704182  0.12144686  1
  O  O240  1  0.99371240  0.24256386  0.62903393  1
  O  O241  1  0.98707713  0.74851109  0.11911524  1
  O  O242  1  0.99088458  0.74813998  0.63559655  1
  O  O243  1  0.00829317  0.25428739  0.38149871  1
  O  O244  1  0.00617874  0.25147780  0.87231219  1
  O  O245  1  0.00893504  0.75452459  0.37481229  1
  O  O246  1  0.00370442  0.74673534  0.86025649  1
  O  O247  1  0.50584216  0.24438365  0.36675474  1
  O  O248  1  0.49683394  0.26123061  0.86714959  1
  O  O249  1  0.51689129  0.74296787  0.36330105  1
  O  O250  1  0.50706922  0.75448566  0.87333759  1
  O  O251  1  0.25693158  0.13118530  0.49341738  1
  O  O252  1  0.25127582  0.13583872  0.99133751  1
  O  O253  1  0.22387363  0.62603184  0.51483851  1
  O  O254  1  0.23435148  0.63520379  0.99154636  1
  O  O255  1  0.74921838  0.11856177  0.48462908  1
  O  O256  1  0.74407123  0.12437931  0.99093714  1
  O  O257  1  0.75744195  0.63544869  0.49027973  1
  O  O258  1  0.75832499  0.63567920  0.99101440  1
  O  O259  1  0.25049054  0.36014939  0.00360556  1
  O  O260  1  0.25748280  0.36829491  0.50817925  1
  O  O261  1  0.24175991  0.86397308  -0.00475084  1
  O  O262  1  0.25904345  0.87794885  0.51328031  1
  O  O263  1  0.75787846  0.37111820  0.00849552  1
  O  O264  1  0.76119744  0.37721396  0.51553448  1
  O  O265  1  0.76033427  0.87307204  0.00575347  1
  O  O266  1  0.75810016  0.87278104  0.50673031  1
  O  O267  1  0.12082500  0.50052456  0.23524117  1
  O  O268  1  0.13016754  0.49270506  0.74764959  1
  O  O269  1  0.12800443  1.00047587  0.23559692  1
  O  O270  1  0.13060759  0.99058673  0.74401342  1
  O  O271  1  0.62618265  0.48720795  0.23756516  1
  O  O272  1  0.63743954  0.49997931  0.74521521  1
  O  O273  1  0.62089995  1.00454595  0.23960851  1
  O  O274  1  0.63188375  0.98643263  0.75375538  1
  O  O275  1  0.37556610  0.00744207  0.25901471  1
  O  O276  1  0.36877791  0.00751639  0.75512914  1
  O  O277  1  0.36805281  0.51126916  0.22652162  1
  O  O278  1  0.36913413  0.50254775  0.75799839  1
  O  O279  1  0.87623198  -0.00337392  0.26186008  1
  O  O280  1  0.86629053  0.00736151  0.74764087  1
  O  O281  1  0.87683230  0.50792300  0.25882563  1
  O  O282  1  0.86350100  0.51190772  0.74612242  1
  O  O283  1  0.11311581  0.36440259  0.37544101  1
  O  O284  1  0.11741861  0.36753042  0.87133710  1
  O  O285  1  0.12405582  0.86281147  0.37594363  1
  O  O286  1  0.12920544  0.86711228  0.85682237  1
  O  O287  1  0.62117029  0.37450490  0.37200645  1
  O  O288  1  0.61385383  0.37604176  0.87702806  1
  O  O289  1  0.62800577  0.86244765  0.37460201  1
  O  O290  1  0.61864219  0.86520451  0.86933803  1
  O  O291  1  0.38171867  0.12765730  0.13650602  1
  O  O292  1  0.38013347  0.12632102  0.63849064  1
  O  O293  1  0.39179061  0.64321270  0.10893880  1
  O  O294  1  0.38664559  0.63294690  0.63347322  1
  O  O295  1  0.87931929  0.13737974  0.12447682  1
  O  O296  1  0.87892309  0.13009235  0.63387287  1
  O  O297  1  0.87364685  0.63302294  0.13076260  1
  O  O298  1  0.87251694  0.63086692  0.63315807  1
  O  O299  1  0.24678525  0.25636292  0.11884729  1
  O  O300  1  0.24839305  0.26011073  0.62025869  1
  O  O301  1  0.25777962  0.75167656  0.11218061  1
  O  O302  1  0.26302769  0.75565901  0.63221277  1
  O  O303  1  0.76054166  0.25605312  0.12609175  1
  O  O304  1  0.75832551  0.25907928  0.63482474  1
  O  O305  1  0.75869549  0.75752897  0.11707711  1
  O  O306  1  0.75379079  0.75694194  0.61833288  1
  O  O307  1  0.24580313  0.24156212  0.38319393  1
  O  O308  1  0.24265701  0.24460519  0.88109686  1
  O  O309  1  0.23608193  0.75232314  0.37470785  1
  O  O310  1  0.24332770  0.74355112  0.87745553  1
  O  O311  1  0.74162950  0.24270244  0.37718986  1
  O  O312  1  0.75079069  0.23807398  0.87520226  1
  O  O313  1  0.74925441  0.74506879  0.38114993  1
  O  O314  1  0.74388497  0.74355947  0.88067635  1
  O  O315  1  -0.01057258  0.11284313  0.00844450  1
  O  O316  1  -0.00635238  0.11557994  0.51048867  1
  O  O317  1  0.00629130  0.61798245  -0.00260081  1
  O  O318  1  0.01396895  0.62810419  0.50719493  1
  O  O319  1  0.50586918  0.12174251  0.00505877  1
  O  O320  1  0.49473237  0.10847189  0.50201596  1
  O  O321  1  0.50966941  0.62602384  0.00745237  1
  O  O322  1  0.51098064  0.63665328  0.51993040  1
  O  O323  1  0.48074870  0.37906696  0.49882924  1
  O  O324  1  0.49993546  0.37375492  0.98840325  1
  O  O325  1  0.49407235  0.88240254  0.49592149  1
  O  O326  1  0.50728770  0.88521523  0.99032132  1
  O  O327  1  0.98619476  0.36920870  0.49148544  1
  O  O328  1  0.99405771  0.38026770  0.99604626  1
  O  O329  1  0.98740886  0.88037521  0.50354506  1
  O  O330  1  0.98538997  0.88847822  1.00099273  1
  O  O331  1  0.50353290  0.52904378  0.37209004  1
  O  O332  1  0.49626522  0.48715592  0.87300540  1
  O  O333  1  0.48915044  0.99821023  0.38167753  1
  O  O334  1  0.50029817  0.99102637  0.88252207  1
  O  O335  1  0.98798346  0.49046341  0.37458645  1
  O  O336  1  1.00297848  0.49314382  0.88675085  1
  O  O337  1  0.99311087  0.99986924  0.38181157  1
  O  O338  1  1.00296499  1.00843291  0.88859424  1
  O  O339  1  0.00282911  0.01240732  0.11821240  1
  O  O340  1  0.00019134  0.00829373  0.61760351  1
  O  O341  1  0.00658616  0.49914371  0.11269501  1
  O  O342  1  0.01034282  0.49575479  0.63564087  1
  O  O343  1  0.50518603  0.00514535  0.12013605  1
  O  O344  1  0.49497302  -0.00364763  0.61182515  1
  O  O345  1  0.51124469  0.50981569  0.11980303  1
  O  O346  1  0.51483730  0.50597848  0.63320494  1
  O  O347  1  0.24579404  0.37952833  0.24088334  1
  O  O348  1  0.24423972  0.37611327  0.74484740  1
  O  O349  1  0.24765700  0.87772215  0.24235710  1
  O  O350  1  0.24458905  0.87918890  0.73973939  1
  O  O351  1  0.74113118  0.37078083  0.24364939  1
  O  O352  1  0.75920389  0.38535286  0.73863136  1
  O  O353  1  0.75617868  0.87838205  0.23626157  1
  O  O354  1  0.74520457  0.87997377  0.74489803  1
  O  O355  1  0.26160120  0.12287538  0.25790248  1
  O  O356  1  0.25624749  0.12031014  0.75515041  1
  O  O357  1  0.25943218  0.61134175  0.22364546  1
  O  O358  1  0.25529086  0.61753295  0.75465723  1
  O  O359  1  0.74307114  0.12467276  0.26975227  1
  O  O360  1  0.75471379  0.11641564  0.75586287  1
  O  O361  1  0.76515563  0.63013176  0.25987763  1
  O  O362  1  0.75509107  0.61921541  0.75878824  1
  O  O363  1  0.36690825  0.11712879  0.37115089  1
  O  O364  1  0.36259744  0.12454479  0.86586090  1
  O  O365  1  0.36687249  0.64534232  0.38081588  1
  O  O366  1  0.37091488  0.61695206  0.86897488  1
  O  O367  1  0.86400411  0.12051920  0.37740413  1
  O  O368  1  0.86729257  0.12964829  0.86180979  1
  O  O369  1  0.87225017  0.61801621  0.37010179  1
  O  O370  1  0.86321766  0.63037578  0.86610172  1
  O  O371  1  0.12834152  0.37953829  0.12711704  1
  O  O372  1  0.12725336  0.37723552  0.62985594  1
  O  O373  1  0.12611675  0.88665715  0.12234983  1
  O  O374  1  0.13329496  0.87093880  0.63141318  1
  O  O375  1  0.63380599  0.37828149  0.13338696  1
  O  O376  1  0.63184611  0.38718928  0.62343431  1
  O  O377  1  0.63771625  0.88789715  0.11741339  1
  O  O378  1  0.63419486  0.86748118  0.63441042  1
  O  O379  1  0.13054520  0.24948559  0.26764824  1
  O  O380  1  0.11826558  0.25549930  0.76045449  1
  O  O381  1  0.12303553  0.74627873  0.26339242  1
  O  O382  1  0.11611300  0.75305208  0.75004468  1
  O  O383  1  0.61736354  0.26218338  0.26069429  1
  O  O384  1  0.61253477  0.24643130  0.75282162  1
  O  O385  1  0.62167720  0.75028867  0.25295304  1
  O  O386  1  0.62313261  0.75959971  0.75839727  1
  O  O387  1  0.38079075  0.24455160  0.25341274  1
  O  O388  1  0.38051227  0.24171407  0.74848179  1
  O  O389  1  0.38441290  0.74620664  0.23667583  1
  O  O390  1  0.38142708  0.74385820  0.74338013  1
  O  O391  1  0.87457652  0.25408348  0.23789472  1
  O  O392  1  0.88154885  0.24202449  0.74081184  1
  O  O393  1  0.87676918  0.74428315  0.23929856  1
  O  O394  1  0.87876651  0.74216990  0.74535804  1
  O  O395  1  0.36623975  0.49279945  0.50297646  1
  O  O396  1  0.38019941  0.49977904  0.98573089  1
  O  O397  1  0.38314959  0.98841470  0.49446312  1
  O  O398  1  0.39027441  1.00746535  0.99794503  1
  O  O399  1  0.87413882  0.49066758  0.49436540  1
  O  O400  1  0.88313549  0.48565390  1.00617064  1
  O  O401  1  0.88307428  0.99257933  0.49325557  1
  O  O402  1  0.88227067  0.99114722  1.00175980  1
  O  O403  1  0.10719583  -0.00231189  0.00690548  1
  O  O404  1  0.11008146  -0.00796106  0.50023453  1
  O  O405  1  0.11693998  0.50783229  0.00451278  1
  O  O406  1  0.11903773  0.50709348  0.51011833  1
  O  O407  1  0.61528284  0.01077273  0.00924358  1
  O  O408  1  0.60827586  -0.00299849  0.49192319  1
  O  O409  1  0.62702771  0.49473285  0.01399612  1
  O  O410  1  0.62969643  0.50166400  0.51422109  1
  O  O411  1  0.36617514  0.37160916  0.12049608  1
  O  O412  1  0.36587272  0.37654251  0.61846487  1
  O  O413  1  0.37607158  0.86309931  0.12058450  1
  O  O414  1  0.36875075  0.86596942  0.62238188  1
  O  O415  1  0.87054231  0.36587978  0.12219077  1
  O  O416  1  0.87073318  0.36726374  0.62015157  1
  O  O417  1  0.86913469  0.86993339  0.11550883  1
  O  O418  1  0.86573004  0.86918739  0.61861051  1
  O  O419  1  0.13792176  0.12620763  0.37298667  1
  O  O420  1  0.13749979  0.13335397  0.86661997  1
  O  O421  1  0.12081194  0.63129055  0.38463814  1
  O  O422  1  0.12842649  0.63093106  0.87867217  1
  O  O423  1  0.63253322  0.13584008  0.38389008  1
  O  O424  1  0.63370229  0.11976843  0.88484614  1
  O  O425  1  0.64366522  0.63628127  0.36530142  1
  O  O426  1  0.63288454  0.63810483  0.86999787  1
