# generated using pymatgen
data_V85Zn86O256
_symmetry_space_group_name_H-M   'P 1'
_cell_length_a   16.92980327
_cell_length_b   16.92398507
_cell_length_c   16.93034053
_cell_angle_alpha   90.01487755
_cell_angle_beta   90.02221505
_cell_angle_gamma   90.02398209
_symmetry_Int_Tables_number   1
_chemical_formula_structural   V85Zn86O256
_chemical_formula_sum   'V85 Zn86 O256'
_cell_volume   4850.87577665
_cell_formula_units_Z   1
loop_
 _symmetry_equiv_pos_site_id
 _symmetry_equiv_pos_as_xyz
  1  'x, y, z'
loop_
 _atom_site_type_symbol
 _atom_site_label
 _atom_site_symmetry_multiplicity
 _atom_site_fract_x
 _atom_site_fract_y
 _atom_site_fract_z
 _atom_site_occupancy
  V  V0  1  0.37233376  0.87824863  0.49805934  1
  V  V1  1  0.37494115  0.37834661  0.50156778  1
  V  V2  1  0.00027601  0.12367754  0.12029866  1
  V  V3  1  0.36889934  0.75215645  0.11157535  1
  V  V4  1  0.74846980  0.38285718  0.62436602  1
  V  V5  1  0.75679066  0.24488290  0.50831101  1
  V  V6  1  0.75248788  0.13086490  0.37765399  1
  V  V7  1  0.62706403  0.24824858  0.88866410  1
  V  V8  1  0.49617364  0.62060284  0.12187702  1
  V  V9  1  -0.00361513  0.62353310  0.13292268  1
  V  V10  1  0.25019492  -0.00178051  0.75208694  1
  V  V11  1  0.36759845  0.00561319  0.37563720  1
  V  V12  1  0.62766196  0.62611484  0.50547807  1
  V  V13  1  0.62394318  0.87621363  0.24279464  1
  V  V14  1  0.37169923  -0.01326748  0.88706648  1
  V  V15  1  0.87508608  0.12902633  0.24833542  1
  V  V16  1  0.87044522  0.13022276  0.74913233  1
  V  V17  1  0.12950062  0.24328587  0.37321187  1
  V  V18  1  0.50842245  0.11593429  0.10959043  1
  V  V19  1  0.37248553  0.25272544  0.63065121  1
  V  V20  1  0.50324163  0.25225935  0.75329543  1
  V  V21  1  0.37938737  0.12213605  0.75227964  1
  V  V22  1  0.62135648  0.49833370  0.12436888  1
  V  V23  1  -0.00962686  0.86709201  0.87488388  1
  V  V24  1  0.74616820  0.12959016  0.88736824  1
  V  V25  1  0.12576267  0.75719438  0.38192558  1
  V  V26  1  0.88517369  0.75117235  0.62931880  1
  V  V27  1  0.74502828  0.00362196  0.24641062  1
  V  V28  1  0.00161724  0.37376404  0.37522336  1
  V  V29  1  -0.00397261  0.12765556  0.62372288  1
  V  V30  1  0.75581132  0.74888746  0.49844274  1
  V  V31  1  0.24212622  0.38013459  0.62456773  1
  V  V32  1  0.25118938  0.63040199  0.88290540  1
  V  V33  1  0.62116581  0.74726551  0.87620726  1
  V  V34  1  0.57841907  0.19355449  0.43240592  1
  V  V35  1  0.12551050  0.63274569  0.00343802  1
  V  V36  1  0.87966179  0.50436778  0.37273759  1
  V  V37  1  0.36197733  0.24796145  0.11649219  1
  V  V38  1  0.87036782  0.24995547  0.11338849  1
  V  V39  1  0.00854933  0.49967216  0.50673877  1
  V  V40  1  0.75476623  0.50176462  0.24893282  1
  V  V41  1  0.00268107  0.24815960  0.75183585  1
  V  V42  1  0.12946633  0.37361404  0.24603364  1
  V  V43  1  0.00856462  0.62350920  0.63343653  1
  V  V44  1  0.88504493  0.87545525  0.49105109  1
  V  V45  1  0.49800659  0.88253926  0.37445736  1
  V  V46  1  0.50694931  0.50044759  0.50529152  1
  V  V47  1  0.24901186  0.87155505  0.11378196  1
  V  V48  1  0.25066941  0.50113481  0.25137277  1
  V  V49  1  0.13420222  0.62446738  0.50170202  1
  V  V50  1  0.12327126  0.00121585  0.62503366  1
  V  V51  1  0.24608961  0.00245752  0.25090589  1
  V  V52  1  0.62460014  0.38237134  0.74826721  1
  V  V53  1  0.12434082  0.75162613  0.86897860  1
  V  V54  1  0.50372272  0.62545726  0.62504275  1
  V  V55  1  0.87820261  0.37209457  0.50697044  1
  V  V56  1  0.24539680  0.50284584  0.74991063  1
  V  V57  1  0.87616775  0.62536787  0.75250266  1
  V  V58  1  0.75485891  0.87803639  0.12194113  1
  V  V59  1  0.00128072  0.37321499  0.87847201  1
  V  V60  1  0.74780587  0.37114138  0.11549688  1
  V  V61  1  0.62482301  0.74966352  0.37281736  1
  V  V62  1  0.75726911  0.74881140  -0.00052869  1
  V  V63  1  0.75102257  0.87740152  0.62675037  1
  V  V64  1  0.12727446  0.37075865  0.75684454  1
  V  V65  1  0.12882216  0.49606153  0.12113982  1
  V  V66  1  0.12801094  0.13409505  -0.00647252  1
  V  V67  1  0.11575245  0.87454099  0.24959094  1
  V  V68  1  0.75328549  0.62317750  0.37305340  1
  V  V69  1  0.38298322  0.50244428  0.88081766  1
  V  V70  1  0.24775168  0.24256492  0.49972366  1
  V  V71  1  0.24967987  0.87046992  0.62261882  1
  V  V72  1  0.37623663  0.74966172  0.61652906  1
  V  V73  1  0.62738093  0.36980970  0.25267941  1
  V  V74  1  0.36877739  0.38211051  0.00800950  1
  V  V75  1  0.37628134  0.62608628  0.75088015  1
  V  V76  1  0.87529911  0.00096392  0.87943683  1
  V  V77  1  0.50058321  0.75922530  0.74867580  1
  V  V78  1  0.62423880  0.61813630  0.00078895  1
  V  V79  1  0.54439642  0.92691492  0.93163445  1
  V  V80  1  0.87508257  0.74615159  0.13239081  1
  V  V81  1  0.50482100  0.37788679  0.37623050  1
  V  V82  1  0.24835406  0.13643981  0.87733637  1
  V  V83  1  0.49229922  0.75015990  0.24906558  1
  V  V84  1  0.49890543  0.24702112  0.24368128  1
  Zn  Zn85  1  -0.00239130  0.50013939  -0.00127753  1
  Zn  Zn86  1  0.61484727  0.01509452  0.61330944  1
  Zn  Zn87  1  0.37178210  0.62520066  0.25126899  1
  Zn  Zn88  1  0.62547103  0.87965586  0.74984651  1
  Zn  Zn89  1  0.74793285  0.50426539  0.74740197  1
  Zn  Zn90  1  0.86966498  0.37499179  -0.00621183  1
  Zn  Zn91  1  0.12570077  0.12202877  0.49574669  1
  Zn  Zn92  1  0.11770441  0.87076449  0.74818577  1
  Zn  Zn93  1  0.36954115  0.12566413  0.24650915  1
  Zn  Zn94  1  0.12484383  -0.00095924  0.12103177  1
  Zn  Zn95  1  0.25426466  0.63010151  0.37854846  1
  Zn  Zn96  1  0.00532352  -0.00207035  0.49358817  1
  Zn  Zn97  1  0.87367494  0.49888820  0.87562773  1
  Zn  Zn98  1  0.50779442  0.12925762  0.61340016  1
  Zn  Zn99  1  0.00023147  0.25106456  0.24866819  1
  Zn  Zn100  1  0.00000013  -0.00360032  -0.00147651  1
  Zn  Zn101  1  0.88226631  -0.00271053  0.36995277  1
  Zn  Zn102  1  0.50237287  0.37956872  0.88347183  1
  Zn  Zn103  1  0.75202288  0.62208481  0.87363145  1
  Zn  Zn104  1  0.37571020  0.50444429  0.37441133  1
  Zn  Zn105  1  0.74471378  0.00390057  0.74765342  1
  Zn  Zn106  1  -0.00477165  0.75010004  0.25748637  1
  Zn  Zn107  1  0.18476813  0.18491662  0.18520511  1
  Zn  Zn108  1  0.18639681  0.18689927  0.68943310  1
  Zn  Zn109  1  0.18468243  0.68927145  0.19143871  1
  Zn  Zn110  1  0.18904895  0.68748836  0.68877316  1
  Zn  Zn111  1  0.68418233  0.18814762  0.18302743  1
  Zn  Zn112  1  0.68494149  0.18736378  0.68671973  1
  Zn  Zn113  1  0.68702286  0.68661029  0.18712451  1
  Zn  Zn114  1  0.69227045  0.69553149  0.68603590  1
  Zn  Zn115  1  0.31275218  0.31499345  0.31076128  1
  Zn  Zn116  1  0.31559749  0.31750027  0.81759574  1
  Zn  Zn117  1  0.30508037  0.81541215  0.30879752  1
  Zn  Zn118  1  0.30955873  0.81045718  0.80983802  1
  Zn  Zn119  1  0.81232803  0.31162762  0.31513601  1
  Zn  Zn120  1  0.81214075  0.31052708  0.81072144  1
  Zn  Zn121  1  0.81236923  0.81205372  0.31031586  1
  Zn  Zn122  1  0.81339294  0.80934695  0.81048158  1
  Zn  Zn123  1  0.18781268  0.43585403  0.43396603  1
  Zn  Zn124  1  0.19056558  0.43910129  0.93822139  1
  Zn  Zn125  1  0.18812896  0.93491834  0.43831848  1
  Zn  Zn126  1  0.18090327  0.94198747  0.93765497  1
  Zn  Zn127  1  0.68849752  0.43673971  0.43875605  1
  Zn  Zn128  1  0.68788191  0.43989271  0.93188062  1
  Zn  Zn129  1  0.69449051  0.94232098  0.43599151  1
  Zn  Zn130  1  0.70603395  0.93904221  0.93913388  1
  Zn  Zn131  1  0.31085768  0.06270575  0.06395037  1
  Zn  Zn132  1  0.31886771  0.06010407  0.56694464  1
  Zn  Zn133  1  0.30979628  0.56286620  0.06529825  1
  Zn  Zn134  1  0.31667279  0.55986969  0.56372123  1
  Zn  Zn135  1  0.81024727  0.06153930  0.06176918  1
  Zn  Zn136  1  0.81428506  0.05941257  0.56318937  1
  Zn  Zn137  1  0.81439077  0.56037541  0.06045004  1
  Zn  Zn138  1  0.81960139  0.56222278  0.56319450  1
  Zn  Zn139  1  0.43565921  0.43491362  0.18625158  1
  Zn  Zn140  1  0.43645899  0.43970395  0.68957723  1
  Zn  Zn141  1  0.43077641  0.93779122  0.18356356  1
  Zn  Zn142  1  0.44128956  0.94337075  0.68356086  1
  Zn  Zn143  1  0.93944675  0.43586703  0.18593930  1
  Zn  Zn144  1  0.93941567  0.43898889  0.68864063  1
  Zn  Zn145  1  0.93338631  0.93937881  0.18587889  1
  Zn  Zn146  1  0.93653601  0.94014633  0.69261189  1
  Zn  Zn147  1  0.06025030  0.06062879  0.31071215  1
  Zn  Zn148  1  0.06158208  0.05978626  0.81355228  1
  Zn  Zn149  1  0.06691043  0.56461805  0.31445053  1
  Zn  Zn150  1  0.06386350  0.55940726  0.81461836  1
  Zn  Zn151  1  0.55788695  0.05790324  0.30103500  1
  Zn  Zn152  1  0.56599862  0.06402529  0.80451980  1
  Zn  Zn153  1  0.56362210  0.56217476  0.31197963  1
  Zn  Zn154  1  0.56335498  0.56602794  0.81121324  1
  Zn  Zn155  1  0.41319686  0.19417287  0.42965739  1
  Zn  Zn156  1  0.43629935  0.18774329  0.93759829  1
  Zn  Zn157  1  0.43720624  0.68893560  0.43590576  1
  Zn  Zn158  1  0.43990974  0.69179843  0.93855438  1
  Zn  Zn159  1  0.94017276  0.18591442  0.43673417  1
  Zn  Zn160  1  0.93952555  0.18850288  0.93396136  1
  Zn  Zn161  1  0.94536400  0.68568942  0.43951976  1
  Zn  Zn162  1  0.93972929  0.68640319  0.94183472  1
  Zn  Zn163  1  0.06348408  0.30912022  0.06343650  1
  Zn  Zn164  1  0.06391070  0.31033142  0.56675353  1
  Zn  Zn165  1  0.06012415  0.81254193  0.05884444  1
  Zn  Zn166  1  0.06522189  0.80895009  0.56316967  1
  Zn  Zn167  1  0.55282823  0.31518043  0.06287455  1
  Zn  Zn168  1  0.56307318  0.31409480  0.57120159  1
  Zn  Zn169  1  0.56513338  0.80520068  0.06582501  1
  Zn  Zn170  1  0.58050833  0.84728507  0.54298700  1
  O  O171  1  0.11545105  0.12430743  0.11534191  1
  O  O172  1  0.11636183  0.11704367  0.62546017  1
  O  O173  1  0.12051036  0.62044639  0.11844050  1
  O  O174  1  0.11888459  0.63273822  0.61720868  1
  O  O175  1  0.60800121  0.12775809  0.12671293  1
  O  O176  1  0.62415519  0.13099066  0.61364191  1
  O  O177  1  0.61776443  0.62038035  0.11922692  1
  O  O178  1  0.62422324  0.63392318  0.61122586  1
  O  O179  1  0.38962282  0.37279952  0.38271425  1
  O  O180  1  0.37850986  0.38709743  0.88291581  1
  O  O181  1  0.37772659  0.88006136  0.37921512  1
  O  O182  1  0.36677204  0.88767128  0.87314845  1
  O  O183  1  0.88021748  0.38346469  0.38449368  1
  O  O184  1  0.88558392  0.37319118  0.87362093  1
  O  O185  1  0.87279758  0.87314435  0.38762476  1
  O  O186  1  0.88291338  0.88118787  0.87162692  1
  O  O187  1  0.25602766  -0.00675793  0.36554847  1
  O  O188  1  0.25698100  0.00488308  0.86824437  1
  O  O189  1  0.25310606  0.50144751  0.36580313  1
  O  O190  1  0.25878232  0.51176639  0.86934560  1
  O  O191  1  0.75499515  0.01189158  0.36732083  1
  O  O192  1  0.75675855  0.01016163  0.86930767  1
  O  O193  1  0.75880442  0.50269079  0.36969183  1
  O  O194  1  0.75485862  0.50357574  0.86718447  1
  O  O195  1  0.23607029  0.50257909  0.13297261  1
  O  O196  1  0.25837931  0.49110595  0.63685260  1
  O  O197  1  0.25020742  0.98723966  0.13096597  1
  O  O198  1  0.24598147  0.99191354  0.63250377  1
  O  O199  1  0.74424410  0.49307204  0.13356164  1
  O  O200  1  0.75439049  0.48746496  0.62304636  1
  O  O201  1  0.75271073  0.99052196  0.13207659  1
  O  O202  1  0.75148426  0.98699496  0.62602116  1
  O  O203  1  0.01084247  0.37345903  0.25602969  1
  O  O204  1  0.00846027  0.36904763  0.75393794  1
  O  O205  1  0.01150386  0.87538030  0.24215717  1
  O  O206  1  0.00181631  0.87930777  0.76727689  1
  O  O207  1  0.50435701  0.36577831  0.25741337  1
  O  O208  1  0.50566148  0.36925302  0.75279409  1
  O  O209  1  0.50531034  0.86872196  0.25064073  1
  O  O210  1  0.50040449  0.86213112  0.74406463  1
  O  O211  1  0.49621507  0.13937687  0.24981353  1
  O  O212  1  0.49124680  0.13640607  0.75344018  1
  O  O213  1  0.50124206  0.63430433  0.24128353  1
  O  O214  1  0.49545064  0.63180411  0.74275652  1
  O  O215  1  0.99057050  0.12756060  0.23945931  1
  O  O216  1  0.99583181  0.13153604  0.74669216  1
  O  O217  1  1.00707134  0.62624037  0.23653407  1
  O  O218  1  0.99787270  0.61906791  0.73892340  1
  O  O219  1  0.37429976  0.25705377  0.01133474  1
  O  O220  1  0.36550533  0.25993666  0.50786585  1
  O  O221  1  0.37161682  0.74461324  0.01229366  1
  O  O222  1  0.37473158  0.75328197  0.51188188  1
  O  O223  1  0.87630745  0.25237320  0.01001363  1
  O  O224  1  0.86800193  0.25995384  0.49390754  1
  O  O225  1  0.86208208  0.74437192  0.00867724  1
  O  O226  1  0.87702273  0.75722818  0.50478608  1
  O  O227  1  0.13250024  0.25078071  0.49271595  1
  O  O228  1  0.12425231  0.23388144  1.00183792  1
  O  O229  1  0.12530843  0.74281860  0.49016231  1
  O  O230  1  0.12164795  0.73825143  0.98983060  1
  O  O231  1  0.63294355  0.25672808  0.49292186  1
  O  O232  1  0.61986391  0.25630437  0.98669166  1
  O  O233  1  0.63317692  0.74659501  0.49008256  1
  O  O234  1  0.63273274  0.73896943  0.99529093  1
  O  O235  1  0.49046696  0.24297574  0.13087025  1
  O  O236  1  0.49067961  0.24917329  0.63410013  1
  O  O237  1  0.49058429  0.74408038  0.13251104  1
  O  O238  1  0.49160122  0.74298356  0.63180603  1
  O  O239  1  0.99030127  0.23999943  0.12668389  1
  O  O240  1  1.00466572  0.24070007  0.63756860  1
  O  O241  1  0.99032638  0.74334911  0.12422941  1
  O  O242  1  0.99298015  0.74037690  0.62220303  1
  O  O243  1  0.00870398  0.25696837  0.37266555  1
  O  O244  1  -0.00050222  0.25696268  0.86126939  1
  O  O245  1  0.01762842  0.74313063  0.37280520  1
  O  O246  1  0.00514865  0.75999943  0.87806862  1
  O  O247  1  0.50805357  0.25274939  0.37258826  1
  O  O248  1  0.50931546  0.25177335  0.86927195  1
  O  O249  1  0.50284424  0.75910420  0.36539427  1
  O  O250  1  0.51219584  0.74246604  0.86530162  1
  O  O251  1  0.25019697  0.13947073  0.50869541  1
  O  O252  1  0.23772741  0.12112419  0.99235309  1
  O  O253  1  0.23771228  0.61632985  0.50293120  1
  O  O254  1  0.24096342  0.62103930  0.99226682  1
  O  O255  1  0.75991775  0.13302537  0.49199204  1
  O  O256  1  0.74794135  0.12248250  0.98722969  1
  O  O257  1  0.74616564  0.62782182  0.49501782  1
  O  O258  1  0.74135919  0.63186604  1.00090653  1
  O  O259  1  0.26828604  0.37402046  -0.00884736  1
  O  O260  1  0.25273902  0.37232768  0.50960617  1
  O  O261  1  0.24019579  0.87690200  0.01521975  1
  O  O262  1  0.26085569  0.87466990  0.50911641  1
  O  O263  1  0.74683038  0.37859015  0.01294683  1
  O  O264  1  0.75834735  0.36991208  0.50387157  1
  O  O265  1  0.74613487  0.86314695  0.01143325  1
  O  O266  1  0.76616731  0.86531308  0.50605621  1
  O  O267  1  0.13071215  0.49288384  0.24463720  1
  O  O268  1  0.13986803  0.49414562  0.75373552  1
  O  O269  1  0.12886691  0.99359553  0.24437954  1
  O  O270  1  0.13330247  0.99910416  0.74044300  1
  O  O271  1  0.63084249  0.48880026  0.24594192  1
  O  O272  1  0.62414980  0.48683575  0.75438378  1
  O  O273  1  0.63612308  0.99122026  0.25141532  1
  O  O274  1  0.62638015  0.99551964  0.73854790  1
  O  O275  1  0.36372370  -0.00266432  0.25823378  1
  O  O276  1  0.36800809  0.00704793  0.75666437  1
  O  O277  1  0.36344324  0.49767943  0.24990269  1
  O  O278  1  0.36743092  0.50632165  0.75964749  1
  O  O279  1  0.86341254  0.01222251  0.24811336  1
  O  O280  1  0.87439548  0.01362683  0.76068895  1
  O  O281  1  0.86646365  0.49226231  0.25946590  1
  O  O282  1  0.87455000  0.51390721  0.74776442  1
  O  O283  1  0.11984040  0.36615105  0.36764113  1
  O  O284  1  0.12046748  0.38027761  0.86398295  1
  O  O285  1  0.12593949  0.86456813  0.36968122  1
  O  O286  1  0.11862786  0.86682687  0.87240745  1
  O  O287  1  0.61436851  0.37970327  0.36812732  1
  O  O288  1  0.62301953  0.36504907  0.86828597  1
  O  O289  1  0.61714891  0.86981395  0.36214929  1
  O  O290  1  0.61911120  0.87001731  0.87537623  1
  O  O291  1  0.37975380  0.13670907  0.12466622  1
  O  O292  1  0.37102662  0.13416787  0.64040518  1
  O  O293  1  0.38089459  0.63085080  0.12912829  1
  O  O294  1  0.37958617  0.63325118  0.62944746  1
  O  O295  1  0.87729117  0.13201851  0.12851554  1
  O  O296  1  0.88739454  0.11786749  0.63385535  1
  O  O297  1  0.88387003  0.63193478  0.12237397  1
  O  O298  1  0.88686537  0.63178646  0.62888768  1
  O  O299  1  0.26384797  0.24792322  0.12948402  1
  O  O300  1  0.25319263  0.25945776  0.62157691  1
  O  O301  1  0.25547523  0.76159624  0.13193077  1
  O  O302  1  0.25995691  0.76321025  0.63506121  1
  O  O303  1  0.75729968  0.25989141  0.13103473  1
  O  O304  1  0.74945757  0.26096651  0.61173440  1
  O  O305  1  0.75610740  0.75322573  0.12047164  1
  O  O306  1  0.76947904  0.75054013  0.61579075  1
  O  O307  1  0.24404535  0.25789514  0.38696884  1
  O  O308  1  0.25436442  0.23532741  0.86728197  1
  O  O309  1  0.23271203  0.74718560  0.36861528  1
  O  O310  1  0.24335650  0.73807888  0.87150601  1
  O  O311  1  0.74858650  0.23891421  0.38245665  1
  O  O312  1  0.73534314  0.24595768  0.87262366  1
  O  O313  1  0.74721232  0.74164744  0.37742517  1
  O  O314  1  0.73935837  0.75006915  0.88285809  1
  O  O315  1  0.00853269  0.12506608  0.00306021  1
  O  O316  1  0.00313639  0.12507843  0.51144524  1
  O  O317  1  0.00891271  0.62245413  0.01103969  1
  O  O318  1  0.01046611  0.61640733  0.51003037  1
  O  O319  1  0.49747782  0.12471450  0.01010401  1
  O  O320  1  0.50682388  0.14635946  0.48695923  1
  O  O321  1  0.50846142  0.63186970  0.01385573  1
  O  O322  1  0.50850623  0.62013499  0.50346567  1
  O  O323  1  0.50040359  0.38216206  0.49589766  1
  O  O324  1  0.47993778  0.37342631  0.99761595  1
  O  O325  1  0.48192609  0.86368562  0.48535167  1
  O  O326  1  0.49712670  0.86259418  0.99195477  1
  O  O327  1  0.99676963  0.38033991  0.49847429  1
  O  O328  1  1.00372947  0.37155491  0.98629829  1
  O  O329  1  0.98779532  0.87478441  0.50692440  1
  O  O330  1  1.00348040  0.87814604  0.98209318  1
  O  O331  1  0.49891682  0.49262834  0.38137315  1
  O  O332  1  0.48627117  0.50518139  0.87313879  1
  O  O333  1  0.49017137  0.98717052  0.36560894  1
  O  O334  1  0.48801669  0.99473621  0.87072165  1
  O  O335  1  0.99567620  0.49497274  0.38054434  1
  O  O336  1  0.99757871  0.48789441  0.87507024  1
  O  O337  1  0.99442411  1.00685970  0.38107592  1
  O  O338  1  0.99168760  0.99164615  0.87569331  1
  O  O339  1  -0.00532077  0.01351964  0.12062207  1
  O  O340  1  0.00912532  0.00620614  0.62488553  1
  O  O341  1  0.01055257  0.50568325  0.12436330  1
  O  O342  1  0.00004430  0.50771604  0.61632491  1
  O  O343  1  0.49207304  0.01780630  0.13254528  1
  O  O344  1  0.49504260  0.01661794  0.62290656  1
  O  O345  1  0.50670938  0.50993802  0.13336241  1
  O  O346  1  0.49600732  0.50936779  0.61626439  1
  O  O347  1  0.23738441  0.38407620  0.25451955  1
  O  O348  1  0.24549100  0.38130213  0.74703846  1
  O  O349  1  0.23624631  0.88329159  0.24205546  1
  O  O350  1  0.24861560  0.88597833  0.74292452  1
  O  O351  1  0.74263277  0.38180265  0.24727724  1
  O  O352  1  0.74328595  0.37381695  0.73997076  1
  O  O353  1  0.74329068  0.88276881  0.24601572  1
  O  O354  1  0.75287703  0.87783641  0.74153947  1
  O  O355  1  0.24881528  0.10755841  0.24144671  1
  O  O356  1  0.25499502  0.11497480  0.75513221  1
  O  O357  1  0.24790060  0.61246170  0.25115195  1
  O  O358  1  0.25674476  0.61892285  0.75637645  1
  O  O359  1  0.75265469  0.12107522  0.25455772  1
  O  O360  1  0.75761084  0.12810906  0.75661739  1
  O  O361  1  0.74261463  0.60965381  0.25579091  1
  O  O362  1  0.76085284  0.62540858  0.74818906  1
  O  O363  1  0.37316765  0.11088994  0.36788543  1
  O  O364  1  0.36873202  0.11759703  0.86723181  1
  O  O365  1  0.37237968  0.62394028  0.37024885  1
  O  O366  1  0.36863757  0.62282656  0.87366433  1
  O  O367  1  0.86761872  0.12742461  0.36424169  1
  O  O368  1  0.86720549  0.12208428  0.86930935  1
  O  O369  1  0.87310091  0.61125158  0.38182522  1
  O  O370  1  0.87650494  0.62734758  0.86520694  1
  O  O371  1  0.11930302  0.38264205  0.13316525  1
  O  O372  1  0.13629219  0.37419756  0.63544302  1
  O  O373  1  0.13201271  0.87289503  0.13093838  1
  O  O374  1  0.13288907  0.87960689  0.62707974  1
  O  O375  1  0.62866479  0.37840382  0.13158040  1
  O  O376  1  0.63524850  0.37398405  0.63459532  1
  O  O377  1  0.63541415  0.86475954  0.13708197  1
  O  O378  1  0.64953597  0.84572973  0.63481987  1
  O  O379  1  0.12632203  0.25673734  0.25503574  1
  O  O380  1  0.11891495  0.26004444  0.74842085  1
  O  O381  1  0.12010340  0.75819072  0.25911696  1
  O  O382  1  0.12676318  0.74897787  0.76414584  1
  O  O383  1  0.61710974  0.26271160  0.24657554  1
  O  O384  1  0.61476265  0.25988842  0.75421469  1
  O  O385  1  0.61536875  0.75485661  0.25352730  1
  O  O386  1  0.61838352  0.74883363  0.76070697  1
  O  O387  1  0.38148956  0.25196130  0.24004152  1
  O  O388  1  0.38497497  0.24653359  0.75165511  1
  O  O389  1  0.38373775  0.75193059  0.24488478  1
  O  O390  1  0.38226695  0.74466538  0.74370862  1
  O  O391  1  0.87371508  0.24016709  0.24324913  1
  O  O392  1  0.88352631  0.23757137  0.75183509  1
  O  O393  1  0.87616761  0.75009783  0.23844832  1
  O  O394  1  0.87552371  0.73872034  0.74072338  1
  O  O395  1  0.38814079  0.49499669  0.49783849  1
  O  O396  1  0.37140382  0.49216189  0.99697170  1
  O  O397  1  0.36903454  0.99134483  0.48959035  1
  O  O398  1  0.37005586  1.00011899  0.98563980  1
  O  O399  1  0.88755384  0.49338069  0.49335602  1
  O  O400  1  0.87965981  0.49322199  0.99718732  1
  O  O401  1  0.87575032  0.98286707  0.49970610  1
  O  O402  1  0.87526121  1.00473649  0.98421454  1
  O  O403  1  0.11956793  0.01258286  0.00365932  1
  O  O404  1  0.12815311  0.00164903  0.51263213  1
  O  O405  1  0.12405204  0.50810385  0.00695413  1
  O  O406  1  0.11485103  0.50536183  0.49382740  1
  O  O407  1  0.60695505  -0.01974220  -0.01277555  1
  O  O408  1  0.62081852  -0.04655172  0.51577820  1
  O  O409  1  0.62768062  0.51131609  0.00502856  1
  O  O410  1  0.61529821  0.50921256  0.49587188  1
  O  O411  1  0.37553781  0.36492437  0.11618417  1
  O  O412  1  0.36587814  0.37149742  0.62187025  1
  O  O413  1  0.35906532  0.86663646  0.12750643  1
  O  O414  1  0.37020047  0.87009785  0.61761550  1
  O  O415  1  0.86600832  0.36654085  0.12538375  1
  O  O416  1  0.87152026  0.37811201  0.61277093  1
  O  O417  1  0.86226878  0.86585911  0.12919710  1
  O  O418  1  0.87191698  0.86773977  0.62133844  1
  O  O419  1  0.12341727  0.13953237  0.37428370  1
  O  O420  1  0.13235068  0.12049302  0.88465136  1
  O  O421  1  0.12876936  0.63233188  0.38563884  1
  O  O422  1  0.13079963  0.62974385  0.88194722  1
  O  O423  1  0.62893711  0.12268899  0.37582776  1
  O  O424  1  0.63063677  0.13966883  0.86951705  1
  O  O425  1  0.63009472  0.62980221  0.38433221  1
  O  O426  1  0.62711654  0.63096573  0.88364951  1
