# generated using pymatgen
data_V85Zn86O256
_symmetry_space_group_name_H-M   'P 1'
_cell_length_a   16.97961546
_cell_length_b   16.96554306
_cell_length_c   16.95714718
_cell_angle_alpha   90.04694270
_cell_angle_beta   90.00315968
_cell_angle_gamma   90.08205126
_symmetry_Int_Tables_number   1
_chemical_formula_structural   V85Zn86O256
_chemical_formula_sum   'V85 Zn86 O256'
_cell_volume   4884.81155294
_cell_formula_units_Z   1
loop_
 _symmetry_equiv_pos_site_id
 _symmetry_equiv_pos_as_xyz
  1  'x, y, z'
loop_
 _atom_site_type_symbol
 _atom_site_label
 _atom_site_symmetry_multiplicity
 _atom_site_fract_x
 _atom_site_fract_y
 _atom_site_fract_z
 _atom_site_occupancy
  V  V0  1  0.62224700  0.49027415  0.62285406  1
  V  V1  1  0.24947772  0.74851144  0.50132010  1
  V  V2  1  -0.00305105  0.37242408  0.88338027  1
  V  V3  1  0.74756581  0.11769554  0.88353331  1
  V  V4  1  0.62234362  0.36906503  0.24889953  1
  V  V5  1  0.12474906  0.00619749  0.11994632  1
  V  V6  1  0.12477619  0.23562281  0.87761972  1
  V  V7  1  0.25028320  0.37395129  0.62120633  1
  V  V8  1  0.24737912  0.49707366  0.75029028  1
  V  V9  1  0.87148422  0.87243540  0.01651500  1
  V  V10  1  0.87503767  0.62559654  0.73793504  1
  V  V11  1  0.74727864  -0.00689365  0.74975990  1
  V  V12  1  0.62425252  0.24529432  0.88552879  1
  V  V13  1  0.25388388  0.88440282  0.62941442  1
  V  V14  1  0.25834412  0.12522814  0.36726177  1
  V  V15  1  0.51067889  0.12829858  0.14062517  1
  V  V16  1  0.49890062  0.62301491  0.62529791  1
  V  V17  1  0.50027518  0.01325305  -0.00527628  1
  V  V18  1  -0.00723222  0.37927467  0.38793789  1
  V  V19  1  0.13352440  0.87957025  0.75299968  1
  V  V20  1  0.62127628  0.12078095  0.49572972  1
  V  V21  1  0.49559858  0.87522228  0.87894218  1
  V  V22  1  0.12170477  0.62522396  0.00210263  1
  V  V23  1  0.38221102  0.24347351  0.13491941  1
  V  V24  1  -0.00281068  0.25082854  0.24570864  1
  V  V25  1  -0.00536086  0.63422773  0.12861289  1
  V  V26  1  0.37495775  0.25231466  0.62246268  1
  V  V27  1  0.49666432  0.62755952  0.12621281  1
  V  V28  1  0.75116675  0.49564258  0.75136111  1
  V  V29  1  0.48988845  0.49337720  0.49898872  1
  V  V30  1  0.12277375  0.37965671  0.24965357  1
  V  V31  1  0.24360097  0.62477951  0.37953184  1
  V  V32  1  0.75033010  0.12853840  0.36436612  1
  V  V33  1  -0.00162908  0.00219269  -0.00582115  1
  V  V34  1  0.25425453  0.25065311  0.49767693  1
  V  V35  1  0.12266374  0.75652453  0.37715725  1
  V  V36  1  -0.00001933  0.74508985  0.74215834  1
  V  V37  1  0.75398762  0.75181736  0.01577573  1
  V  V38  1  0.24894655  0.62299868  0.87722957  1
  V  V39  1  0.63063194  -0.01386044  0.12164549  1
  V  V40  1  -0.00468615  0.24640307  0.75157033  1
  V  V41  1  0.37000534  0.11365893  0.75297518  1
  V  V42  1  0.87658748  0.25293703  0.11376382  1
  V  V43  1  0.11990634  0.50185805  0.61398227  1
  V  V44  1  0.62991671  0.36997767  0.74906561  1
  V  V45  1  0.49928882  0.37371518  0.87578004  1
  V  V46  1  0.75452442  0.49927024  0.25196337  1
  V  V47  1  0.25199187  0.75551317  0.00907390  1
  V  V48  1  0.37350195  0.49712120  0.87644187  1
  V  V49  1  0.75560868  0.37781597  0.11565037  1
  V  V50  1  0.25191383  0.11105997  0.87412400  1
  V  V51  1  0.61874880  0.75644669  0.37712242  1
  V  V52  1  0.75297900  0.63296287  0.87568059  1
  V  V53  1  0.37533068  0.75020173  0.62483345  1
  V  V54  1  0.12513259  0.24986031  0.37279362  1
  V  V55  1  0.49859516  0.11927642  0.62053035  1
  V  V56  1  0.49915481  0.24800186  0.75005319  1
  V  V57  1  0.26203611  0.00031099  0.24005594  1
  V  V58  1  0.87542666  0.63143824  0.25148746  1
  V  V59  1  0.62400710  -0.00899927  0.62307784  1
  V  V60  1  0.12205694  0.49974598  0.12498810  1
  V  V61  1  0.75266706  0.24787455  0.49944539  1
  V  V62  1  0.62491926  0.50148690  0.12647919  1
  V  V63  1  0.49302956  0.36844184  0.37262757  1
  V  V64  1  0.62505243  0.62653598  0.00003578  1
  V  V65  1  0.75091529  -0.02315453  0.24846637  1
  V  V66  1  0.12489577  0.37170341  0.75089414  1
  V  V67  1  -0.00485604  0.75976427  0.25180132  1
  V  V68  1  0.25140771  0.37255186  0.12418575  1
  V  V69  1  0.74630173  0.62626647  0.38261155  1
  V  V70  1  -0.00372203  0.50027194  0.00188432  1
  V  V71  1  0.87276902  0.49643792  0.88129950  1
  V  V72  1  0.38384538  0.88513904  0.49477005  1
  V  V73  1  0.88518333  0.00094484  0.38199120  1
  V  V74  1  0.12561670  0.74914317  0.87571699  1
  V  V75  1  0.24840321  0.50089396  0.25074346  1
  V  V76  1  0.37471554  0.37301409  0.00105413  1
  V  V77  1  0.86535255  0.24593487  0.62688112  1
  V  V78  1  0.86791430  0.11668724  0.75073660  1
  V  V79  1  0.24871995  0.24162988  -0.00021141  1
  V  V80  1  0.37476624  0.62365765  0.75115806  1
  V  V81  1  0.80522356  0.42988477  0.56585539  1
  V  V82  1  0.12795085  0.87912535  0.24614859  1
  V  V83  1  0.37447660  0.62754369  0.25230463  1
  V  V84  1  -0.01606177  0.87199524  0.87073841  1
  Zn  Zn85  1  0.50042768  0.75204632  0.75248400  1
  Zn  Zn86  1  0.85896645  0.85864624  0.52039928  1
  Zn  Zn87  1  0.03765793  0.93571250  0.44113551  1
  Zn  Zn88  1  0.62635839  0.62321594  0.50253153  1
  Zn  Zn89  1  0.37192337  0.76087553  0.12959154  1
  Zn  Zn90  1  0.62384829  0.87024650  0.75026546  1
  Zn  Zn91  1  0.75137883  0.24959860  -0.00034050  1
  Zn  Zn92  1  0.49821428  0.50081745  0.00060556  1
  Zn  Zn93  1  0.00064388  0.12684331  0.11503859  1
  Zn  Zn94  1  0.87677695  0.49947986  0.38967023  1
  Zn  Zn95  1  0.50352455  0.75997958  0.24819527  1
  Zn  Zn96  1  0.37188354  0.49806336  0.37836525  1
  Zn  Zn97  1  0.12853108  0.00238133  0.61670580  1
  Zn  Zn98  1  0.38759240  0.01192105  0.36835963  1
  Zn  Zn99  1  0.36976234  0.88804972  0.00204537  1
  Zn  Zn100  1  0.50881362  0.89263840  0.36882617  1
  Zn  Zn101  1  0.87387451  0.12402118  0.24156907  1
  Zn  Zn102  1  -0.00321443  0.61964274  0.60983147  1
  Zn  Zn103  1  0.62485461  0.75330650  0.87526086  1
  Zn  Zn104  1  -0.00495987  0.11596200  0.61073070  1
  Zn  Zn105  1  0.12199173  0.11349159  0.49424315  1
  Zn  Zn106  1  0.62282419  0.24924726  0.37043473  1
  Zn  Zn107  1  0.18766454  0.18429355  0.18503047  1
  Zn  Zn108  1  0.18453198  0.18098451  0.68717715  1
  Zn  Zn109  1  0.18223405  0.68624330  0.19162322  1
  Zn  Zn110  1  0.18820160  0.68669099  0.68743252  1
  Zn  Zn111  1  0.68653066  0.18908773  0.18023972  1
  Zn  Zn112  1  0.68590799  0.18219446  0.68739483  1
  Zn  Zn113  1  0.68513221  0.68965667  0.19457978  1
  Zn  Zn114  1  0.67932338  0.68159891  0.69260286  1
  Zn  Zn115  1  0.31396364  0.31303529  0.31035505  1
  Zn  Zn116  1  0.31133755  0.30652772  0.81097027  1
  Zn  Zn117  1  0.31426447  0.81616478  0.31065967  1
  Zn  Zn118  1  0.31723652  0.81201302  0.81686045  1
  Zn  Zn119  1  0.81368044  0.31278117  0.30838372  1
  Zn  Zn120  1  0.81071320  0.31000261  0.81673232  1
  Zn  Zn121  1  0.82188230  0.80403763  0.34812878  1
  Zn  Zn122  1  0.81033505  0.80927210  0.70584194  1
  Zn  Zn123  1  0.19169329  0.42954954  0.43715721  1
  Zn  Zn124  1  0.18433284  0.43255996  0.93816727  1
  Zn  Zn125  1  0.20431589  0.93817625  0.43465183  1
  Zn  Zn126  1  0.18272314  0.93525593  0.93745224  1
  Zn  Zn127  1  0.67916806  0.44071593  0.43223352  1
  Zn  Zn128  1  0.68442092  0.43971842  0.93701814  1
  Zn  Zn129  1  0.68931913  0.93977685  0.43406997  1
  Zn  Zn130  1  0.68548886  0.93464588  0.93928229  1
  Zn  Zn131  1  0.31916981  0.06474712  0.06611732  1
  Zn  Zn132  1  0.31026560  0.06604299  0.56077911  1
  Zn  Zn133  1  0.31115139  0.56423348  0.06369589  1
  Zn  Zn134  1  0.31081296  0.56177364  0.56236418  1
  Zn  Zn135  1  0.81494251  0.05758098  0.06308696  1
  Zn  Zn136  1  0.79581121  0.03360935  0.54598525  1
  Zn  Zn137  1  0.81346234  0.56526085  0.06521691  1
  Zn  Zn138  1  0.80882348  0.69154289  0.55384232  1
  Zn  Zn139  1  0.43656666  0.44030098  0.18911402  1
  Zn  Zn140  1  0.43643917  0.43453011  0.68939948  1
  Zn  Zn141  1  0.44197806  0.93294857  0.18008865  1
  Zn  Zn142  1  0.44028870  0.93703764  0.68773513  1
  Zn  Zn143  1  0.93610956  0.43908303  0.18998302  1
  Zn  Zn144  1  0.94155020  0.43567588  0.69391784  1
  Zn  Zn145  1  0.93860367  0.94119175  0.18857730  1
  Zn  Zn146  1  0.95917864  0.92735817  0.63471395  1
  Zn  Zn147  1  0.06818795  0.06918360  0.30438309  1
  Zn  Zn148  1  0.03526550  0.03597967  0.77967710  1
  Zn  Zn149  1  0.06488636  0.56242707  0.43505218  1
  Zn  Zn150  1  0.06115933  0.56034154  0.81037859  1
  Zn  Zn151  1  0.56927237  0.05580608  0.30959210  1
  Zn  Zn152  1  0.56290001  0.06199910  0.81129714  1
  Zn  Zn153  1  0.56172436  0.56035460  0.31165091  1
  Zn  Zn154  1  0.56311666  0.56026160  0.81286370  1
  Zn  Zn155  1  0.43886465  0.18914450  0.43698830  1
  Zn  Zn156  1  0.43507862  0.18518069  0.93922854  1
  Zn  Zn157  1  0.43577932  0.68627098  0.43988846  1
  Zn  Zn158  1  0.43667802  0.68853732  0.93837568  1
  Zn  Zn159  1  0.93191432  0.18358101  0.43350683  1
  Zn  Zn160  1  0.93203006  0.18400588  0.93414049  1
  Zn  Zn161  1  0.93890770  0.69242526  0.43468356  1
  Zn  Zn162  1  0.93344526  0.68986887  0.93527442  1
  Zn  Zn163  1  0.06524919  0.31058311  0.05948364  1
  Zn  Zn164  1  0.04467845  0.27374098  0.54580562  1
  Zn  Zn165  1  0.06264440  0.81755666  0.06365957  1
  Zn  Zn166  1  0.06688920  0.80793273  0.56434487  1
  Zn  Zn167  1  0.56121365  0.31340639  0.06470090  1
  Zn  Zn168  1  0.56192285  0.30851344  0.55776201  1
  Zn  Zn169  1  0.55856382  0.81222523  0.05928177  1
  Zn  Zn170  1  0.56559509  0.80625088  0.55702116  1
  O  O171  1  0.12027294  0.11189422  0.12426321  1
  O  O172  1  0.12236445  0.12251719  0.61630135  1
  O  O173  1  0.11451383  0.61852640  0.12285704  1
  O  O174  1  0.12840730  0.60348143  0.63074596  1
  O  O175  1  0.61499951  0.12018029  0.12413317  1
  O  O176  1  0.61378807  0.12219538  0.61796245  1
  O  O177  1  0.61777077  0.62046374  0.12048909  1
  O  O178  1  0.61489474  0.60731132  0.62685553  1
  O  O179  1  0.38877958  0.37886810  0.36784734  1
  O  O180  1  0.37858111  0.37642480  0.88024190  1
  O  O181  1  0.37103213  0.87776575  0.39007716  1
  O  O182  1  0.38844528  0.87310113  0.88384437  1
  O  O183  1  0.88954224  0.37657719  0.37019524  1
  O  O184  1  0.88398919  0.38330746  0.87159837  1
  O  O185  1  0.87621643  0.89980899  0.38111309  1
  O  O186  1  0.88790856  0.86848758  0.87309334  1
  O  O187  1  0.25963405  0.01007520  0.36175890  1
  O  O188  1  0.24954581  0.01245031  0.88695353  1
  O  O189  1  0.24976244  0.50641223  0.37092103  1
  O  O190  1  0.25274461  0.50287560  0.87137841  1
  O  O191  1  0.75691645  0.01028390  0.35857296  1
  O  O192  1  0.73922762  0.01304822  0.86856189  1
  O  O193  1  0.75152194  0.50612770  0.36752524  1
  O  O194  1  0.75738302  0.50457558  0.87267973  1
  O  O195  1  0.24180857  0.49428090  0.12930891  1
  O  O196  1  0.24437244  0.49171315  0.62898173  1
  O  O197  1  0.24367105  1.00681041  0.13298240  1
  O  O198  1  0.25062686  0.98728537  0.62313849  1
  O  O199  1  0.74656522  0.49508689  0.13190359  1
  O  O200  1  0.74133674  0.48890675  0.62815048  1
  O  O201  1  0.74117727  1.00003182  0.13426171  1
  O  O202  1  0.73263985  1.01817829  0.64083317  1
  O  O203  1  0.00806656  0.36774031  0.25197896  1
  O  O204  1  0.00303528  0.36386758  0.76286479  1
  O  O205  1  0.00626497  0.86501008  0.24569051  1
  O  O206  1  0.01222869  0.86172901  0.76141529  1
  O  O207  1  0.50866725  0.38524003  0.26183970  1
  O  O208  1  0.50796976  0.36840715  0.75636421  1
  O  O209  1  0.48890039  0.87087254  0.25925890  1
  O  O210  1  0.49862286  0.87722424  0.76572852  1
  O  O211  1  0.50746224  0.12666887  0.23892732  1
  O  O212  1  0.48983895  0.13054471  0.74424279  1
  O  O213  1  0.48940129  0.62379506  0.24351510  1
  O  O214  1  0.49329450  0.61871575  0.73897151  1
  O  O215  1  1.00184709  0.14269381  0.24471703  1
  O  O216  1  0.98494324  0.13896779  0.76361234  1
  O  O217  1  0.98953329  0.63862847  0.24240501  1
  O  O218  1  0.99040528  0.62836390  0.75168204  1
  O  O219  1  0.36879423  0.25769161  0.00519725  1
  O  O220  1  0.36972387  0.24622711  0.51402032  1
  O  O221  1  0.35619915  0.74109059  0.00227933  1
  O  O222  1  0.36658144  0.75687264  0.50488328  1
  O  O223  1  0.87587978  0.25196427  0.00969069  1
  O  O224  1  0.86011184  0.24641640  0.50865432  1
  O  O225  1  0.86778862  0.76148407  -0.00214579  1
  O  O226  1  0.85443056  0.75627523  0.46888309  1
  O  O227  1  0.13863903  0.25764603  0.48141400  1
  O  O228  1  0.13629367  0.25125524  0.99079938  1
  O  O229  1  0.14042704  0.75775955  0.49174302  1
  O  O230  1  0.13155313  0.74572488  0.99521472  1
  O  O231  1  0.63705347  0.24068611  0.50041949  1
  O  O232  1  0.62600945  0.25559919  0.98783448  1
  O  O233  1  0.62503527  0.73916947  0.48610112  1
  O  O234  1  0.63180609  0.73930669  0.99972550  1
  O  O235  1  0.49697931  0.23733776  0.12073566  1
  O  O236  1  0.49181452  0.24374361  0.62916559  1
  O  O237  1  0.49899499  0.73726474  0.12632584  1
  O  O238  1  0.49491048  0.73774109  0.62484820  1
  O  O239  1  0.99455628  0.25143731  0.12760770  1
  O  O240  1  0.98276756  0.25690152  0.63999573  1
  O  O241  1  1.00653172  0.74087800  0.13309859  1
  O  O242  1  1.01440671  0.73748647  0.64021888  1
  O  O243  1  0.00754009  0.25849484  0.36405001  1
  O  O244  1  0.00545464  0.25507339  0.87452856  1
  O  O245  1  0.01658360  0.74755836  0.36532283  1
  O  O246  1  0.00815992  0.75512480  0.87171403  1
  O  O247  1  0.50207600  0.26467368  0.37576511  1
  O  O248  1  0.50592241  0.25294449  0.87040312  1
  O  O249  1  0.51263429  0.74343919  0.37647574  1
  O  O250  1  0.50082300  0.76169730  0.87862878  1
  O  O251  1  0.24782853  0.13693365  0.49120848  1
  O  O252  1  0.26046331  0.13618003  0.99160713  1
  O  O253  1  0.25688034  0.63508598  0.49197822  1
  O  O254  1  0.23959462  0.62906410  0.99511606  1
  O  O255  1  0.74333837  0.13067868  0.48639856  1
  O  O256  1  0.75412022  0.12425484  0.98653109  1
  O  O257  1  0.74983437  0.61523307  0.48460426  1
  O  O258  1  0.74397339  0.62814927  0.99634096  1
  O  O259  1  0.25478111  0.36511491  0.00557659  1
  O  O260  1  0.25309753  0.36238331  0.50732123  1
  O  O261  1  0.24971109  0.85759868  -0.00689317  1
  O  O262  1  0.26180836  0.86701405  0.50979525  1
  O  O263  1  0.74500930  0.37723253  0.01287417  1
  O  O264  1  0.74627590  0.37035062  0.50242639  1
  O  O265  1  0.76405418  0.86692529  -0.00440622  1
  O  O266  1  0.76785527  0.92666611  0.50881544  1
  O  O267  1  0.12954757  0.48688987  0.24366260  1
  O  O268  1  0.13155212  0.49067731  0.74745525  1
  O  O269  1  0.13169301  0.99513202  0.24119891  1
  O  O270  1  0.13629566  0.97983127  0.76212176  1
  O  O271  1  0.63599971  0.49410982  0.24460351  1
  O  O272  1  0.63052303  0.49060484  0.74408801  1
  O  O273  1  0.64349239  0.99986526  0.23934359  1
  O  O274  1  0.62911101  0.99850016  0.74106004  1
  O  O275  1  0.36306047  0.00082360  0.24400127  1
  O  O276  1  0.37644689  0.01545799  0.74596817  1
  O  O277  1  0.36584845  0.51123399  0.25083972  1
  O  O278  1  0.36671825  0.50252342  0.75624949  1
  O  O279  1  0.86299460  0.00323190  0.25076533  1
  O  O280  1  0.86340129  0.01516234  0.74826032  1
  O  O281  1  0.86412044  0.50645733  0.25182395  1
  O  O282  1  0.87036860  0.50402734  0.75968269  1
  O  O283  1  0.11779785  0.37015755  0.36591160  1
  O  O284  1  0.11719656  0.36575974  0.86894069  1
  O  O285  1  0.12426505  0.87205826  0.36780040  1
  O  O286  1  0.12450911  0.85910099  0.87144391  1
  O  O287  1  0.61495024  0.37364608  0.36512179  1
  O  O288  1  0.61855405  0.36885515  0.86837491  1
  O  O289  1  0.62499540  0.86102404  0.38299632  1
  O  O290  1  0.61149278  0.87290873  0.87609491  1
  O  O291  1  0.39470377  0.13324598  0.12021478  1
  O  O292  1  0.37841312  0.13095631  0.63266175  1
  O  O293  1  0.38162089  0.62630858  0.13247149  1
  O  O294  1  0.38022973  0.62792260  0.63085522  1
  O  O295  1  0.87849288  0.13518841  0.12389867  1
  O  O296  1  0.87746905  0.13438381  0.63518332  1
  O  O297  1  0.88236897  0.62212457  0.13894193  1
  O  O298  1  0.87679421  0.61987813  0.63572573  1
  O  O299  1  0.25652146  0.25108251  0.11684048  1
  O  O300  1  0.25449124  0.25443752  0.61758804  1
  O  O301  1  0.24503648  0.74250408  0.11112744  1
  O  O302  1  0.25544444  0.75334455  0.61717677  1
  O  O303  1  0.75808658  0.25952915  0.12064743  1
  O  O304  1  0.75759059  0.24648484  0.61996544  1
  O  O305  1  0.74751433  0.74210743  0.11480805  1
  O  O306  1  0.75242064  0.74113100  0.63486026  1
  O  O307  1  0.24610378  0.24820912  0.37770479  1
  O  O308  1  0.24234104  0.24507372  0.88205217  1
  O  O309  1  0.24269770  0.74575970  0.38003231  1
  O  O310  1  0.24312916  0.74073947  0.88310235  1
  O  O311  1  0.74977542  0.24668509  0.38172029  1
  O  O312  1  0.74055340  0.24237141  0.87946232  1
  O  O313  1  0.73403569  0.73128435  0.36661726  1
  O  O314  1  0.74823002  0.73399122  0.88604346  1
  O  O315  1  -0.00699766  0.10569242  -0.00879586  1
  O  O316  1  0.01350369  0.16175127  0.50607575  1
  O  O317  1  0.00230246  0.62287687  0.00806055  1
  O  O318  1  -0.00113403  0.62531559  0.49781285  1
  O  O319  1  0.50573439  0.11528126  -0.00136990  1
  O  O320  1  0.50856586  0.13500197  0.50970790  1
  O  O321  1  0.50742312  0.62385343  0.00670093  1
  O  O322  1  0.49808306  0.61451416  0.51264887  1
  O  O323  1  0.50503870  0.37978852  0.48420204  1
  O  O324  1  0.49214844  0.37731932  0.99456774  1
  O  O325  1  0.48490482  0.86868711  0.49735527  1
  O  O326  1  0.50071202  0.88641344  0.99144105  1
  O  O327  1  1.00253603  0.36502038  0.48544184  1
  O  O328  1  1.00542100  0.38122286  0.98925468  1
  O  O329  1  0.98803453  0.87797886  0.52371554  1
  O  O330  1  0.98865047  0.87439120  0.98967925  1
  O  O331  1  0.49783125  0.49271330  0.38382251  1
  O  O332  1  0.49192093  0.49217671  0.87654945  1
  O  O333  1  0.49892847  1.00568712  0.37819179  1
  O  O334  1  0.50790989  0.99496608  0.88856006  1
  O  O335  1  0.99901479  0.48384706  0.37773866  1
  O  O336  1  0.99299270  0.49200844  0.87995191  1
  O  O337  1  0.98998872  1.00589189  0.36137602  1
  O  O338  1  1.00504865  0.97856673  0.87766655  1
  O  O339  1  0.00614508  0.00191407  0.11463873  1
  O  O340  1  0.01745381  0.01383774  0.66095777  1
  O  O341  1  0.00299570  0.50806551  0.12122521  1
  O  O342  1  0.01717544  0.49647351  0.63076626  1
  O  O343  1  0.51263014  0.01155059  0.11904683  1
  O  O344  1  0.50597548  0.01342302  0.62820883  1
  O  O345  1  0.50458929  0.51113731  0.12353989  1
  O  O346  1  0.50343891  0.50024133  0.61974193  1
  O  O347  1  0.24302701  0.37966840  0.24397660  1
  O  O348  1  0.24429464  0.37679551  0.74451013  1
  O  O349  1  0.24240177  0.89121297  0.25439896  1
  O  O350  1  0.24607218  0.86137433  0.74086331  1
  O  O351  1  0.74383852  0.38308765  0.24263652  1
  O  O352  1  0.73632054  0.37832922  0.75756615  1
  O  O353  1  0.75744364  0.88084926  0.26098899  1
  O  O354  1  0.74490243  0.89045138  0.75849412  1
  O  O355  1  0.24509767  0.11199120  0.25446658  1
  O  O356  1  0.26233697  0.13042573  0.75774856  1
  O  O357  1  0.25324717  0.61948000  0.25696140  1
  O  O358  1  0.25498789  0.61780674  0.75755389  1
  O  O359  1  0.74913347  0.13313277  0.25893519  1
  O  O360  1  0.75237774  0.12176614  0.76075221  1
  O  O361  1  0.75561073  0.61688949  0.25545232  1
  O  O362  1  0.75621832  0.61402486  0.75957375  1
  O  O363  1  0.36249377  0.13147139  0.37542846  1
  O  O364  1  0.36765756  0.13197155  0.86050184  1
  O  O365  1  0.36444771  0.62333019  0.36840498  1
  O  O366  1  0.37018976  0.61678426  0.87150535  1
  O  O367  1  0.86710736  0.12201076  0.36215461  1
  O  O368  1  0.85524324  0.13201287  0.86634783  1
  O  O369  1  0.86330792  0.61788877  0.36498175  1
  O  O370  1  0.86813838  0.61554405  0.87011234  1
  O  O371  1  0.13117989  0.37766520  0.13063753  1
  O  O372  1  0.13782814  0.38295357  0.63157527  1
  O  O373  1  0.12183264  0.88467238  0.13864734  1
  O  O374  1  0.13703416  0.87463402  0.63612136  1
  O  O375  1  0.62929333  0.38313952  0.13043960  1
  O  O376  1  0.61516890  0.38205521  0.63394923  1
  O  O377  1  0.61986472  0.88763091  0.12474682  1
  O  O378  1  0.61347219  0.88804482  0.62397779  1
  O  O379  1  0.12275071  0.25981161  0.25496028  1
  O  O380  1  0.11393692  0.25264868  0.75560072  1
  O  O381  1  0.12236160  0.76090941  0.25695069  1
  O  O382  1  0.12103179  0.74936630  0.76049859  1
  O  O383  1  0.62958599  0.26646303  0.24752071  1
  O  O384  1  0.61924667  0.25554683  0.75540095  1
  O  O385  1  0.61837251  0.74001284  0.26994306  1
  O  O386  1  0.61707133  0.75109332  0.75721219  1
  O  O387  1  0.37188003  0.25328956  0.23333429  1
  O  O388  1  0.37983188  0.24375811  0.73897486  1
  O  O389  1  0.37092272  0.73713050  0.24835702  1
  O  O390  1  0.37914702  0.74054580  0.74439229  1
  O  O391  1  0.88420766  0.25219172  0.23692525  1
  O  O392  1  0.87610175  0.24564395  0.74546163  1
  O  O393  1  0.88409273  0.74425961  0.26523252  1
  O  O394  1  0.88813470  0.73617418  0.75769120  1
  O  O395  1  0.38595640  0.49854495  0.50109635  1
  O  O396  1  0.37225189  0.49043293  0.99469485  1
  O  O397  1  0.37083738  0.98716365  0.50077608  1
  O  O398  1  0.39629324  1.00511274  1.00353429  1
  O  O399  1  0.86167100  0.48631942  0.50874091  1
  O  O400  1  0.88022337  0.50550134  0.98917146  1
  O  O401  1  0.89163122  1.02811023  0.47982435  1
  O  O402  1  0.88190254  0.98193906  1.00240691  1
  O  O403  1  0.11172148  -0.01367801  0.00963743  1
  O  O404  1  0.12414598  -0.00448092  0.49431529  1
  O  O405  1  0.11725131  0.50540414  0.00441442  1
  O  O406  1  0.12979315  0.49570738  0.51008858  1
  O  O407  1  0.62002637  -0.00180799  0.01477266  1
  O  O408  1  0.62689310  0.01531439  0.50699792  1
  O  O409  1  0.62396477  0.51171186  0.00695502  1
  O  O410  1  0.61335689  0.49934599  0.50920573  1
  O  O411  1  0.37122840  0.37000762  0.11891200  1
  O  O412  1  0.36097667  0.36603008  0.63344542  1
  O  O413  1  0.37547991  0.87196587  0.11358793  1
  O  O414  1  0.37237360  0.86965954  0.61883100  1
  O  O415  1  0.86526883  0.36987066  0.12903629  1
  O  O416  1  0.86747716  0.37317925  0.62709481  1
  O  O417  1  0.87974890  0.87120046  0.11446078  1
  O  O418  1  0.87047293  0.86919209  0.63397232  1
  O  O419  1  0.13704810  0.13557081  0.37249111  1
  O  O420  1  0.13464139  0.13538066  0.86729881  1
  O  O421  1  0.13833563  0.63378314  0.37526046  1
  O  O422  1  0.12644397  0.63216566  0.88072079  1
  O  O423  1  0.63196539  0.12988246  0.37996188  1
  O  O424  1  0.63590584  0.13474683  0.86866632  1
  O  O425  1  0.63579191  0.61983097  0.37759984  1
  O  O426  1  0.63293359  0.62085980  0.88478384  1
