# generated using pymatgen
data_V85Zn86O256
_symmetry_space_group_name_H-M   'P 1'
_cell_length_a   16.95419371
_cell_length_b   16.95875529
_cell_length_c   16.96909301
_cell_angle_alpha   90.01427334
_cell_angle_beta   89.95343700
_cell_angle_gamma   90.03355203
_symmetry_Int_Tables_number   1
_chemical_formula_structural   V85Zn86O256
_chemical_formula_sum   'V85 Zn86 O256'
_cell_volume   4878.98533979
_cell_formula_units_Z   1
loop_
 _symmetry_equiv_pos_site_id
 _symmetry_equiv_pos_as_xyz
  1  'x, y, z'
loop_
 _atom_site_type_symbol
 _atom_site_label
 _atom_site_symmetry_multiplicity
 _atom_site_fract_x
 _atom_site_fract_y
 _atom_site_fract_z
 _atom_site_occupancy
  V  V0  1  0.62268054  0.87031078  0.24988414  1
  V  V1  1  0.88196699  0.62847862  0.74775120  1
  V  V2  1  0.25065498  0.12585243  0.87219275  1
  V  V3  1  0.74198576  0.25032491  -0.00552254  1
  V  V4  1  0.50124502  0.13269121  0.62624822  1
  V  V5  1  0.74651868  0.75204387  -0.00067219  1
  V  V6  1  0.49945061  0.87299436  0.87378592  1
  V  V7  1  0.62501856  0.25031308  0.37436438  1
  V  V8  1  0.50565821  0.51398591  0.00206400  1
  V  V9  1  0.87789778  0.74746905  0.62390654  1
  V  V10  1  0.75073545  0.87609784  0.63363520  1
  V  V11  1  0.74450206  0.24882289  0.49972699  1
  V  V12  1  0.11077736  0.37104537  0.25046280  1
  V  V13  1  0.00157516  0.12938150  0.12562221  1
  V  V14  1  0.49763139  0.74857847  0.74302703  1
  V  V15  1  0.87833297  0.25091636  0.12679068  1
  V  V16  1  0.12707451  0.50024773  0.11959989  1
  V  V17  1  0.87942294  0.87459284  -0.00829343  1
  V  V18  1  0.62308521  0.74460056  0.87507027  1
  V  V19  1  0.50431880  0.36489227  0.87720638  1
  V  V20  1  -0.00153290  0.50489544  -0.00181802  1
  V  V21  1  0.62217874  0.74950369  0.38052410  1
  V  V22  1  0.36533915  0.50720108  0.87894697  1
  V  V23  1  0.38011686  0.13689157  0.74526165  1
  V  V24  1  0.00279618  0.62502225  0.12313712  1
  V  V25  1  0.00281175  0.11973751  0.62991724  1
  V  V26  1  0.87346259  0.49906250  0.87618171  1
  V  V27  1  0.74154250  0.12558443  0.86982656  1
  V  V28  1  0.36800243  0.62968057  0.74767750  1
  V  V29  1  0.62293246  0.50417964  0.62726177  1
  V  V30  1  0.11016272  0.87090042  0.76335935  1
  V  V31  1  0.37236157  0.85903037  0.50635943  1
  V  V32  1  0.75089011  0.00061466  0.24935043  1
  V  V33  1  0.37021238  0.87182800  0.00078565  1
  V  V34  1  0.88325416  0.49494355  0.37538785  1
  V  V35  1  0.62254321  0.37672969  0.24927916  1
  V  V36  1  0.62844269  0.00238708  0.12049686  1
  V  V37  1  0.74873107  0.50093328  0.25291595  1
  V  V38  1  0.25235366  -0.00189832  0.74438921  1
  V  V39  1  0.37632963  -0.00443071  0.37634842  1
  V  V40  1  0.24678369  0.86466058  0.12296855  1
  V  V41  1  0.05201904  0.82260986  0.42490511  1
  V  V42  1  0.74830155  0.62600753  0.87519660  1
  V  V43  1  0.87815258  0.12758106  0.24816971  1
  V  V44  1  0.74815406  0.37328015  0.12623894  1
  V  V45  1  0.00648053  0.75716771  0.24884565  1
  V  V46  1  0.48747820  0.37718736  0.37758366  1
  V  V47  1  0.87190465  0.12403162  0.74875682  1
  V  V48  1  0.49280294  0.50073311  0.50348698  1
  V  V49  1  0.87170233  0.25142778  0.62923990  1
  V  V50  1  0.25020277  0.49955019  0.25539239  1
  V  V51  1  0.49959403  -0.00280042  0.50570802  1
  V  V52  1  0.74427418  0.50050256  0.75170524  1
  V  V53  1  0.00837384  0.50248522  0.50574566  1
  V  V54  1  0.88228012  -0.00328123  0.37380526  1
  V  V55  1  0.50005353  0.00057512  -0.00139152  1
  V  V56  1  0.87362164  0.37653198  -0.00250105  1
  V  V57  1  0.12577347  -0.00093055  0.12309981  1
  V  V58  1  0.25627362  0.85525884  0.63122013  1
  V  V59  1  0.37563186  0.24840151  0.12582042  1
  V  V60  1  0.87631826  0.62638096  0.25104913  1
  V  V61  1  0.26104224  0.25578963  0.50559548  1
  V  V62  1  0.24446470  0.48756562  0.73491771  1
  V  V63  1  0.37329774  0.37559256  0.00151993  1
  V  V64  1  0.00066883  -0.00160113  -0.00817059  1
  V  V65  1  0.49853804  0.24914194  0.25053157  1
  V  V66  1  0.87235410  -0.00077987  0.86717171  1
  V  V67  1  0.62246055  0.36305655  0.75493386  1
  V  V68  1  0.25271416  -0.00310289  0.24807946  1
  V  V69  1  0.75113145  0.62942066  0.38323634  1
  V  V70  1  0.38578091  0.63258603  0.25138310  1
  V  V71  1  0.11851916  0.73249476  0.88402495  1
  V  V72  1  0.37648336  0.12056564  0.24943953  1
  V  V73  1  0.86325622  0.86625238  0.49128099  1
  V  V74  1  0.23680601  0.64260581  0.38093960  1
  V  V75  1  0.25046436  0.12611647  0.37531003  1
  V  V76  1  0.11341774  0.24786262  0.36815936  1
  V  V77  1  0.12497594  0.12694281  -0.00307042  1
  V  V78  1  0.00989838  0.37078906  0.87515388  1
  V  V79  1  0.87698664  0.75164457  0.12232440  1
  V  V80  1  0.12613163  0.12199216  0.50120384  1
  V  V81  1  0.25106155  0.24996726  -0.00102200  1
  V  V82  1  0.05427682  0.30720405  0.69781558  1
  V  V83  1  0.75004449  0.12467587  0.37480399  1
  V  V84  1  0.87468554  0.37394274  0.49628023  1
  Zn  Zn85  1  0.24928272  0.73178200  -0.00322599  1
  Zn  Zn86  1  0.49689304  0.63127147  0.62181387  1
  Zn  Zn87  1  0.49548416  0.86632127  0.37640378  1
  Zn  Zn88  1  0.37555195  -0.00001900  0.87251105  1
  Zn  Zn89  1  0.50026502  0.12322261  0.12370799  1
  Zn  Zn90  1  0.24932479  0.37293668  0.12813824  1
  Zn  Zn91  1  0.00115426  -0.00413989  0.49725846  1
  Zn  Zn92  1  0.62056147  0.13062531  -0.00665964  1
  Zn  Zn93  1  0.75438136  0.87823188  0.12280050  1
  Zn  Zn94  1  0.60831625  0.52248722  0.13141638  1
  Zn  Zn95  1  0.01562987  0.61867423  0.62670929  1
  Zn  Zn96  1  0.12045024  0.24967605  0.86923259  1
  Zn  Zn97  1  0.63237722  0.00061548  0.63142365  1
  Zn  Zn98  1  0.32348373  0.41029429  0.56887606  1
  Zn  Zn99  1  0.62736076  0.62751097  0.50497781  1
  Zn  Zn100  1  0.63097000  0.87722508  0.75364628  1
  Zn  Zn101  1  0.12366840  -0.01304771  0.62327400  1
  Zn  Zn102  1  0.74152017  0.37363318  0.62495938  1
  Zn  Zn103  1  0.62543820  0.11941069  0.50132812  1
  Zn  Zn104  1  0.36694212  0.50392724  0.38338982  1
  Zn  Zn105  1  0.40481229  0.73288095  0.11924289  1
  Zn  Zn106  1  0.12225502  0.87602525  0.25528347  1
  Zn  Zn107  1  0.18867375  0.18742521  0.18732363  1
  Zn  Zn108  1  0.19528271  0.18487463  0.68177040  1
  Zn  Zn109  1  0.18818591  0.68333308  0.19266001  1
  Zn  Zn110  1  0.18749464  0.68248475  0.70914960  1
  Zn  Zn111  1  0.68719768  0.18670408  0.18535110  1
  Zn  Zn112  1  0.68573883  0.18358275  0.68528939  1
  Zn  Zn113  1  0.68579335  0.69069371  0.19055122  1
  Zn  Zn114  1  0.69132208  0.69307765  0.68692640  1
  Zn  Zn115  1  0.30535067  0.31122391  0.31218346  1
  Zn  Zn116  1  0.31322581  0.31604523  0.81440342  1
  Zn  Zn117  1  0.31258671  0.81103288  0.31007139  1
  Zn  Zn118  1  0.30618726  0.80841598  0.81914704  1
  Zn  Zn119  1  0.81455797  0.31209870  0.31143793  1
  Zn  Zn120  1  0.81177441  0.31284349  0.81161710  1
  Zn  Zn121  1  0.80981392  0.81019715  0.30979363  1
  Zn  Zn122  1  0.81878041  0.81038573  0.81144378  1
  Zn  Zn123  1  0.18402296  0.43346779  0.43119001  1
  Zn  Zn124  1  0.18927580  0.55817231  0.93764174  1
  Zn  Zn125  1  0.19701458  0.93615218  0.44552343  1
  Zn  Zn126  1  0.18947136  0.93789822  0.93498550  1
  Zn  Zn127  1  0.68427803  0.43772036  0.43938812  1
  Zn  Zn128  1  0.68323777  0.43884741  0.93946750  1
  Zn  Zn129  1  0.68822250  0.93683872  0.43795115  1
  Zn  Zn130  1  0.68891472  0.93764932  0.93257287  1
  Zn  Zn131  1  0.31415392  0.05925483  0.06196386  1
  Zn  Zn132  1  0.31432110  0.06132563  0.56417419  1
  Zn  Zn133  1  0.31772889  0.56010022  0.07144465  1
  Zn  Zn134  1  0.30734842  0.58039253  0.56417975  1
  Zn  Zn135  1  0.81279943  0.06488278  0.05670053  1
  Zn  Zn136  1  0.81448982  0.05869257  0.56057601  1
  Zn  Zn137  1  0.78031599  0.58019646  0.07915219  1
  Zn  Zn138  1  0.81190276  0.55951948  0.56412025  1
  Zn  Zn139  1  0.43415197  0.44153317  0.18816815  1
  Zn  Zn140  1  0.43902939  0.44487518  0.69901801  1
  Zn  Zn141  1  0.45606963  0.90157270  0.17203013  1
  Zn  Zn142  1  0.43643201  0.93973406  0.68876706  1
  Zn  Zn143  1  0.93436485  0.43895772  0.18520181  1
  Zn  Zn144  1  0.92873456  0.44248393  0.68356682  1
  Zn  Zn145  1  0.93880044  0.93797329  0.18164641  1
  Zn  Zn146  1  0.93603210  0.93650637  0.68210843  1
  Zn  Zn147  1  0.06435909  0.06227799  0.30860437  1
  Zn  Zn148  1  0.06371972  0.06008483  0.80906779  1
  Zn  Zn149  1  0.06323362  0.56176472  0.31084716  1
  Zn  Zn150  1  0.06282312  0.55282216  0.80499305  1
  Zn  Zn151  1  0.56144586  0.05929508  0.31398633  1
  Zn  Zn152  1  0.56253674  0.05825415  0.80700624  1
  Zn  Zn153  1  0.56210739  0.56174419  0.31923958  1
  Zn  Zn154  1  0.55746146  0.56188016  0.81658546  1
  Zn  Zn155  1  0.43998279  0.18348112  0.43766713  1
  Zn  Zn156  1  0.43560891  0.18507383  0.93567235  1
  Zn  Zn157  1  0.43828084  0.68180554  0.43081024  1
  Zn  Zn158  1  0.43300802  0.68803219  0.93647257  1
  Zn  Zn159  1  0.93568249  0.18342434  0.44115150  1
  Zn  Zn160  1  0.93368808  0.18839578  0.93762412  1
  Zn  Zn161  1  0.93636263  0.68211405  0.44021727  1
  Zn  Zn162  1  0.93969370  0.68760194  0.93345712  1
  Zn  Zn163  1  0.06393804  0.31511634  0.05886945  1
  Zn  Zn164  1  0.06108960  0.31272572  0.53239839  1
  Zn  Zn165  1  0.06359721  0.81280911  0.05628676  1
  Zn  Zn166  1  0.09349984  0.76747643  0.59883612  1
  Zn  Zn167  1  0.55995086  0.31723531  0.06426994  1
  Zn  Zn168  1  0.51290452  0.33833849  0.58961660  1
  Zn  Zn169  1  0.56789349  0.81340314  0.05976767  1
  Zn  Zn170  1  0.56531063  0.81424568  0.55940769  1
  O  O171  1  0.11894444  0.12061119  0.11827450  1
  O  O172  1  0.11782143  0.12431621  0.61721294  1
  O  O173  1  0.11030635  0.61476056  0.13334193  1
  O  O174  1  0.11970273  0.65999537  0.62579440  1
  O  O175  1  0.62266198  0.11278323  0.12277562  1
  O  O176  1  0.61816195  0.11761361  0.62179813  1
  O  O177  1  0.67213564  0.61200475  0.11608368  1
  O  O178  1  0.62567252  0.61650566  0.62709566  1
  O  O179  1  0.38553543  0.37549485  0.36877537  1
  O  O180  1  0.38448365  0.38380355  0.88163908  1
  O  O181  1  0.37421123  0.88056929  0.38250398  1
  O  O182  1  0.37949972  0.87517340  0.88587004  1
  O  O183  1  0.86897953  0.38302677  0.38238253  1
  O  O184  1  0.87956887  0.38127731  0.87928223  1
  O  O185  1  0.86549954  0.88149247  0.38293874  1
  O  O186  1  0.87247203  0.88389173  0.88263958  1
  O  O187  1  0.26023347  0.00427855  0.37222745  1
  O  O188  1  0.25011945  0.01182561  0.86518982  1
  O  O189  1  0.24855183  0.49972162  0.36422699  1
  O  O190  1  0.26387205  0.49429498  0.87149696  1
  O  O191  1  0.75769131  0.00519753  0.36701648  1
  O  O192  1  0.76318231  0.01072127  0.88067338  1
  O  O193  1  0.75510487  0.50304448  0.36637064  1
  O  O194  1  0.75102181  0.50888732  0.87285446  1
  O  O195  1  0.23965910  0.49754851  0.13619201  1
  O  O196  1  0.26208176  0.49489024  0.63060391  1
  O  O197  1  0.24250102  0.99463576  0.12832311  1
  O  O198  1  0.24600169  0.99885172  0.63647301  1
  O  O199  1  0.76423020  0.48530298  0.14439896  1
  O  O200  1  0.74118726  0.49574842  0.63327073  1
  O  O201  1  0.74620565  1.00256199  0.13041054  1
  O  O202  1  0.75328691  0.98159805  0.61854360  1
  O  O203  1  0.01194272  0.37684649  0.24422597  1
  O  O204  1  -0.00451804  0.37345831  0.75357318  1
  O  O205  1  0.00088398  0.86609953  0.24446774  1
  O  O206  1  0.01281870  0.87890280  0.74619865  1
  O  O207  1  0.50582493  0.37247881  0.25673396  1
  O  O208  1  0.50878017  0.38287366  0.77037979  1
  O  O209  1  0.52251016  0.89854853  0.26539929  1
  O  O210  1  0.49184099  0.86678348  0.76341409  1
  O  O211  1  0.49373618  0.12977289  0.24923179  1
  O  O212  1  0.48688752  0.12117762  0.74461825  1
  O  O213  1  0.48488058  0.61739691  0.25640721  1
  O  O214  1  0.49056428  0.63285136  0.75161159  1
  O  O215  1  0.99458382  0.11963597  0.23321575  1
  O  O216  1  0.99072423  0.12134369  0.73773441  1
  O  O217  1  0.99312304  0.63041085  0.24264102  1
  O  O218  1  0.98481067  0.61059960  0.74432081  1
  O  O219  1  0.37215616  0.25409535  0.00636165  1
  O  O220  1  0.35942437  0.24531859  0.49011200  1
  O  O221  1  0.37180923  0.75710780  0.00602129  1
  O  O222  1  0.38425876  0.76080197  0.49588129  1
  O  O223  1  0.86430977  0.25490677  0.00957509  1
  O  O224  1  0.86812991  0.25447647  0.50760965  1
  O  O225  1  0.87057018  0.75867856  -0.00067732  1
  O  O226  1  0.87486245  0.76175753  0.50034852  1
  O  O227  1  0.13317691  0.23821942  0.48799738  1
  O  O228  1  0.13441232  0.24394006  0.99878124  1
  O  O229  1  0.10952327  0.77029056  0.48425494  1
  O  O230  1  0.12646610  0.74704808  0.98902374  1
  O  O231  1  0.63998818  0.24861556  0.49322640  1
  O  O232  1  0.63787699  0.25019124  1.00841490  1
  O  O233  1  0.62559457  0.74706543  0.48549724  1
  O  O234  1  0.63836251  0.75485227  0.99277484  1
  O  O235  1  0.49254824  0.24816704  0.13205204  1
  O  O236  1  0.51045568  0.23084094  0.62019592  1
  O  O237  1  0.49549646  0.79453006  0.13984152  1
  O  O238  1  0.50634532  0.75205715  0.63992660  1
  O  O239  1  0.99065049  0.24147753  0.11472985  1
  O  O240  1  0.99507004  0.24685247  0.62844755  1
  O  O241  1  0.99642948  0.74234546  0.12743767  1
  O  O242  1  0.98004416  0.74971454  0.61942142  1
  O  O243  1  0.01356560  0.24104826  0.37942276  1
  O  O244  1  -0.00101337  0.26110479  0.88029353  1
  O  O245  1  -0.00382256  0.75309879  0.36700291  1
  O  O246  1  0.01749455  0.74958709  0.87919554  1
  O  O247  1  0.50528014  0.25711466  0.37085517  1
  O  O248  1  0.49694708  0.26587447  0.88145241  1
  O  O249  1  0.51728665  0.74889780  0.37281668  1
  O  O250  1  0.50706282  0.75474687  0.87229114  1
  O  O251  1  0.24323805  0.12870921  0.49486492  1
  O  O252  1  0.24756025  0.12735526  0.98995665  1
  O  O253  1  0.25190410  0.62684631  0.48006714  1
  O  O254  1  0.25531445  0.61889840  1.00241618  1
  O  O255  1  0.75224914  0.13162214  0.49337229  1
  O  O256  1  0.74804019  0.13389561  0.98968845  1
  O  O257  1  0.74844439  0.61647307  0.48628577  1
  O  O258  1  0.76361258  0.63934730  0.98134840  1
  O  O259  1  0.26688022  0.36706742  0.00324181  1
  O  O260  1  0.24876487  0.36213296  0.49509295  1
  O  O261  1  0.25685826  0.87665326  0.00556687  1
  O  O262  1  0.25661041  0.87445233  0.52145081  1
  O  O263  1  0.75330511  0.36992004  0.00428209  1
  O  O264  1  0.75687822  0.36701650  0.50099749  1
  O  O265  1  0.75915122  0.86763944  -0.00251287  1
  O  O266  1  0.76125328  0.87452017  0.50508828  1
  O  O267  1  0.12714108  0.48829766  0.24244795  1
  O  O268  1  0.14583474  0.50167091  0.74652235  1
  O  O269  1  0.13332538  0.99891120  0.24117720  1
  O  O270  1  0.13291008  0.98854529  0.74777556  1
  O  O271  1  0.63149073  0.49475940  0.24969699  1
  O  O272  1  0.62980457  0.49825416  0.74797788  1
  O  O273  1  0.63799207  0.99974249  0.24467143  1
  O  O274  1  0.61933182  0.98797348  0.74397181  1
  O  O275  1  0.36951914  0.00095534  0.25949972  1
  O  O276  1  0.36640484  0.00781123  0.75336068  1
  O  O277  1  0.36358711  0.50572903  0.25298125  1
  O  O278  1  0.37170905  0.51082891  0.76283524  1
  O  O279  1  0.86695192  0.00354505  0.25253568  1
  O  O280  1  0.88028393  0.00683734  0.75872458  1
  O  O281  1  0.87018695  0.50309373  0.25907081  1
  O  O282  1  0.86179111  0.50457288  0.75587779  1
  O  O283  1  0.12322405  0.36401876  0.35901952  1
  O  O284  1  0.10863525  0.37261146  0.87353571  1
  O  O285  1  0.11800633  0.88565224  0.37505527  1
  O  O286  1  0.12089831  0.88097321  0.86476136  1
  O  O287  1  0.61937257  0.37047941  0.36435572  1
  O  O288  1  0.61282446  0.37726744  0.87195930  1
  O  O289  1  0.63010820  0.86204976  0.37039107  1
  O  O290  1  0.61685668  0.86406126  0.87591789  1
  O  O291  1  0.37735385  0.12923680  0.13145021  1
  O  O292  1  0.38199065  0.12179609  0.63772760  1
  O  O293  1  0.37545963  0.62472189  0.14396576  1
  O  O294  1  0.37859334  0.62632323  0.64386012  1
  O  O295  1  0.88201549  0.13154081  0.12607072  1
  O  O296  1  0.88141364  0.13015033  0.62879639  1
  O  O297  1  0.88115916  0.63129271  0.13070871  1
  O  O298  1  0.86908450  0.63173198  0.63236899  1
  O  O299  1  0.25968857  0.24872542  0.11857338  1
  O  O300  1  0.24970849  0.24737695  0.60477336  1
  O  O301  1  0.24228734  0.76107353  0.12307845  1
  O  O302  1  0.25917951  0.75811729  0.64138606  1
  O  O303  1  0.75661234  0.25486824  0.11886861  1
  O  O304  1  0.75579091  0.25056874  0.61587898  1
  O  O305  1  0.75902975  0.75489679  0.11415316  1
  O  O306  1  0.76147405  0.76276305  0.62482175  1
  O  O307  1  0.23988386  0.24123438  0.37865761  1
  O  O308  1  0.24833661  0.24002081  0.87879207  1
  O  O309  1  0.24371856  0.74228449  0.36825402  1
  O  O310  1  0.22849417  0.75549833  0.88131727  1
  O  O311  1  0.74705709  0.24434681  0.37995630  1
  O  O312  1  0.75797736  0.24017747  0.88434553  1
  O  O313  1  0.74136404  0.73857269  0.36968983  1
  O  O314  1  0.74300885  0.74621779  0.87765584  1
  O  O315  1  0.00268556  0.11950503  0.00760708  1
  O  O316  1  0.00710884  0.12415254  0.51188832  1
  O  O317  1  -0.00868652  0.61242666  0.00783325  1
  O  O318  1  -0.00566514  0.60646090  0.50221891  1
  O  O319  1  0.50210603  0.11485903  -0.00015001  1
  O  O320  1  0.49972374  0.11517637  0.50789640  1
  O  O321  1  0.49572240  0.61346241  0.00023735  1
  O  O322  1  0.50338125  0.61413562  0.50040820  1
  O  O323  1  0.50913129  0.39034765  0.48732695  1
  O  O324  1  0.49177532  0.37953955  0.99265533  1
  O  O325  1  0.49218984  0.88108548  0.49876380  1
  O  O326  1  0.49350263  0.88004280  0.98853761  1
  O  O327  1  0.98240140  0.38457222  0.49728188  1
  O  O328  1  0.99449789  0.38547476  0.99421316  1
  O  O329  1  0.98782815  0.87640311  0.48764012  1
  O  O330  1  0.99162225  0.88694616  1.00261663  1
  O  O331  1  0.49528989  0.49302866  0.38388136  1
  O  O332  1  0.49139257  0.49422098  0.88811766  1
  O  O333  1  0.48796696  1.00181936  0.38679971  1
  O  O334  1  0.50052915  0.99101772  0.88432981  1
  O  O335  1  0.98697744  0.50390078  0.38045302  1
  O  O336  1  0.99515439  0.49385372  0.88157300  1
  O  O337  1  0.98501753  1.00749274  0.37287953  1
  O  O338  1  0.99015104  1.01035861  0.88589938  1
  O  O339  1  0.00528449  0.00830606  0.11312025  1
  O  O340  1  0.00387495  0.00628251  0.61879511  1
  O  O341  1  0.00297687  0.50600094  0.11758556  1
  O  O342  1  -0.00471278  0.50003631  0.61052868  1
  O  O343  1  0.50919182  -0.00495200  0.11181732  1
  O  O344  1  0.49759324  0.00453806  0.61418665  1
  O  O345  1  0.49816243  0.49511260  0.10861581  1
  O  O346  1  0.50714762  0.50811034  0.62014403  1
  O  O347  1  0.24071724  0.38287112  0.24763075  1
  O  O348  1  0.25809311  0.38918915  0.74843028  1
  O  O349  1  0.24691880  0.88038300  0.24043960  1
  O  O350  1  0.25220889  0.88241931  0.74448200  1
  O  O351  1  0.74079256  0.37974634  0.24912762  1
  O  O352  1  0.74044244  0.38367070  0.75147716  1
  O  O353  1  0.74355360  0.88566828  0.24752299  1
  O  O354  1  0.75523351  0.87296220  0.73685656  1
  O  O355  1  0.25572132  0.11707766  0.25489656  1
  O  O356  1  0.25772140  0.11894415  0.75361492  1
  O  O357  1  0.25533136  0.61628446  0.25749948  1
  O  O358  1  0.26454363  0.61215266  0.75398395  1
  O  O359  1  0.75733824  0.11886428  0.25293080  1
  O  O360  1  0.76305403  0.12853741  0.75449142  1
  O  O361  1  0.75787741  0.61652868  0.26101396  1
  O  O362  1  0.75578861  0.62160413  0.76030753  1
  O  O363  1  0.37027778  0.11619396  0.36916603  1
  O  O364  1  0.36811632  0.12241783  0.86471754  1
  O  O365  1  0.36423561  0.62352598  0.36421241  1
  O  O366  1  0.37946442  0.61221307  0.86877159  1
  O  O367  1  0.86975980  0.11852575  0.36859999  1
  O  O368  1  0.86938785  0.11966846  0.86546342  1
  O  O369  1  0.86812536  0.61701023  0.37034069  1
  O  O370  1  0.86988503  0.61963110  0.86580789  1
  O  O371  1  0.12586409  0.38121349  0.13262083  1
  O  O372  1  0.10604389  0.35843933  0.63184340  1
  O  O373  1  0.13100773  0.88411812  0.12210209  1
  O  O374  1  0.14039359  0.86714900  0.64078313  1
  O  O375  1  0.62880819  0.37755460  0.13849951  1
  O  O376  1  0.61632026  0.38856290  0.63824255  1
  O  O377  1  0.63342160  0.88891369  0.13225528  1
  O  O378  1  0.64278609  0.87109929  0.62311879  1
  O  O379  1  0.12718905  0.26124507  0.25220571  1
  O  O380  1  0.12169352  0.24787340  0.74847114  1
  O  O381  1  0.10996953  0.75234003  0.24477880  1
  O  O382  1  0.12706301  0.76395992  0.76846386  1
  O  O383  1  0.61890233  0.25664874  0.25309749  1
  O  O384  1  0.63209838  0.26442962  0.74680745  1
  O  O385  1  0.63170865  0.76182922  0.25859989  1
  O  O386  1  0.61718839  0.75526341  0.75895149  1
  O  O387  1  0.37866451  0.24348317  0.24533641  1
  O  O388  1  0.36969367  0.23473918  0.75375059  1
  O  O389  1  0.37432862  0.73644605  0.24763408  1
  O  O390  1  0.38148108  0.73534148  0.76529948  1
  O  O391  1  0.87086367  0.24474006  0.23539201  1
  O  O392  1  0.87050527  0.24374562  0.73585068  1
  O  O393  1  0.88297061  0.74691136  0.24261883  1
  O  O394  1  0.87254509  0.73818276  0.74168789  1
  O  O395  1  0.37985614  0.50082935  0.50330703  1
  O  O396  1  0.38135253  0.49246358  0.99407636  1
  O  O397  1  0.37882467  0.99214402  0.49355247  1
  O  O398  1  0.38411255  0.99314962  0.99571643  1
  O  O399  1  0.87534146  0.49044637  0.49298403  1
  O  O400  1  0.88067719  0.49300668  0.99403081  1
  O  O401  1  0.87685824  0.98836412  0.48957790  1
  O  O402  1  0.88160833  0.99437104  0.99186136  1
  O  O403  1  0.11782887  0.00693469  0.00190260  1
  O  O404  1  0.12458337  0.01078515  0.50130955  1
  O  O405  1  0.11550059  0.49895263  0.01249273  1
  O  O406  1  0.10586746  0.48769692  0.49426049  1
  O  O407  1  0.62023552  0.00042021  0.00572257  1
  O  O408  1  0.61392151  -0.00147877  0.50039704  1
  O  O409  1  0.60850199  0.49850038  0.00217091  1
  O  O410  1  0.61976539  0.50217794  0.51169978  1
  O  O411  1  0.37516735  0.36672149  0.11875114  1
  O  O412  1  0.40780441  0.36824750  0.62588178  1
  O  O413  1  0.36020339  0.88332750  0.11101441  1
  O  O414  1  0.36424955  0.87722516  0.62119671  1
  O  O415  1  0.87101760  0.36661144  0.11899592  1
  O  O416  1  0.86916924  0.36566521  0.61749085  1
  O  O417  1  0.87432164  0.87080391  0.11036340  1
  O  O418  1  0.86811646  0.87064037  0.61283311  1
  O  O419  1  0.13056592  0.12724992  0.37939956  1
  O  O420  1  0.13209034  0.12725089  0.87841022  1
  O  O421  1  0.13793022  0.62305308  0.36745303  1
  O  O422  1  0.12138124  0.62706229  0.87225998  1
  O  O423  1  0.63121162  0.13205599  0.37620715  1
  O  O424  1  0.63807345  0.12102462  0.87216810  1
  O  O425  1  0.63316795  0.63498521  0.37371122  1
  O  O426  1  0.63210906  0.63647675  0.87163469  1
