# generated using pymatgen
data_V85Zn86O256
_symmetry_space_group_name_H-M   'P 1'
_cell_length_a   16.92862782
_cell_length_b   16.91673025
_cell_length_c   16.93356208
_cell_angle_alpha   90.04580666
_cell_angle_beta   89.97701482
_cell_angle_gamma   90.08594943
_symmetry_Int_Tables_number   1
_chemical_formula_structural   V85Zn86O256
_chemical_formula_sum   'V85 Zn86 O256'
_cell_volume   4849.37582681
_cell_formula_units_Z   1
loop_
 _symmetry_equiv_pos_site_id
 _symmetry_equiv_pos_as_xyz
  1  'x, y, z'
loop_
 _atom_site_type_symbol
 _atom_site_label
 _atom_site_symmetry_multiplicity
 _atom_site_fract_x
 _atom_site_fract_y
 _atom_site_fract_z
 _atom_site_occupancy
  V  V0  1  0.24951132  0.37692809  0.13222984  1
  V  V1  1  0.75086871  0.63089548  0.37901085  1
  V  V2  1  0.25068634  0.25258339  0.49992507  1
  V  V3  1  0.87371612  0.76488743  0.61846661  1
  V  V4  1  0.12880986  0.50191692  0.63255652  1
  V  V5  1  0.62521480  0.24225893  0.88007269  1
  V  V6  1  0.50286628  0.51362154  0.00383722  1
  V  V7  1  0.25333307  0.11288587  0.36873405  1
  V  V8  1  0.37632373  0.88746553  0.49702368  1
  V  V9  1  0.49452286  0.86801323  0.37259130  1
  V  V10  1  0.12175226  0.25365047  0.37610003  1
  V  V11  1  0.73022464  0.88559885  0.62431931  1
  V  V12  1  0.87786005  0.74824992  0.12286807  1
  V  V13  1  0.87402824  -0.00276156  0.37772795  1
  V  V14  1  0.25132040  0.62545970  0.87039698  1
  V  V15  1  0.25314236  0.12618284  0.87502364  1
  V  V16  1  0.61818168  0.62835520  0.49631607  1
  V  V17  1  0.26594780  0.00313593  0.75016324  1
  V  V18  1  -0.00343795  0.87299713  0.38105053  1
  V  V19  1  -0.00118951  0.25763524  0.75313315  1
  V  V20  1  0.61754660  0.37230871  0.75107245  1
  V  V21  1  0.00195017  0.74966625  0.25097608  1
  V  V22  1  0.74320383  0.62360718  0.87474599  1
  V  V23  1  0.74574301  -0.00334153  0.25050452  1
  V  V24  1  0.62702601  0.75646080  0.86894985  1
  V  V25  1  0.12783861  0.50222417  0.12693583  1
  V  V26  1  0.87586503  0.12419230  0.25009718  1
  V  V27  1  0.12593721  0.87894974  0.75154913  1
  V  V28  1  0.37905882  -0.00172826  0.89828310  1
  V  V29  1  0.74645962  0.74526741  -0.00142666  1
  V  V30  1  0.35902158  0.50909474  0.37393242  1
  V  V31  1  0.74563645  0.49859463  0.74715405  1
  V  V32  1  0.87710886  0.62423512  0.24948582  1
  V  V33  1  0.12568258  0.62686591  0.00006846  1
  V  V34  1  0.36182075  0.62548211  0.24090529  1
  V  V35  1  0.87312994  0.01041994  0.88117729  1
  V  V36  1  0.49899640  0.38476999  0.37477154  1
  V  V37  1  0.74886792  0.87417969  0.12392476  1
  V  V38  1  0.38468896  0.37883384  0.50065998  1
  V  V39  1  0.62319361  0.25093957  0.37411339  1
  V  V40  1  0.88033462  0.49704884  0.37321077  1
  V  V41  1  0.26427283  0.75491101  0.00351111  1
  V  V42  1  0.87762264  0.37439557  -0.00898752  1
  V  V43  1  0.49824274  0.87597952  0.89126759  1
  V  V44  1  0.00219923  0.49445558  0.49746614  1
  V  V45  1  0.11976966  -0.00224107  0.11394324  1
  V  V46  1  0.13283104  0.62512563  0.49555085  1
  V  V47  1  0.87561836  0.25090302  0.12371858  1
  V  V48  1  0.37673869  0.62196149  0.74771344  1
  V  V49  1  0.12480800  0.00193457  0.62930295  1
  V  V50  1  0.87192507  0.62644764  0.74682486  1
  V  V51  1  0.12440031  0.38057659  0.25510478  1
  V  V52  1  -0.00169232  0.62538079  0.62367363  1
  V  V53  1  0.49907028  0.24703517  0.25089842  1
  V  V54  1  -0.00603205  -0.00092064  0.50361783  1
  V  V55  1  0.50069937  0.11752485  0.11636966  1
  V  V56  1  0.51727741  0.01091120  0.49447615  1
  V  V57  1  0.12359103  0.12591414  0.50123113  1
  V  V58  1  0.00001410  0.75278947  0.75138896  1
  V  V59  1  0.50422540  0.76036211  0.74681027  1
  V  V60  1  0.73941337  0.12316142  0.37369009  1
  V  V61  1  0.61501464  0.49318421  0.61552421  1
  V  V62  1  0.12158341  0.25610460  0.87785811  1
  V  V63  1  0.75051804  0.50019253  0.24925746  1
  V  V64  1  0.12794366  0.88535550  0.25099741  1
  V  V65  1  0.37630145  0.75107898  0.62178381  1
  V  V66  1  0.37327682  0.24769159  0.12911242  1
  V  V67  1  0.87635147  0.37280963  0.49593021  1
  V  V68  1  0.37293385  0.49975138  0.87260777  1
  V  V69  1  0.37573167  0.23905755  0.63372786  1
  V  V70  1  0.49814645  0.73467428  0.23764802  1
  V  V71  1  0.86731791  0.12486138  0.74890798  1
  V  V72  1  0.25137312  0.87440680  0.62500977  1
  V  V73  1  -0.00020054  0.25528773  0.25210714  1
  V  V74  1  0.26157072  0.87630753  0.12660574  1
  V  V75  1  0.74968585  0.24535282  0.50084329  1
  V  V76  1  0.00243444  0.49593008  -0.00917310  1
  V  V77  1  0.37627931  0.37590867  0.00368389  1
  V  V78  1  0.74854884  0.37591642  0.12237123  1
  V  V79  1  0.12666279  0.75258369  0.87542123  1
  V  V80  1  0.25041773  0.37912643  0.63410201  1
  V  V81  1  0.13622263  0.74825410  0.37360050  1
  V  V82  1  0.62345734  0.51254780  0.12101511  1
  V  V83  1  0.62417339  0.86413125  0.25909709  1
  V  V84  1  0.88283036  0.87572519  -0.00340864  1
  Zn  Zn85  1  0.87768018  0.25160663  0.62444720  1
  Zn  Zn86  1  0.12149550  0.38135064  0.75705960  1
  Zn  Zn87  1  0.00313553  0.88358205  0.87903386  1
  Zn  Zn88  1  -0.00009086  0.12780388  0.62814761  1
  Zn  Zn89  1  0.49806859  0.62145156  0.62000468  1
  Zn  Zn90  1  0.25749850  0.74752074  0.49392733  1
  Zn  Zn91  1  0.49855773  0.37308792  0.87658098  1
  Zn  Zn92  1  -0.00153444  0.11915034  0.12052223  1
  Zn  Zn93  1  0.00116436  0.62424986  0.12314079  1
  Zn  Zn94  1  0.56521147  0.07860086  0.65641926  1
  Zn  Zn95  1  0.49264401  0.23219979  0.75414186  1
  Zn  Zn96  1  0.72918790  -0.00085554  0.75339374  1
  Zn  Zn97  1  0.75164762  0.24543805  -0.00640047  1
  Zn  Zn98  1  0.63288066  0.10798681  -0.00436147  1
  Zn  Zn99  1  0.87798545  0.49705745  0.86950026  1
  Zn  Zn100  1  0.37320784  0.10958473  0.25188379  1
  Zn  Zn101  1  0.61524251  -0.01185582  0.11863518  1
  Zn  Zn102  1  0.62282374  0.37717612  0.24590941  1
  Zn  Zn103  1  0.24773181  0.24653074  0.00237822  1
  Zn  Zn104  1  0.11719833  0.12302926  -0.00524253  1
  Zn  Zn105  1  0.74855092  0.37462792  0.62240724  1
  Zn  Zn106  1  0.75134490  0.75533794  0.49762999  1
  Zn  Zn107  1  0.18569754  0.18597237  0.18851291  1
  Zn  Zn108  1  0.18837206  0.18811554  0.69230858  1
  Zn  Zn109  1  0.19126444  0.69263226  0.18861502  1
  Zn  Zn110  1  0.18987088  0.68798285  0.68684922  1
  Zn  Zn111  1  0.68767600  0.18614652  0.18063869  1
  Zn  Zn112  1  0.69098915  0.19080870  0.69221468  1
  Zn  Zn113  1  0.68768358  0.68856980  0.19023869  1
  Zn  Zn114  1  0.68624979  0.68817399  0.68131329  1
  Zn  Zn115  1  0.31138387  0.31270443  0.31339946  1
  Zn  Zn116  1  0.30884942  0.31405007  0.81415849  1
  Zn  Zn117  1  0.31094624  0.93103791  0.31332111  1
  Zn  Zn118  1  0.31723138  0.81561357  0.81299819  1
  Zn  Zn119  1  0.81175511  0.31430177  0.31217773  1
  Zn  Zn120  1  0.80700207  0.31098963  0.81201892  1
  Zn  Zn121  1  0.81559468  0.81166479  0.31298181  1
  Zn  Zn122  1  0.81134096  0.81923940  0.80766529  1
  Zn  Zn123  1  0.18868434  0.43563259  0.44098637  1
  Zn  Zn124  1  0.19229409  0.43669916  0.94056529  1
  Zn  Zn125  1  0.18121008  0.93337967  0.44443295  1
  Zn  Zn126  1  0.19377274  0.93621581  0.93872213  1
  Zn  Zn127  1  0.68865002  0.43675243  0.43540159  1
  Zn  Zn128  1  0.68578784  0.43442816  0.93620117  1
  Zn  Zn129  1  0.68838060  0.93210037  0.44093526  1
  Zn  Zn130  1  0.69123112  0.93641476  0.93561688  1
  Zn  Zn131  1  0.30464373  0.06294126  0.06824971  1
  Zn  Zn132  1  0.31041455  0.06293225  0.55871144  1
  Zn  Zn133  1  0.31009284  0.56321287  0.06080842  1
  Zn  Zn134  1  0.31405606  0.56017185  0.55935805  1
  Zn  Zn135  1  0.80949386  0.06165459  0.06161363  1
  Zn  Zn136  1  0.80904162  0.06356589  0.56433946  1
  Zn  Zn137  1  0.81380092  0.56124146  0.05970166  1
  Zn  Zn138  1  0.80954463  0.56182843  0.56295380  1
  Zn  Zn139  1  0.43759179  0.44394663  0.19073300  1
  Zn  Zn140  1  0.43736030  0.43454056  0.68731284  1
  Zn  Zn141  1  0.44013694  0.93371627  0.18821860  1
  Zn  Zn142  1  0.44783933  0.94041311  0.68381346  1
  Zn  Zn143  1  0.94116766  0.43651271  0.18237034  1
  Zn  Zn144  1  0.93629068  0.43724912  0.68439408  1
  Zn  Zn145  1  0.93798246  0.93515228  0.18963196  1
  Zn  Zn146  1  0.93703813  0.94212839  0.69387320  1
  Zn  Zn147  1  0.06245681  0.06445460  0.31365972  1
  Zn  Zn148  1  0.05821428  0.06809748  0.81495886  1
  Zn  Zn149  1  0.06418042  0.56349318  0.31307137  1
  Zn  Zn150  1  0.06151066  0.56626237  0.81226487  1
  Zn  Zn151  1  0.55608693  0.05466311  0.30874276  1
  Zn  Zn152  1  0.55263608  0.06130354  0.81849011  1
  Zn  Zn153  1  0.56545456  0.56194168  0.31345558  1
  Zn  Zn154  1  0.56024216  0.56416317  0.81226182  1
  Zn  Zn155  1  0.43435595  0.19015302  0.43843335  1
  Zn  Zn156  1  0.43693803  0.18810527  0.93666011  1
  Zn  Zn157  1  0.43847770  0.69024230  0.43075658  1
  Zn  Zn158  1  0.44071090  0.68943597  0.93622731  1
  Zn  Zn159  1  0.93719217  0.18473492  0.43548924  1
  Zn  Zn160  1  0.94148599  0.18651265  0.93875827  1
  Zn  Zn161  1  0.94108881  0.68479365  0.43885626  1
  Zn  Zn162  1  0.93623608  0.68529135  0.93449521  1
  Zn  Zn163  1  0.06060841  0.31049324  0.06231897  1
  Zn  Zn164  1  0.06143866  0.31444468  0.56650239  1
  Zn  Zn165  1  0.06667997  0.81133764  0.06344629  1
  Zn  Zn166  1  0.06308369  0.81220580  0.56262099  1
  Zn  Zn167  1  0.55985440  0.31559039  0.06334294  1
  Zn  Zn168  1  0.57927951  0.26914926  0.58081162  1
  Zn  Zn169  1  0.56650394  0.80336586  0.06450206  1
  Zn  Zn170  1  0.56047043  0.80979651  0.55620663  1
  O  O171  1  0.12869413  0.10649924  0.12781793  1
  O  O172  1  0.12578056  0.11979474  0.61904780  1
  O  O173  1  0.12677404  0.61749582  0.12071730  1
  O  O174  1  0.11974126  0.62033463  0.61907034  1
  O  O175  1  0.60572755  0.12384592  0.13119003  1
  O  O176  1  0.62170609  0.16474699  0.60956389  1
  O  O177  1  0.63779947  0.61147499  0.12109220  1
  O  O178  1  0.62378968  0.61481360  0.61221065  1
  O  O179  1  0.37854166  0.38296479  0.37910054  1
  O  O180  1  0.37215476  0.38314475  0.88481737  1
  O  O181  1  0.38018992  0.87052632  0.38611309  1
  O  O182  1  0.38131618  0.88842407  0.87602637  1
  O  O183  1  0.87341095  0.38356069  0.38442189  1
  O  O184  1  0.86793706  0.37705212  0.88723071  1
  O  O185  1  0.88513855  0.88284209  0.37142374  1
  O  O186  1  0.87874981  0.88000131  0.88262411  1
  O  O187  1  0.24404692  0.00897133  0.37988877  1
  O  O188  1  0.26129517  0.00285917  0.86995107  1
  O  O189  1  0.26043076  0.49776200  0.37438329  1
  O  O190  1  0.26356094  0.51041186  0.88244745  1
  O  O191  1  0.75324167  0.00541945  0.37099961  1
  O  O192  1  0.76837826  -0.01023701  0.86632826  1
  O  O193  1  0.76268357  0.50708680  0.37068780  1
  O  O194  1  0.74768098  0.50720293  0.86387073  1
  O  O195  1  0.23621581  0.49179364  0.11998790  1
  O  O196  1  0.23991905  0.49219318  0.61728513  1
  O  O197  1  0.23699180  0.98542839  0.12283982  1
  O  O198  1  0.24588261  0.99616883  0.63230156  1
  O  O199  1  0.74639068  0.49177374  0.12681001  1
  O  O200  1  0.74047036  0.49785370  0.63477247  1
  O  O201  1  0.75516371  0.98287277  0.13323103  1
  O  O202  1  0.74753325  0.98897998  0.62324717  1
  O  O203  1  0.00740790  0.36377742  0.24750984  1
  O  O204  1  -0.00125956  0.36350753  0.74697452  1
  O  O205  1  0.00648541  0.86939852  0.26083080  1
  O  O206  1  0.00922838  0.86974700  0.75108217  1
  O  O207  1  0.49793903  0.36372160  0.25625255  1
  O  O208  1  0.50974362  0.37437103  0.75319889  1
  O  O209  1  0.50686202  0.86294681  0.25332007  1
  O  O210  1  0.49307056  0.86287275  0.75896272  1
  O  O211  1  0.49483417  0.13594779  0.24744112  1
  O  O212  1  0.49608251  0.12101732  0.74040729  1
  O  O213  1  0.50029946  0.63149917  0.25267935  1
  O  O214  1  0.48832198  0.63505678  0.74986413  1
  O  O215  1  0.99302826  0.13481295  0.24984444  1
  O  O216  1  0.98879587  0.13745710  0.75011531  1
  O  O217  1  0.99463059  0.63166179  0.24816515  1
  O  O218  1  0.99287163  0.63202838  0.74373776  1
  O  O219  1  0.37413681  0.25810532  0.01285057  1
  O  O220  1  0.36603909  0.25774294  0.50650556  1
  O  O221  1  0.36306635  0.74547384  -0.00294962  1
  O  O222  1  0.37725037  0.75337971  0.51045036  1
  O  O223  1  0.87380193  0.25835900  0.00600273  1
  O  O224  1  0.87095651  0.25766470  0.49573796  1
  O  O225  1  0.86752103  0.75487787  0.00237154  1
  O  O226  1  0.87653120  0.74349724  0.51608354  1
  O  O227  1  0.12999893  0.24891951  0.49406538  1
  O  O228  1  0.12825165  0.25041080  0.99269174  1
  O  O229  1  0.12296265  0.74128722  0.49226608  1
  O  O230  1  0.13029689  0.74402572  0.99207793  1
  O  O231  1  0.63636471  0.25817455  0.48068955  1
  O  O232  1  0.62203237  0.25809089  0.98579588  1
  O  O233  1  0.63076405  0.73198383  0.50390969  1
  O  O234  1  0.64040710  0.75020510  0.99090078  1
  O  O235  1  0.49259316  0.24494660  0.13295354  1
  O  O236  1  0.47661835  0.26100491  0.62902459  1
  O  O237  1  0.50094567  0.74605704  0.13847300  1
  O  O238  1  0.49345351  0.74680898  0.63075421  1
  O  O239  1  0.99234662  0.24885264  0.13597634  1
  O  O240  1  0.99719648  0.24826206  0.63412594  1
  O  O241  1  0.99613629  0.74803227  0.13239544  1
  O  O242  1  0.99181094  0.74611124  0.62995127  1
  O  O243  1  0.01379318  0.24473098  0.36927343  1
  O  O244  1  0.01039047  0.24968928  0.86745349  1
  O  O245  1  0.00363022  0.75772448  0.37131319  1
  O  O246  1  0.00791270  0.75017308  0.86689390  1
  O  O247  1  0.50492147  0.25597337  0.36925293  1
  O  O248  1  0.50572610  0.25390840  0.87202686  1
  O  O249  1  0.50086095  0.76173386  0.36583088  1
  O  O250  1  0.50775167  0.75414428  0.86775887  1
  O  O251  1  0.24390419  0.13501711  0.49165787  1
  O  O252  1  0.24292927  0.12385497  0.98874075  1
  O  O253  1  0.23654181  0.62765574  0.50412748  1
  O  O254  1  0.24519385  0.63236190  0.99043516  1
  O  O255  1  0.75908537  0.13687430  0.48705378  1
  O  O256  1  0.73854511  0.13872624  1.02808240  1
  O  O257  1  0.74398111  0.62620805  0.49325997  1
  O  O258  1  0.75919702  0.63278254  0.98674921  1
  O  O259  1  0.26118408  0.37455976  0.01362059  1
  O  O260  1  0.25594919  0.36449662  0.50556483  1
  O  O261  1  0.24615298  0.86652328  0.01331955  1
  O  O262  1  0.25752100  0.87255522  0.50767948  1
  O  O263  1  0.75791183  0.37462682  0.00763936  1
  O  O264  1  0.75870148  0.36399768  0.49540261  1
  O  O265  1  0.76097500  0.86511980  0.00792000  1
  O  O266  1  0.74916326  0.87073887  0.51532643  1
  O  O267  1  0.11732566  0.48887305  0.24285367  1
  O  O268  1  0.11949061  0.50104263  0.73697165  1
  O  O269  1  0.12208545  0.98851084  0.24836405  1
  O  O270  1  0.13050219  0.99560059  0.74756481  1
  O  O271  1  0.63218000  0.49905767  0.24023164  1
  O  O272  1  0.62858704  0.49445713  0.74336256  1
  O  O273  1  0.63025447  0.98718875  0.24343525  1
  O  O274  1  0.61962580  1.01569589  0.73949957  1
  O  O275  1  0.37829998  -0.00231998  0.25559356  1
  O  O276  1  0.36650504  -0.00618758  0.75018496  1
  O  O277  1  0.37889978  0.51135013  0.26404912  1
  O  O278  1  0.38066855  0.50862819  0.75973316  1
  O  O279  1  0.86931366  0.00630313  0.25597158  1
  O  O280  1  0.87387148  0.01480766  0.75657149  1
  O  O281  1  0.87425169  0.50314247  0.25542368  1
  O  O282  1  0.86541769  0.50569430  0.74870343  1
  O  O283  1  0.12968579  0.36838314  0.36578310  1
  O  O284  1  0.13760060  0.36215699  0.87304695  1
  O  O285  1  0.11760482  0.86947835  0.36878499  1
  O  O286  1  0.12425058  0.87147110  0.86958337  1
  O  O287  1  0.61668395  0.37007501  0.36955701  1
  O  O288  1  0.61985122  0.37076570  0.86658700  1
  O  O289  1  0.62180504  0.87343355  0.36358265  1
  O  O290  1  0.61863289  0.86278756  0.87513847  1
  O  O291  1  0.38098433  0.13193086  0.12798163  1
  O  O292  1  0.36639673  0.14104771  0.61996427  1
  O  O293  1  0.37142888  0.61425193  0.14126426  1
  O  O294  1  0.37548318  0.62993764  0.63051381  1
  O  O295  1  0.87512080  0.12872320  0.13918918  1
  O  O296  1  0.87695263  0.12695480  0.63733604  1
  O  O297  1  0.87634893  0.63014750  0.13107036  1
  O  O298  1  0.87862510  0.62965458  0.63168452  1
  O  O299  1  0.25658955  0.25563728  0.12572257  1
  O  O300  1  0.25487329  0.25788989  0.61877264  1
  O  O301  1  0.24206962  0.76481160  0.11562249  1
  O  O302  1  0.25934366  0.75646478  0.62310259  1
  O  O303  1  0.75765533  0.26581086  0.13288649  1
  O  O304  1  0.75791711  0.25494863  0.61277938  1
  O  O305  1  0.75570461  0.75499804  0.11747108  1
  O  O306  1  0.76256822  0.75808154  0.62517672  1
  O  O307  1  0.23963134  0.24607753  0.38212475  1
  O  O308  1  0.24706199  0.24052877  0.87768881  1
  O  O309  1  0.23487216  0.75572872  0.37730039  1
  O  O310  1  0.24644854  0.74626816  0.88062955  1
  O  O311  1  0.74264966  0.24282029  0.37512003  1
  O  O312  1  0.73097579  0.25387692  0.87675046  1
  O  O313  1  0.75845328  0.73531883  0.37723853  1
  O  O314  1  0.74536189  0.74673026  0.87732821  1
  O  O315  1  0.00416170  0.12733730  0.00796548  1
  O  O316  1  0.00645656  0.11749468  0.50100766  1
  O  O317  1  0.00733742  0.61802174  0.00041264  1
  O  O318  1  0.00791492  0.61410870  0.50556575  1
  O  O319  1  0.50217418  0.13053360  0.01553284  1
  O  O320  1  0.49783057  0.10934519  0.48506044  1
  O  O321  1  0.49784531  0.61250642  -0.00066998  1
  O  O322  1  0.51452520  0.62683185  0.49699742  1
  O  O323  1  0.48627399  0.36635031  0.48994659  1
  O  O324  1  0.48539516  0.38258322  1.00160114  1
  O  O325  1  0.49382496  0.87735799  0.49060937  1
  O  O326  1  0.50104757  0.86103925  0.98973812  1
  O  O327  1  0.99533882  0.38725248  0.50143943  1
  O  O328  1  0.99094142  0.38411243  1.00508634  1
  O  O329  1  1.00614090  0.88286306  0.48892595  1
  O  O330  1  0.98634177  0.86857908  1.00113229  1
  O  O331  1  0.49573945  0.48680793  0.37088130  1
  O  O332  1  0.49048308  0.49982186  0.88607383  1
  O  O333  1  0.50481215  0.98289926  0.38306463  1
  O  O334  1  0.48654432  0.99180589  0.88275187  1
  O  O335  1  0.98860705  0.50473893  0.38206489  1
  O  O336  1  0.99965058  0.50309411  0.88582802  1
  O  O337  1  0.99665681  0.99367887  0.38273519  1
  O  O338  1  0.98052868  0.99882639  0.86903932  1
  O  O339  1  0.01543408  -0.00164183  0.13263981  1
  O  O340  1  0.00494128  0.00181476  0.61874072  1
  O  O341  1  0.01271859  0.50119751  0.11490918  1
  O  O342  1  0.00691056  0.50542646  0.61676747  1
  O  O343  1  0.49720385  0.01397025  0.12737724  1
  O  O344  1  0.50026793  -0.00295581  0.60080831  1
  O  O345  1  0.50791093  0.49656932  0.11306074  1
  O  O346  1  0.51128280  0.50168470  0.62745568  1
  O  O347  1  0.24096132  0.37133701  0.24004005  1
  O  O348  1  0.24652590  0.37572392  0.73695556  1
  O  O349  1  0.23985894  0.87203151  0.23863556  1
  O  O350  1  0.24448095  0.88209663  0.74529410  1
  O  O351  1  0.75069028  0.38460990  0.24263473  1
  O  O352  1  0.73935117  0.38332198  0.74820265  1
  O  O353  1  0.74371142  0.87295573  0.24453112  1
  O  O354  1  0.75525034  0.87954973  0.72936998  1
  O  O355  1  0.24854841  0.12723020  0.26620883  1
  O  O356  1  0.24724311  0.11533664  0.76343518  1
  O  O357  1  0.26204569  0.62993473  0.25188323  1
  O  O358  1  0.26112357  0.63158756  0.76158847  1
  O  O359  1  0.75580795  0.11943262  0.25430532  1
  O  O360  1  0.76425803  0.12659892  0.75117502  1
  O  O361  1  0.75708513  0.61972599  0.25793093  1
  O  O362  1  0.75314479  0.61847929  0.75218001  1
  O  O363  1  0.35506643  0.13200036  0.37542684  1
  O  O364  1  0.36860745  0.10974261  0.88257540  1
  O  O365  1  0.37594454  0.61253679  0.37293003  1
  O  O366  1  0.37057117  0.62060340  0.86778237  1
  O  O367  1  0.86672246  0.12020695  0.36393748  1
  O  O368  1  0.87358336  0.11690400  0.86945824  1
  O  O369  1  0.87107159  0.61735914  0.37087169  1
  O  O370  1  0.86344554  0.62457761  0.86277424  1
  O  O371  1  0.13111768  0.37978716  0.13256004  1
  O  O372  1  0.13298315  0.38539057  0.62443898  1
  O  O373  1  0.12631902  0.88334835  0.13326671  1
  O  O374  1  0.13126381  0.88063900  0.63079225  1
  O  O375  1  0.63397080  0.38229115  0.12519190  1
  O  O376  1  0.62529284  0.37602075  0.63096686  1
  O  O377  1  0.63486569  0.86794800  0.13505188  1
  O  O378  1  0.63198875  0.86944229  0.62470604  1
  O  O379  1  0.11883754  0.25766659  0.25577346  1
  O  O380  1  0.11625384  0.25334400  0.75724731  1
  O  O381  1  0.11805844  0.75774123  0.25628407  1
  O  O382  1  0.12182004  0.75713773  0.75481665  1
  O  O383  1  0.61731631  0.25240429  0.25774073  1
  O  O384  1  0.62224096  0.25811520  0.76256433  1
  O  O385  1  0.61415034  0.75192813  0.24976290  1
  O  O386  1  0.61567287  0.74353512  0.75566866  1
  O  O387  1  0.37977080  0.24905099  0.24097058  1
  O  O388  1  0.36956892  0.25380388  0.73748477  1
  O  O389  1  0.39064973  0.72972516  0.25388605  1
  O  O390  1  0.38001622  0.74481761  0.73907681  1
  O  O391  1  0.88261347  0.24488245  0.24894212  1
  O  O392  1  0.87932558  0.24237753  0.75258026  1
  O  O393  1  0.88271320  0.74477891  0.24380056  1
  O  O394  1  0.88003799  0.74597076  0.73998414  1
  O  O395  1  0.37270866  0.49275731  0.48618971  1
  O  O396  1  0.38319297  0.49598962  0.99620161  1
  O  O397  1  0.37649306  0.98957511  0.50072150  1
  O  O398  1  0.36950139  0.99720196  0.99582865  1
  O  O399  1  0.88135692  0.49562374  0.49290377  1
  O  O400  1  0.88525948  0.49338463  0.99745065  1
  O  O401  1  0.88752112  1.00708998  0.49529730  1
  O  O402  1  0.86976670  0.99288252  0.98920956  1
  O  O403  1  0.12328156  -0.00462092  0.01150623  1
  O  O404  1  0.11446070  0.00458218  0.50782253  1
  O  O405  1  0.12048055  0.50463540  0.00502383  1
  O  O406  1  0.11826962  0.50527352  0.50411511  1
  O  O407  1  0.63067374  -0.00529853  0.00712492  1
  O  O408  1  0.61704964  0.00456722  0.49351160  1
  O  O409  1  0.60983546  0.49485712  0.00352144  1
  O  O410  1  0.63283063  0.50687045  0.50851427  1
  O  O411  1  0.36803759  0.37176073  0.12415856  1
  O  O412  1  0.36557520  0.37645449  0.61637050  1
  O  O413  1  0.35985957  0.87563844  0.12810400  1
  O  O414  1  0.37269137  0.86770672  0.61850251  1
  O  O415  1  0.86851325  0.37225460  0.11589110  1
  O  O416  1  0.87185367  0.37728022  0.60812036  1
  O  O417  1  0.86960845  0.86776353  0.12047476  1
  O  O418  1  0.88127134  0.86488037  0.62465365  1
  O  O419  1  0.13403854  0.13180563  0.38064027  1
  O  O420  1  0.13308733  0.13569158  0.87434784  1
  O  O421  1  0.11879289  0.63452968  0.38383603  1
  O  O422  1  0.13527310  0.63034414  0.87674434  1
  O  O423  1  0.63498162  0.13080040  0.36467393  1
  O  O424  1  0.61792912  0.13860976  0.88153824  1
  O  O425  1  0.63618490  0.61387475  0.38874303  1
  O  O426  1  0.63683773  0.63436641  0.86966384  1
