# generated using pymatgen
data_V85Zn86O256
_symmetry_space_group_name_H-M   'P 1'
_cell_length_a   16.97769463
_cell_length_b   16.95859137
_cell_length_c   16.94799752
_cell_angle_alpha   89.89085404
_cell_angle_beta   90.02747252
_cell_angle_gamma   90.10483679
_symmetry_Int_Tables_number   1
_chemical_formula_structural   V85Zn86O256
_chemical_formula_sum   'V85 Zn86 O256'
_cell_volume   4879.61234132
_cell_formula_units_Z   1
loop_
 _symmetry_equiv_pos_site_id
 _symmetry_equiv_pos_as_xyz
  1  'x, y, z'
loop_
 _atom_site_type_symbol
 _atom_site_label
 _atom_site_symmetry_multiplicity
 _atom_site_fract_x
 _atom_site_fract_y
 _atom_site_fract_z
 _atom_site_occupancy
  V  V0  1  0.62373365  0.49610418  0.62926647  1
  V  V1  1  0.49972197  0.87495886  0.87633382  1
  V  V2  1  0.24544573  -0.00265706  0.75224324  1
  V  V3  1  0.50089156  0.00021438  0.50071907  1
  V  V4  1  0.37243307  0.87115711  0.49710454  1
  V  V5  1  0.75084224  0.25146213  0.49741032  1
  V  V6  1  0.74572660  0.74988316  0.49545388  1
  V  V7  1  0.49720215  0.13388934  0.62353768  1
  V  V8  1  0.62573553  0.87513036  0.74886048  1
  V  V9  1  0.37327273  0.50341454  0.36330227  1
  V  V10  1  0.75327939  0.49873295  0.74674290  1
  V  V11  1  0.12171987  0.24387621  0.88139265  1
  V  V12  1  0.25096202  -0.00300225  0.24353256  1
  V  V13  1  0.12637218  0.62358765  0.00014165  1
  V  V14  1  0.12471040  0.37327029  0.74601161  1
  V  V15  1  0.24815621  0.87550356  0.62828367  1
  V  V16  1  0.62624384  0.39408343  0.24559061  1
  V  V17  1  -0.00142797  0.88599211  0.37180408  1
  V  V18  1  0.00123832  0.37403487  0.87302651  1
  V  V19  1  0.49740151  0.49648761  0.50413313  1
  V  V20  1  0.87362142  0.74679220  0.12951771  1
  V  V21  1  0.75383988  -0.00266022  0.75754655  1
  V  V22  1  0.74926281  0.00231903  0.24847885  1
  V  V23  1  0.50111084  0.12530135  0.12570094  1
  V  V24  1  0.50376613  0.00023090  0.00072844  1
  V  V25  1  0.37528019  0.75006744  0.62610861  1
  V  V26  1  0.74926917  0.87481227  0.12567349  1
  V  V27  1  0.37619129  -0.00186195  0.37522221  1
  V  V28  1  0.75112532  0.13937948  0.87991221  1
  V  V29  1  -0.00412845  0.62179195  0.12731422  1
  V  V30  1  0.87641937  0.25254999  0.11647764  1
  V  V31  1  0.00209939  0.49891260  -0.00117830  1
  V  V32  1  0.62503564  0.62593503  0.49269457  1
  V  V33  1  0.49384281  0.74154485  0.24694343  1
  V  V34  1  0.37491976  0.62455496  0.75241201  1
  V  V35  1  0.00471862  0.37555506  0.36455773  1
  V  V36  1  0.01853667  0.01297180  0.01684456  1
  V  V37  1  0.25044322  0.50050270  0.75088660  1
  V  V38  1  0.37804349  0.36893090  0.50452352  1
  V  V39  1  0.87680100  0.11104597  0.75219023  1
  V  V40  1  0.75055781  0.74765051  0.00108353  1
  V  V41  1  0.00030235  0.24644483  0.74903954  1
  V  V42  1  0.13042725  0.25883769  0.37189726  1
  V  V43  1  -0.00280830  0.74073707  0.25634882  1
  V  V44  1  0.24982871  0.26326028  -0.00053154  1
  V  V45  1  0.37451320  -0.00070484  0.87520829  1
  V  V46  1  0.25689171  0.37297903  0.62581580  1
  V  V47  1  0.62884414  0.36298063  0.75992362  1
  V  V48  1  0.37286388  0.13009520  0.74662701  1
  V  V49  1  0.12261515  0.51341595  0.61870269  1
  V  V50  1  0.62599315  0.86789673  0.25283988  1
  V  V51  1  0.88033958  0.50537202  0.87159216  1
  V  V52  1  0.00043605  0.51056467  0.49675690  1
  V  V53  1  0.12522701  -0.00033890  0.62302847  1
  V  V54  1  0.24915389  0.87164128  0.12271056  1
  V  V55  1  0.37559400  0.25404365  0.12301418  1
  V  V56  1  0.87426429  0.87431584  0.49971106  1
  V  V57  1  0.49740311  0.61029939  0.11475142  1
  V  V58  1  0.12195608  0.75295895  0.86890670  1
  V  V59  1  0.50455341  0.24633308  0.76488786  1
  V  V60  1  0.88028113  0.37617301  0.49298001  1
  V  V61  1  0.12117084  0.87569833  0.24277771  1
  V  V62  1  0.62434932  0.12752970  0.49917759  1
  V  V63  1  0.00031549  0.12195868  0.62285485  1
  V  V64  1  0.50373729  0.86707985  0.37534387  1
  V  V65  1  0.74831553  0.38418806  0.11762169  1
  V  V66  1  0.24546491  0.12223927  0.88792855  1
  V  V67  1  0.25403441  0.62265468  0.87758071  1
  V  V68  1  0.43411264  0.43587794  -0.07247207  1
  V  V69  1  0.50103112  0.62348288  0.63017827  1
  V  V70  1  0.12358207  0.74622268  0.38663023  1
  V  V71  1  0.62756094  0.74685232  0.87701631  1
  V  V72  1  0.75118194  0.87077879  0.62508403  1
  V  V73  1  0.87769554  0.88747504  0.00001977  1
  V  V74  1  0.87698956  0.24809460  0.62264367  1
  V  V75  1  0.25045444  0.12292780  0.37634122  1
  V  V76  1  0.87968676  0.63194983  0.73196941  1
  V  V77  1  0.00149588  0.88468187  0.87543184  1
  V  V78  1  0.25240791  0.24695722  0.50796838  1
  V  V79  1  0.74951236  0.12483416  0.37413832  1
  V  V80  1  0.25074940  0.38282987  0.14182438  1
  V  V81  1  0.50042915  0.74883402  0.75194674  1
  V  V82  1  0.12928734  0.49833361  0.14372062  1
  V  V83  1  0.87383918  0.13576276  0.24837790  1
  V  V84  1  0.62672739  0.25143704  0.35978422  1
  Zn  Zn85  1  0.12198050  0.12432586  0.49553479  1
  Zn  Zn86  1  0.62527818  0.00012406  0.12187040  1
  Zn  Zn87  1  0.02917290  0.23582316  0.22800687  1
  Zn  Zn88  1  -0.00161602  0.00203303  0.49724935  1
  Zn  Zn89  1  0.50099101  0.37333240  0.37313662  1
  Zn  Zn90  1  0.37122863  0.74234164  0.12318162  1
  Zn  Zn91  1  0.24088813  0.73682842  0.50524072  1
  Zn  Zn92  1  0.87393638  0.00229859  0.37363062  1
  Zn  Zn93  1  0.61754101  0.14683880  -0.01934274  1
  Zn  Zn94  1  0.24022681  0.61158829  0.37122609  1
  Zn  Zn95  1  0.76543425  0.62685006  0.36751477  1
  Zn  Zn96  1  0.62448084  0.00241737  0.62513318  1
  Zn  Zn97  1  0.37651160  0.12594240  0.25079697  1
  Zn  Zn98  1  0.37663998  0.87235998  0.00337996  1
  Zn  Zn99  1  0.49803937  0.25042441  0.24888168  1
  Zn  Zn100  1  0.87052693  0.37114996  -0.00760173  1
  Zn  Zn101  1  0.75172278  0.62287297  0.87592484  1
  Zn  Zn102  1  0.63167995  0.60182823  0.01706924  1
  Zn  Zn103  1  0.76968054  0.50965961  0.25665356  1
  Zn  Zn104  1  0.00199268  0.74563793  0.74130138  1
  Zn  Zn105  1  0.75219002  0.37307226  0.62057105  1
  Zn  Zn106  1  0.25070140  0.74982901  0.00081294  1
  Zn  Zn107  1  0.19501822  0.18907150  0.18688903  1
  Zn  Zn108  1  0.18636542  0.18448744  0.68957738  1
  Zn  Zn109  1  0.18316704  0.68240557  0.19226940  1
  Zn  Zn110  1  0.18800175  0.68981239  0.68957911  1
  Zn  Zn111  1  0.67009117  0.21286707  0.14346255  1
  Zn  Zn112  1  0.69094806  0.18349930  0.68553667  1
  Zn  Zn113  1  0.68092780  0.68098074  0.19286786  1
  Zn  Zn114  1  0.69195362  0.68558953  0.68578895  1
  Zn  Zn115  1  0.31612524  0.31376275  0.31633340  1
  Zn  Zn116  1  0.31213517  0.30851583  0.81064938  1
  Zn  Zn117  1  0.29063441  0.77224238  0.29455909  1
  Zn  Zn118  1  0.31093330  0.81181629  0.81631172  1
  Zn  Zn119  1  0.81298181  0.31993641  0.30683708  1
  Zn  Zn120  1  0.81652835  0.31254640  0.80789887  1
  Zn  Zn121  1  0.81284406  0.80547169  0.31492864  1
  Zn  Zn122  1  0.81793461  0.81312121  0.81580359  1
  Zn  Zn123  1  0.18946289  0.44085071  0.43923496  1
  Zn  Zn124  1  0.18709046  0.43906858  0.93602159  1
  Zn  Zn125  1  0.18710362  0.93302445  0.43556297  1
  Zn  Zn126  1  0.17984366  0.94035666  0.94316050  1
  Zn  Zn127  1  0.69140792  0.44108807  0.43154250  1
  Zn  Zn128  1  0.68819908  0.43414088  0.93532535  1
  Zn  Zn129  1  0.68521532  0.93853304  0.43638534  1
  Zn  Zn130  1  0.68749233  0.93834700  0.93823911  1
  Zn  Zn131  1  0.31619338  0.06130234  0.06328837  1
  Zn  Zn132  1  0.31494382  0.06135703  0.56307745  1
  Zn  Zn133  1  0.32079819  0.55728421  0.06134124  1
  Zn  Zn134  1  0.31066837  0.56347772  0.55758887  1
  Zn  Zn135  1  0.81418927  0.06719644  0.06394864  1
  Zn  Zn136  1  0.81132458  0.05658620  0.56465479  1
  Zn  Zn137  1  0.81520321  0.55986866  0.06195264  1
  Zn  Zn138  1  0.81286477  0.56105216  0.55477462  1
  Zn  Zn139  1  0.43909112  0.43242635  0.18269129  1
  Zn  Zn140  1  0.45259892  0.44981997  0.72789908  1
  Zn  Zn141  1  0.43506834  0.93336531  0.18801655  1
  Zn  Zn142  1  0.43705090  0.94162436  0.68702200  1
  Zn  Zn143  1  0.94330506  0.42764575  0.18370093  1
  Zn  Zn144  1  0.93924893  0.43719491  0.68196501  1
  Zn  Zn145  1  0.93407690  0.93822701  0.18742380  1
  Zn  Zn146  1  0.95333694  0.90894183  0.67207567  1
  Zn  Zn147  1  0.07704716  0.07863603  0.27600709  1
  Zn  Zn148  1  0.06195158  0.05638797  0.81481517  1
  Zn  Zn149  1  -0.07117295  0.56081877  0.32232016  1
  Zn  Zn150  1  0.06354042  0.56610892  0.80738167  1
  Zn  Zn151  1  0.56311723  0.06074903  0.30844033  1
  Zn  Zn152  1  0.56570963  0.06291247  0.81288575  1
  Zn  Zn153  1  0.55455630  0.56385185  0.31674034  1
  Zn  Zn154  1  0.57477150  0.54362757  0.84442563  1
  Zn  Zn155  1  0.43778827  0.19038118  0.43547627  1
  Zn  Zn156  1  0.43102079  0.18721540  0.94098722  1
  Zn  Zn157  1  0.43709987  0.68548705  0.43832281  1
  Zn  Zn158  1  0.43504240  0.68650423  0.94278065  1
  Zn  Zn159  1  0.94142510  0.18976013  0.43303295  1
  Zn  Zn160  1  0.93422176  0.18056185  0.93768045  1
  Zn  Zn161  1  0.94081521  0.69822044  0.45080169  1
  Zn  Zn162  1  0.93817763  0.69077122  0.93715952  1
  Zn  Zn163  1  0.06560670  0.31546936  0.06160205  1
  Zn  Zn164  1  0.06610045  0.31419331  0.55854354  1
  Zn  Zn165  1  0.06105722  0.81096236  0.06094831  1
  Zn  Zn166  1  0.06008840  0.81436598  0.56499802  1
  Zn  Zn167  1  0.55841532  0.32064132  0.05432217  1
  Zn  Zn168  1  0.56529128  0.31071981  0.56552889  1
  Zn  Zn169  1  0.56388795  0.80978051  0.06475128  1
  Zn  Zn170  1  0.56419194  0.81118801  0.56367391  1
  O  O171  1  0.09439583  0.14666423  0.18444714  1
  O  O172  1  0.11770234  0.11724693  0.62367214  1
  O  O173  1  0.11730755  0.62009842  0.11864164  1
  O  O174  1  0.12873567  0.61195836  0.62792584  1
  O  O175  1  0.60730871  0.11641771  0.13432348  1
  O  O176  1  0.61712219  0.12373725  0.61724985  1
  O  O177  1  0.60574999  0.63175889  0.12328820  1
  O  O178  1  0.62116535  0.61127279  0.62440586  1
  O  O179  1  0.37977297  0.38151140  0.38771687  1
  O  O180  1  0.37429966  0.36750864  0.88199558  1
  O  O181  1  0.38609454  0.87941008  0.38686293  1
  O  O182  1  0.38211487  0.88245373  0.87557235  1
  O  O183  1  0.88682098  0.36373127  0.38708466  1
  O  O184  1  0.88289083  0.38529756  0.87127751  1
  O  O185  1  0.88135111  0.87570840  0.38006577  1
  O  O186  1  0.89000824  0.86962726  0.88796235  1
  O  O187  1  0.25623876  0.00545775  0.37159128  1
  O  O188  1  0.25028805  0.00466028  0.87020789  1
  O  O189  1  0.26776157  0.49598315  0.37798880  1
  O  O190  1  0.24006061  0.51029491  0.86244505  1
  O  O191  1  0.74858396  0.00882363  0.36786566  1
  O  O192  1  0.75005365  -0.00277399  0.86057101  1
  O  O193  1  0.75259725  0.51192923  0.37462869  1
  O  O194  1  0.76373269  0.49748622  0.85919376  1
  O  O195  1  0.24615449  0.48899169  0.12093932  1
  O  O196  1  0.23839052  0.49268100  0.62693515  1
  O  O197  1  0.25610902  0.99470241  0.13785646  1
  O  O198  1  0.24708310  0.99591102  0.63352481  1
  O  O199  1  0.75672569  0.48804875  0.12978357  1
  O  O200  1  0.74446415  0.49859951  0.63355958  1
  O  O201  1  0.74855408  0.99465028  0.13233238  1
  O  O202  1  0.74315608  0.99459130  0.63799408  1
  O  O203  1  0.00433354  0.36514274  0.26328251  1
  O  O204  1  0.00511576  0.36733447  0.75296689  1
  O  O205  1  0.00356522  0.86903962  0.25401670  1
  O  O206  1  -0.00018166  0.89293179  0.77601260  1
  O  O207  1  0.51581360  0.37075221  0.24733368  1
  O  O208  1  0.51866805  0.35879237  0.74309889  1
  O  O209  1  0.50803485  0.87199509  0.25789932  1
  O  O210  1  0.50770873  0.87123583  0.75433313  1
  O  O211  1  0.49452929  0.12624696  0.24281867  1
  O  O212  1  0.49493533  0.12763552  0.74319293  1
  O  O213  1  0.50320884  0.63826824  0.24464877  1
  O  O214  1  0.49320786  0.63195552  0.74667362  1
  O  O215  1  0.97239275  0.12671800  0.27342860  1
  O  O216  1  0.99324566  0.12521946  0.74554531  1
  O  O217  1  1.00032690  0.63714592  0.24273431  1
  O  O218  1  0.98533210  0.62641429  0.74830208  1
  O  O219  1  0.36297791  0.24467349  0.01312480  1
  O  O220  1  0.37053115  0.26144859  0.49988268  1
  O  O221  1  0.36850830  0.75549400  0.00277410  1
  O  O222  1  0.37746934  0.75911266  0.50767237  1
  O  O223  1  0.87633831  0.25043410  0.01171168  1
  O  O224  1  0.87183912  0.25478001  0.50467703  1
  O  O225  1  0.86734553  0.75564375  0.00912044  1
  O  O226  1  0.86449694  0.76714547  0.50452975  1
  O  O227  1  0.13789912  0.24582531  0.49447125  1
  O  O228  1  0.13067985  0.25088047  0.98854701  1
  O  O229  1  0.11939613  0.75475298  0.49224108  1
  O  O230  1  0.12380531  0.73623014  0.99250825  1
  O  O231  1  0.63142200  0.24622458  0.48992984  1
  O  O232  1  0.63300654  0.24149398  1.03602504  1
  O  O233  1  0.63105774  0.73720089  0.50831775  1
  O  O234  1  0.63775819  0.75331368  0.99204383  1
  O  O235  1  0.48934628  0.24446361  0.12457415  1
  O  O236  1  0.50367763  0.23671135  0.63228346  1
  O  O237  1  0.49740847  0.75070934  0.13752900  1
  O  O238  1  0.49538813  0.74549168  0.63316435  1
  O  O239  1  0.98179012  0.26863018  0.12618415  1
  O  O240  1  0.99779731  0.24199246  0.62899286  1
  O  O241  1  0.99367337  0.74193524  0.13143991  1
  O  O242  1  0.98831652  0.80121536  0.64522197  1
  O  O243  1  0.01660906  0.25734681  0.37676844  1
  O  O244  1  0.00571265  0.25086403  0.87068465  1
  O  O245  1  0.00664054  0.76304943  0.37118747  1
  O  O246  1  0.00614290  0.76030062  0.87270007  1
  O  O247  1  0.51179341  0.25197508  0.37152915  1
  O  O248  1  0.50301534  0.23536373  0.86449990  1
  O  O249  1  0.49574103  0.75741189  0.36416780  1
  O  O250  1  0.50798274  0.75541246  0.87124302  1
  O  O251  1  0.25174450  0.13123981  0.49512447  1
  O  O252  1  0.25309388  0.13015455  0.99064765  1
  O  O253  1  0.25569954  0.62709931  0.48612002  1
  O  O254  1  0.24270299  0.62254139  0.99285092  1
  O  O255  1  0.74393393  0.12858952  0.49321422  1
  O  O256  1  0.75142074  0.11716181  0.98090122  1
  O  O257  1  0.74083135  0.63384398  0.50377485  1
  O  O258  1  0.74819271  0.63307421  0.99804781  1
  O  O259  1  0.24553805  0.36473777  0.00149887  1
  O  O260  1  0.25764549  0.36728682  0.50731795  1
  O  O261  1  0.24631611  0.87798604  0.01404836  1
  O  O262  1  0.26216720  0.87818378  0.51032782  1
  O  O263  1  0.75065314  0.38123833  0.01273985  1
  O  O264  1  0.76015992  0.36934704  0.49894219  1
  O  O265  1  0.75722118  0.86950047  0.00518407  1
  O  O266  1  0.74973883  0.87082902  0.50589986  1
  O  O267  1  0.12753259  0.50768780  0.23892298  1
  O  O268  1  0.13150679  0.49551833  0.73836377  1
  O  O269  1  0.13983674  0.98578561  0.25755018  1
  O  O270  1  0.13669085  1.00530256  0.73876702  1
  O  O271  1  0.62090842  0.49290397  0.25340140  1
  O  O272  1  0.63468126  0.48795476  0.74792927  1
  O  O273  1  0.63561602  0.98877177  0.25039204  1
  O  O274  1  0.63063865  0.98695981  0.75053843  1
  O  O275  1  0.36717071  -0.00378769  0.26067241  1
  O  O276  1  0.36843171  0.00972266  0.75611967  1
  O  O277  1  0.38437727  0.49168741  0.26584899  1
  O  O278  1  0.35575905  0.50813307  0.73842982  1
  O  O279  1  0.86121144  0.00526311  0.25112543  1
  O  O280  1  0.86991782  0.00832016  0.74252170  1
  O  O281  1  0.88351251  0.48945942  0.25272670  1
  O  O282  1  0.87194064  0.50633033  0.75029829  1
  O  O283  1  0.11671639  0.36942538  0.38847614  1
  O  O284  1  0.12076682  0.36601090  0.86629323  1
  O  O285  1  0.11298540  0.87356858  0.36677915  1
  O  O286  1  0.11298191  0.86471854  0.88685610  1
  O  O287  1  0.62543365  0.36871971  0.36181200  1
  O  O288  1  0.63511175  0.36445654  0.85802911  1
  O  O289  1  0.61191139  0.87833449  0.36939802  1
  O  O290  1  0.62157544  0.86634935  0.86754404  1
  O  O291  1  0.38404476  0.13169829  0.12645657  1
  O  O292  1  0.38347667  0.11955455  0.63520057  1
  O  O293  1  0.38980378  0.62594418  0.12296216  1
  O  O294  1  0.37994078  0.63122437  0.63112497  1
  O  O295  1  0.86668642  0.14300631  0.13330271  1
  O  O296  1  0.88147163  0.12833844  0.63001438  1
  O  O297  1  0.88893741  0.63191300  0.11720125  1
  O  O298  1  0.87276007  0.62434144  0.63370988  1
  O  O299  1  0.25321064  0.26060171  0.11893580  1
  O  O300  1  0.24665820  0.25457956  0.61590103  1
  O  O301  1  0.24795059  0.75828003  0.12287121  1
  O  O302  1  0.25452812  0.75918240  0.62465407  1
  O  O303  1  0.76660072  0.27187362  0.13370707  1
  O  O304  1  0.75938164  0.24796328  0.61560347  1
  O  O305  1  0.75615067  0.75350054  0.11899379  1
  O  O306  1  0.74398875  0.76250861  0.61640819  1
  O  O307  1  0.25207347  0.24374838  0.38820903  1
  O  O308  1  0.24265504  0.24217385  0.88178066  1
  O  O309  1  0.22741559  0.77527943  0.38963879  1
  O  O310  1  0.23959547  0.74337085  0.87721798  1
  O  O311  1  0.74304333  0.24493124  0.37709192  1
  O  O312  1  0.75610845  0.23844926  0.87259287  1
  O  O313  1  0.74684709  0.75122213  0.39140823  1
  O  O314  1  0.74607982  0.75140124  0.88509765  1
  O  O315  1  -0.00400625  0.10989564  0.00006459  1
  O  O316  1  0.00095741  0.12103658  0.50696445  1
  O  O317  1  0.00671522  0.62042003  0.00666854  1
  O  O318  1  -0.00349427  0.60932847  0.50223712  1
  O  O319  1  0.50165210  0.11788166  0.00548159  1
  O  O320  1  0.50285410  0.12251647  0.50608366  1
  O  O321  1  0.50468501  0.62781171  0.01139127  1
  O  O322  1  0.50459735  0.61603659  0.51107216  1
  O  O323  1  0.49396760  0.37935671  0.50436108  1
  O  O324  1  0.49993204  0.38748853  0.98835159  1
  O  O325  1  0.49569382  0.87778312  0.49485739  1
  O  O326  1  0.50165416  0.88213378  0.99367418  1
  O  O327  1  0.99428170  0.37979780  0.49525977  1
  O  O328  1  1.00133442  0.38274338  0.98897673  1
  O  O329  1  0.98947749  0.88041305  0.48973781  1
  O  O330  1  0.99378896  0.88207225  0.99822164  1
  O  O331  1  0.49389015  0.49333786  0.38889899  1
  O  O332  1  0.47728208  0.48614787  0.84270138  1
  O  O333  1  0.49481749  0.99365951  0.38091361  1
  O  O334  1  0.49602334  0.99601875  0.88014727  1
  O  O335  1  1.00296827  0.49149466  0.39133777  1
  O  O336  1  0.99697849  0.49574267  0.87520847  1
  O  O337  1  0.99824651  0.99078981  0.37112280  1
  O  O338  1  1.01032932  0.98966408  0.89422332  1
  O  O339  1  -0.00233068  -0.00337828  0.11519451  1
  O  O340  1  0.01101968  0.00114875  0.62373267  1
  O  O341  1  0.00987546  0.50493542  0.11963945  1
  O  O342  1  0.01643505  0.49316800  0.61617257  1
  O  O343  1  0.49723849  0.00546112  0.11651989  1
  O  O344  1  0.50226183  0.00953609  0.61803833  1
  O  O345  1  0.49879293  0.51135974  0.12562701  1
  O  O346  1  0.50751068  0.50262213  0.62809837  1
  O  O347  1  0.25371436  0.37712195  0.23971541  1
  O  O348  1  0.24583215  0.38044084  0.74451851  1
  O  O349  1  0.24137449  0.87557004  0.24069728  1
  O  O350  1  0.25789844  0.88858466  0.74385304  1
  O  O351  1  0.73800162  0.38291191  0.24479615  1
  O  O352  1  0.74442847  0.37832474  0.74277385  1
  O  O353  1  0.74376350  0.87870636  0.24791722  1
  O  O354  1  0.74655084  0.87756855  0.74472481  1
  O  O355  1  0.25666789  0.11370364  0.25835398  1
  O  O356  1  0.25751131  0.11788241  0.75663930  1
  O  O357  1  0.25767269  0.66289931  0.27107758  1
  O  O358  1  0.25239845  0.61860436  0.75685913  1
  O  O359  1  0.75547350  0.11654222  0.25870631  1
  O  O360  1  0.75777713  0.11657583  0.75521830  1
  O  O361  1  0.75153802  0.62468728  0.25229434  1
  O  O362  1  0.76160632  0.61538847  0.75034182  1
  O  O363  1  0.36559350  0.11890436  0.37660151  1
  O  O364  1  0.36447128  0.11827655  0.86901366  1
  O  O365  1  0.38455289  0.60425265  0.37844807  1
  O  O366  1  0.36008328  0.63350242  0.86863375  1
  O  O367  1  0.85853190  0.12846601  0.37455680  1
  O  O368  1  0.86447866  0.12542813  0.86278732  1
  O  O369  1  0.88036606  0.64405075  0.37517450  1
  O  O370  1  0.87572252  0.61363850  0.87123089  1
  O  O371  1  0.13999566  0.38426672  0.12251443  1
  O  O372  1  0.13617656  0.37799767  0.63027584  1
  O  O373  1  0.12844721  0.86835755  0.13652620  1
  O  O374  1  0.14232876  0.88387881  0.62122100  1
  O  O375  1  0.63685985  0.37520513  0.13648237  1
  O  O376  1  0.62944921  0.38555542  0.62913782  1
  O  O377  1  0.63262272  0.87785892  0.13345040  1
  O  O378  1  0.63177985  0.87837162  0.63286767  1
  O  O379  1  0.14387312  0.26453999  0.27149278  1
  O  O380  1  0.11967333  0.25290338  0.75853709  1
  O  O381  1  0.11197243  0.76000050  0.25919854  1
  O  O382  1  0.12117083  0.74510628  0.76420312  1
  O  O383  1  0.62776686  0.25092023  0.25508746  1
  O  O384  1  0.62226252  0.25707068  0.74261235  1
  O  O385  1  0.61338396  0.76310832  0.24796163  1
  O  O386  1  0.62343276  0.76185471  0.75212658  1
  O  O387  1  0.37407194  0.24941856  0.23792718  1
  O  O388  1  0.38394265  0.23637997  0.75385201  1
  O  O389  1  0.39317175  0.76136813  0.24516120  1
  O  O390  1  0.37903509  0.74596882  0.74487231  1
  O  O391  1  0.87409869  0.24631903  0.24128923  1
  O  O392  1  0.88251800  0.24112695  0.74065923  1
  O  O393  1  0.88281799  0.75827279  0.23601419  1
  O  O394  1  0.87224449  0.73321374  0.75356485  1
  O  O395  1  0.38708868  0.48833817  0.50467027  1
  O  O396  1  0.37664482  0.49964076  0.98101246  1
  O  O397  1  0.38176233  0.99081511  0.49628076  1
  O  O398  1  0.38632063  0.99848988  0.99226084  1
  O  O399  1  0.89106894  0.48886121  0.51086422  1
  O  O400  1  0.88379958  0.49806174  0.98778509  1
  O  O401  1  0.87282277  0.98982511  0.49349477  1
  O  O402  1  0.87627340  0.98867821  1.00583981  1
  O  O403  1  0.11902907  0.00758105  0.01130969  1
  O  O404  1  0.12755496  0.00221420  0.51164485  1
  O  O405  1  0.11991419  0.51146820  0.00072802  1
  O  O406  1  0.11576498  0.49736710  0.51116507  1
  O  O407  1  0.61256099  0.00255879  -0.00092679  1
  O  O408  1  0.61737006  0.00961004  0.49939165  1
  O  O409  1  0.61820543  0.51695388  -0.05207514  1
  O  O410  1  0.61413204  0.50111453  0.51006998  1
  O  O411  1  0.36146722  0.36897284  0.12464759  1
  O  O412  1  0.36029473  0.37896581  0.62144308  1
  O  O413  1  0.36242873  0.87289462  0.12337793  1
  O  O414  1  0.36862935  0.87207838  0.61947207  1
  O  O415  1  0.86624395  0.37021837  0.11745301  1
  O  O416  1  0.87636006  0.36390508  0.61520224  1
  O  O417  1  0.86843433  0.86594008  0.11874063  1
  O  O418  1  0.85577375  0.88935225  0.61401001  1
  O  O419  1  0.14024877  0.13214541  0.37388350  1
  O  O420  1  0.13455127  0.13304010  0.86669469  1
  O  O421  1  0.12167771  0.64864608  0.37488214  1
  O  O422  1  0.13127789  0.63072280  0.88098204  1
  O  O423  1  0.63318206  0.13158749  0.37650135  1
  O  O424  1  0.64411611  0.12377870  0.86929971  1
  O  O425  1  0.61805603  0.62249037  0.39247638  1
  O  O426  1  0.63155156  0.64563492  0.85639110  1
