# generated using pymatgen
data_V85Zn86O256
_symmetry_space_group_name_H-M   'P 1'
_cell_length_a   16.93020647
_cell_length_b   16.92521007
_cell_length_c   16.93672112
_cell_angle_alpha   89.94566855
_cell_angle_beta   90.04691795
_cell_angle_gamma   89.96282913
_symmetry_Int_Tables_number   1
_chemical_formula_structural   V85Zn86O256
_chemical_formula_sum   'V85 Zn86 O256'
_cell_volume   4853.16689096
_cell_formula_units_Z   1
loop_
 _symmetry_equiv_pos_site_id
 _symmetry_equiv_pos_as_xyz
  1  'x, y, z'
loop_
 _atom_site_type_symbol
 _atom_site_label
 _atom_site_symmetry_multiplicity
 _atom_site_fract_x
 _atom_site_fract_y
 _atom_site_fract_z
 _atom_site_occupancy
  V  V0  1  0.25480764  0.12299152  0.87392077  1
  V  V1  1  0.87944712  0.00348128  0.87276414  1
  V  V2  1  -0.00443352  0.62392949  0.12768844  1
  V  V3  1  0.25378121  -0.00707115  0.75592695  1
  V  V4  1  0.49180920  -0.00082382  -0.00436957  1
  V  V5  1  0.24772712  0.62089206  0.37559607  1
  V  V6  1  0.75734369  0.25659440  0.00209955  1
  V  V7  1  0.74984021  0.37967160  0.12419414  1
  V  V8  1  0.12451541  0.12668187  0.49694949  1
  V  V9  1  -0.00064963  0.36781272  0.85924982  1
  V  V10  1  0.11937775  0.86107787  0.75104215  1
  V  V11  1  0.24786637  0.24854798  0.50471612  1
  V  V12  1  0.37504014  0.25187634  0.63176978  1
  V  V13  1  0.23687679  0.14261843  0.36050552  1
  V  V14  1  0.87193369  0.49794109  0.37874596  1
  V  V15  1  0.62812465  0.75020111  0.87352509  1
  V  V16  1  0.49370369  0.38364179  0.87317716  1
  V  V17  1  0.75043933  0.00271858  0.24810806  1
  V  V18  1  0.75262839  0.00026673  0.75310243  1
  V  V19  1  0.88266702  0.25625353  0.13194885  1
  V  V20  1  0.24299408  0.75142691  -0.00949610  1
  V  V21  1  0.75046526  0.13608675  0.37424068  1
  V  V22  1  0.64397875  -0.00923597  0.61050153  1
  V  V23  1  0.12482006  0.87315427  0.25011528  1
  V  V24  1  0.86984941  0.24073706  0.63874987  1
  V  V25  1  0.82016589  0.81422106  0.54549642  1
  V  V26  1  0.61034370  0.25313935  0.37144305  1
  V  V27  1  -0.00469047  0.74860939  0.25463324  1
  V  V28  1  0.50652974  0.50017859  0.49702157  1
  V  V29  1  0.50965185  0.62800642  0.11955454  1
  V  V30  1  0.12291475  -0.00403074  0.62827225  1
  V  V31  1  0.37320829  0.00299095  0.37198428  1
  V  V32  1  0.87462003  0.49396631  0.87785509  1
  V  V33  1  0.62788162  0.87313029  0.25625192  1
  V  V34  1  0.86612001  0.62499623  0.25867274  1
  V  V35  1  0.62981756  0.87321220  0.74315573  1
  V  V36  1  -0.00425557  0.12797782  0.63816018  1
  V  V37  1  0.64696334  0.64418659  0.48952371  1
  V  V38  1  0.49283366  0.87546917  0.87295244  1
  V  V39  1  0.12271303  0.49637673  0.12979919  1
  V  V40  1  0.25998471  0.24934798  -0.00272332  1
  V  V41  1  0.49786884  0.00238577  0.50022377  1
  V  V42  1  0.00224134  0.87796810  0.37587276  1
  V  V43  1  0.37180417  0.75326135  0.12478897  1
  V  V44  1  0.24660143  0.87417488  0.62616655  1
  V  V45  1  0.35338897  0.41036017  -0.02538876  1
  V  V46  1  0.75593623  0.12772139  0.87596214  1
  V  V47  1  0.75087217  0.49531781  0.74278980  1
  V  V48  1  0.50325161  0.75041213  0.25993764  1
  V  V49  1  0.00409701  0.49244805  0.51082557  1
  V  V50  1  0.00811113  0.62701320  0.63517609  1
  V  V51  1  -0.00343604  0.00016849  0.50058475  1
  V  V52  1  0.50233200  0.24704585  0.75011342  1
  V  V53  1  0.87606477  0.63408885  0.74465489  1
  V  V54  1  0.37874619  0.48945110  0.37197851  1
  V  V55  1  0.24578811  0.49970484  0.24891826  1
  V  V56  1  0.49597830  0.13335505  0.12061737  1
  V  V57  1  0.61444975  0.37847501  0.24764548  1
  V  V58  1  0.37631434  0.11717041  0.75113153  1
  V  V59  1  0.25104292  -0.00417733  0.25009375  1
  V  V60  1  0.00060812  0.86223852  0.87160529  1
  V  V61  1  0.62726279  0.13040933  0.49659470  1
  V  V62  1  0.12250455  0.74448232  0.37957137  1
  V  V63  1  0.62569684  0.25298248  0.87427687  1
  V  V64  1  0.12140176  0.24808350  0.86132353  1
  V  V65  1  0.11705386  0.63028923  -0.00838793  1
  V  V66  1  0.38023697  0.37179511  0.49792178  1
  V  V67  1  0.24509619  0.74944482  0.50020082  1
  V  V68  1  0.37521230  0.62481651  0.25029663  1
  V  V69  1  0.87630762  0.00103770  0.37199805  1
  V  V70  1  0.12326626  -0.00021653  0.12380031  1
  V  V71  1  0.37736416  0.74251297  0.62453512  1
  V  V72  1  0.62461805  0.12443238  0.00118987  1
  V  V73  1  0.74661793  0.62177671  0.87566811  1
  V  V74  1  -0.00501247  0.48759766  0.00211519  1
  V  V75  1  0.12380734  0.12666761  -0.00180515  1
  V  V76  1  0.74661073  0.74682817  0.00248477  1
  V  V77  1  0.37287838  0.87580315  0.49867829  1
  V  V78  1  0.23293783  0.38654896  0.62950603  1
  V  V79  1  0.25583576  0.37173313  0.12110284  1
  V  V80  1  0.37605591  0.13161158  0.24288505  1
  V  V81  1  0.50119948  0.12084622  0.62446643  1
  V  V82  1  0.87118344  0.35912704  0.49774323  1
  V  V83  1  0.00942879  0.36199726  0.36954871  1
  V  V84  1  0.87313340  0.87515991  0.00167343  1
  Zn  Zn85  1  0.50822493  0.50895476  -0.00733993  1
  Zn  Zn86  1  0.49163573  0.25787907  0.24332516  1
  Zn  Zn87  1  0.88525952  0.13179679  0.25034982  1
  Zn  Zn88  1  0.62980362  0.49782509  0.61731589  1
  Zn  Zn89  1  0.12759989  0.33974583  0.25366681  1
  Zn  Zn90  1  0.00242603  0.13266810  0.12799768  1
  Zn  Zn91  1  0.50371094  0.87358005  0.37699399  1
  Zn  Zn92  1  0.74940205  0.87497396  0.12699493  1
  Zn  Zn93  1  -0.00035724  0.00086214  0.00028516  1
  Zn  Zn94  1  0.87149539  0.75188751  0.13139568  1
  Zn  Zn95  1  0.50426593  0.74650613  0.74631344  1
  Zn  Zn96  1  0.36871310  0.87657372  -0.00746166  1
  Zn  Zn97  1  0.24914828  0.87182644  0.12304831  1
  Zn  Zn98  1  0.38228578  0.60160862  0.76197123  1
  Zn  Zn99  1  0.12728306  0.61397423  0.50842992  1
  Zn  Zn100  1  0.50908867  0.62266887  0.62280184  1
  Zn  Zn101  1  0.25347367  0.59485297  0.87160380  1
  Zn  Zn102  1  0.74532906  0.50289815  0.25476599  1
  Zn  Zn103  1  0.62462007  -0.00150363  0.12410361  1
  Zn  Zn104  1  0.74659973  0.36515937  0.61942340  1
  Zn  Zn105  1  0.62973793  0.50616560  0.12079906  1
  Zn  Zn106  1  0.62658395  0.37375717  0.74330462  1
  Zn  Zn107  1  0.19111980  0.18584059  0.18210117  1
  Zn  Zn108  1  0.18790619  0.18482471  0.68679694  1
  Zn  Zn109  1  0.18401046  0.68613390  0.18573101  1
  Zn  Zn110  1  0.18822533  0.67843066  0.68875825  1
  Zn  Zn111  1  0.68697806  0.19101829  0.18790122  1
  Zn  Zn112  1  0.68934807  0.18007922  0.68600177  1
  Zn  Zn113  1  0.68802674  0.69332074  0.19309738  1
  Zn  Zn114  1  0.69559438  0.68969425  0.67394009  1
  Zn  Zn115  1  0.29543871  0.30644875  0.30665097  1
  Zn  Zn116  1  0.27137032  0.45369412  0.78920457  1
  Zn  Zn117  1  0.31346969  0.81126996  0.31378236  1
  Zn  Zn118  1  0.31207762  0.74278336  0.81250334  1
  Zn  Zn119  1  0.80767175  0.31734606  0.31041284  1
  Zn  Zn120  1  0.81467299  0.31358428  0.81236847  1
  Zn  Zn121  1  0.81004039  0.81564779  0.33225623  1
  Zn  Zn122  1  0.81297500  0.81418759  0.81155064  1
  Zn  Zn123  1  0.18851137  0.43200169  0.44034861  1
  Zn  Zn124  1  0.17442661  0.44447581  0.92656130  1
  Zn  Zn125  1  0.18550149  0.94037637  0.43728204  1
  Zn  Zn126  1  0.18569194  0.93368776  0.93557034  1
  Zn  Zn127  1  0.68942749  0.43004487  0.43363660  1
  Zn  Zn128  1  0.68294318  0.43975542  0.93982561  1
  Zn  Zn129  1  0.70046343  0.92092559  0.43628716  1
  Zn  Zn130  1  0.68533055  0.93652350  0.93674082  1
  Zn  Zn131  1  0.31162311  0.05941671  0.06212645  1
  Zn  Zn132  1  0.30958100  0.06345348  0.56330766  1
  Zn  Zn133  1  0.30951516  0.57077876  0.05995296  1
  Zn  Zn134  1  0.31214656  0.55784537  0.56267631  1
  Zn  Zn135  1  0.81449524  0.06593176  0.06371027  1
  Zn  Zn136  1  0.80352583  0.04080420  0.55395323  1
  Zn  Zn137  1  0.81248264  0.56292455  0.06237733  1
  Zn  Zn138  1  0.81568308  0.56242988  0.56060568  1
  Zn  Zn139  1  0.43317956  0.44115230  0.17825433  1
  Zn  Zn140  1  0.43915113  0.43535748  0.68407401  1
  Zn  Zn141  1  0.44276282  0.93857823  0.18377644  1
  Zn  Zn142  1  0.43909565  0.93050904  0.68627964  1
  Zn  Zn143  1  0.93696371  0.43306556  0.19406346  1
  Zn  Zn144  1  0.93041327  0.43412311  0.68611887  1
  Zn  Zn145  1  0.93767729  0.93993379  0.18789833  1
  Zn  Zn146  1  0.93182295  0.93230443  0.68577695  1
  Zn  Zn147  1  0.06068520  0.06898646  0.30759033  1
  Zn  Zn148  1  0.06394506  0.05615244  0.81430319  1
  Zn  Zn149  1  0.05562394  0.55675122  0.31677064  1
  Zn  Zn150  1  0.06913265  0.55461911  0.81177567  1
  Zn  Zn151  1  0.56258305  0.06230274  0.31041920  1
  Zn  Zn152  1  0.56696464  0.05809971  0.81243050  1
  Zn  Zn153  1  0.56365471  0.56343524  0.31474694  1
  Zn  Zn154  1  0.56550963  0.56517155  0.80443669  1
  Zn  Zn155  1  0.43155272  0.18656793  0.43550203  1
  Zn  Zn156  1  0.43600815  0.19003538  0.93383571  1
  Zn  Zn157  1  0.43592312  0.68131760  0.43952329  1
  Zn  Zn158  1  0.43858152  0.69298209  0.94001152  1
  Zn  Zn159  1  0.93909861  0.18346815  0.43758150  1
  Zn  Zn160  1  0.93836425  0.18939168  0.94174435  1
  Zn  Zn161  1  0.93592332  0.67886766  0.44299105  1
  Zn  Zn162  1  0.93194847  0.68375643  0.93818089  1
  Zn  Zn163  1  0.06938486  0.31304591  0.05798989  1
  Zn  Zn164  1  0.05851501  0.30689910  0.56271296  1
  Zn  Zn165  1  0.05722636  0.81269516  0.06422133  1
  Zn  Zn166  1  0.02244201  0.79733776  0.55003975  1
  Zn  Zn167  1  0.56082078  0.31913539  0.05682163  1
  Zn  Zn168  1  0.56229641  0.31270183  0.56112296  1
  Zn  Zn169  1  0.56426372  0.81386183  0.06554761  1
  Zn  Zn170  1  0.56353547  0.81130762  0.55698621  1
  O  O171  1  0.12791815  0.11777852  0.11615172  1
  O  O172  1  0.11505422  0.11564554  0.62017356  1
  O  O173  1  0.10979849  0.61738770  0.12330837  1
  O  O174  1  0.11351043  0.61521947  0.62845499  1
  O  O175  1  0.62021253  0.12592529  0.11293698  1
  O  O176  1  0.62013864  0.11774330  0.61245465  1
  O  O177  1  0.61217305  0.63042716  0.13194090  1
  O  O178  1  0.62986811  0.62150830  0.60424094  1
  O  O179  1  0.36317137  0.38165002  0.38167688  1
  O  O180  1  0.39200383  0.36822987  0.87556065  1
  O  O181  1  0.37189833  0.88836170  0.38024180  1
  O  O182  1  0.39321170  0.86086620  0.87436386  1
  O  O183  1  0.88345340  0.37399457  0.38328953  1
  O  O184  1  0.88722968  0.37989055  0.87417798  1
  O  O185  1  0.89020054  0.89441417  0.36288001  1
  O  O186  1  0.88204748  0.88120507  0.88256488  1
  O  O187  1  0.25327211  0.00813181  0.36560776  1
  O  O188  1  0.24410252  0.00863855  0.86646009  1
  O  O189  1  0.25447106  0.50215674  0.37007131  1
  O  O190  1  0.28699892  0.47318009  0.90867472  1
  O  O191  1  0.75959156  0.00563110  0.36501343  1
  O  O192  1  0.75533011  0.00829934  0.87171354  1
  O  O193  1  0.76722838  0.48946008  0.37301206  1
  O  O194  1  0.75645792  0.50467701  0.86985846  1
  O  O195  1  0.23930827  0.49754199  0.12623020  1
  O  O196  1  0.24545316  0.48733390  0.62107354  1
  O  O197  1  0.24045050  0.99601551  0.13180092  1
  O  O198  1  0.24012629  0.99516874  0.62985455  1
  O  O199  1  0.75214791  0.49150156  0.12869819  1
  O  O200  1  0.75455882  0.49306989  0.63067533  1
  O  O201  1  0.75046673  0.99968493  0.13695524  1
  O  O202  1  0.74995667  1.03600236  0.65458284  1
  O  O203  1  0.00803209  0.37165214  0.26394435  1
  O  O204  1  0.00103789  0.37936370  0.76099238  1
  O  O205  1  0.00636328  0.86852589  0.25439491  1
  O  O206  1  0.00277227  0.87859588  0.76188764  1
  O  O207  1  0.50873989  0.37516259  0.23674693  1
  O  O208  1  0.50416760  0.36481386  0.75824882  1
  O  O209  1  0.50720647  0.86824134  0.25182332  1
  O  O210  1  0.51100698  0.87275457  0.75749956  1
  O  O211  1  0.49196856  0.12388713  0.23796800  1
  O  O212  1  0.49797801  0.12531724  0.74536597  1
  O  O213  1  0.49430623  0.63372815  0.24568475  1
  O  O214  1  0.49683623  0.62933359  0.74064109  1
  O  O215  1  0.99983400  0.13093451  0.24156495  1
  O  O216  1  1.00106764  0.11585136  0.73602116  1
  O  O217  1  0.99041279  0.62914754  0.24676040  1
  O  O218  1  0.99274042  0.60687861  0.74179625  1
  O  O219  1  0.36077708  0.25741414  -0.01034697  1
  O  O220  1  0.37420726  0.25340202  0.51313179  1
  O  O221  1  0.36230446  0.75297297  0.00970339  1
  O  O222  1  0.36804972  0.75584532  0.50537197  1
  O  O223  1  0.86179014  0.24870477  0.00865240  1
  O  O224  1  0.88000204  0.25698209  0.50567001  1
  O  O225  1  0.86382655  0.75791219  0.00006524  1
  O  O226  1  0.90479424  0.75930430  0.51587266  1
  O  O227  1  0.13413199  0.23762652  0.50603473  1
  O  O228  1  0.13157066  0.23784510  0.99405087  1
  O  O229  1  0.12082786  0.74708775  0.48983126  1
  O  O230  1  0.13199449  0.73944615  1.01769499  1
  O  O231  1  0.61694518  0.23817679  0.48946232  1
  O  O232  1  0.63291742  0.24437046  0.99279066  1
  O  O233  1  0.62711070  0.74351517  0.49251514  1
  O  O234  1  0.63873428  0.75804991  0.99098542  1
  O  O235  1  0.50206737  0.23730042  0.11973676  1
  O  O236  1  0.49483356  0.24219302  0.63037500  1
  O  O237  1  0.49386293  0.74395589  0.13450391  1
  O  O238  1  0.48685479  0.74842774  0.61757529  1
  O  O239  1  0.98495515  0.25790763  0.11684936  1
  O  O240  1  0.99251281  0.23422975  0.62366810  1
  O  O241  1  0.99386938  0.74103058  0.13523673  1
  O  O242  1  1.00562357  0.72642042  0.63607634  1
  O  O243  1  0.00062290  0.26335822  0.38160629  1
  O  O244  1  0.00256119  0.26031041  0.87790945  1
  O  O245  1  0.00564690  0.75344849  0.37345508  1
  O  O246  1  -0.00829258  0.76396224  0.87772013  1
  O  O247  1  0.50696150  0.24273295  0.36755582  1
  O  O248  1  0.50946124  0.25440884  0.86988524  1
  O  O249  1  0.48734179  0.75251600  0.36296937  1
  O  O250  1  0.51776538  0.75523111  0.87540942  1
  O  O251  1  0.24136582  0.12969461  0.49481548  1
  O  O252  1  0.24648798  0.12799183  0.99317689  1
  O  O253  1  0.24541033  0.62995189  0.49447695  1
  O  O254  1  0.23578613  0.62999232  0.99081230  1
  O  O255  1  0.73687640  0.11706280  0.48683861  1
  O  O256  1  0.74169976  0.13111840  0.99459118  1
  O  O257  1  0.74750099  0.62792130  0.49564474  1
  O  O258  1  0.75776560  0.63396996  0.98780402  1
  O  O259  1  0.24760766  0.36672950  0.00304249  1
  O  O260  1  0.25797108  0.36649488  0.50934585  1
  O  O261  1  0.24987571  0.86949385  0.00528636  1
  O  O262  1  0.25155483  0.86996473  0.50476368  1
  O  O263  1  0.74484466  0.36684703  0.01010870  1
  O  O264  1  0.76805966  0.37351379  0.49950253  1
  O  O265  1  0.75779320  0.86943708  -0.00005375  1
  O  O266  1  0.72384208  0.94707174  0.54453939  1
  O  O267  1  0.12637813  0.50435820  0.23831185  1
  O  O268  1  0.17173787  0.51172794  0.82443349  1
  O  O269  1  0.13376451  0.99561502  0.24423476  1
  O  O270  1  0.13400385  0.99544867  0.74323338  1
  O  O271  1  0.62625880  0.49320705  0.24663948  1
  O  O272  1  0.64111465  0.50006032  0.74588368  1
  O  O273  1  0.63399989  0.99591553  0.24757018  1
  O  O274  1  0.63388833  0.99172716  0.74189473  1
  O  O275  1  0.37014890  0.00263983  0.25488775  1
  O  O276  1  0.36131891  -0.00005468  0.74187459  1
  O  O277  1  0.36766163  0.50342845  0.25508768  1
  O  O278  1  0.36755898  0.49253221  0.74575173  1
  O  O279  1  0.86871062  0.00691623  0.25318425  1
  O  O280  1  0.86878603  -0.00599684  0.76463209  1
  O  O281  1  0.87643858  0.50705730  0.26073043  1
  O  O282  1  0.86615464  0.50234269  0.75973865  1
  O  O283  1  0.11354805  0.37475536  0.37358602  1
  O  O284  1  0.10782525  0.36100455  0.88158024  1
  O  O285  1  0.12207818  0.86762107  0.36906148  1
  O  O286  1  0.10758773  0.88034261  0.86724442  1
  O  O287  1  0.62771019  0.36297572  0.36300377  1
  O  O288  1  0.61889657  0.36278332  0.87304395  1
  O  O289  1  0.62119601  0.88435269  0.36210020  1
  O  O290  1  0.62318455  0.86768242  0.86366564  1
  O  O291  1  0.38262204  0.11901493  0.13139399  1
  O  O292  1  0.38117122  0.12823826  0.62974467  1
  O  O293  1  0.38079842  0.63701460  0.13121722  1
  O  O294  1  0.37239386  0.63874424  0.62060058  1
  O  O295  1  0.87475672  0.14282945  0.12487930  1
  O  O296  1  0.88757289  0.13209146  0.61820942  1
  O  O297  1  0.88346507  0.62515016  0.13529491  1
  O  O298  1  0.88602164  0.61583345  0.63927514  1
  O  O299  1  0.24556095  0.26017398  0.11044835  1
  O  O300  1  0.25854291  0.24643775  0.61784220  1
  O  O301  1  0.25736173  0.74929457  0.12168993  1
  O  O302  1  0.25645816  0.75508629  0.61724971  1
  O  O303  1  0.75579019  0.25858611  0.11908170  1
  O  O304  1  0.76543453  0.24253750  0.62567478  1
  O  O305  1  0.75283329  0.75217629  0.11689914  1
  O  O306  1  0.76153282  0.76023630  0.60718882  1
  O  O307  1  0.27227710  0.24513491  0.40144603  1
  O  O308  1  0.23655308  0.23389020  0.88212556  1
  O  O309  1  0.24134704  0.74398344  0.38015859  1
  O  O310  1  0.23524039  0.76635208  0.89183766  1
  O  O311  1  0.74186752  0.23903712  0.36864710  1
  O  O312  1  0.74636993  0.24698505  0.88301835  1
  O  O313  1  0.77594147  0.82797544  0.44653028  1
  O  O314  1  0.74438300  0.74377290  0.87909234  1
  O  O315  1  0.01007638  0.12263437  0.00627142  1
  O  O316  1  0.00787874  0.11621766  0.50611910  1
  O  O317  1  -0.00266321  0.61799443  0.01203187  1
  O  O318  1  0.00016388  0.60966781  0.51642531  1
  O  O319  1  0.50433544  0.11969102  0.00083440  1
  O  O320  1  0.50027029  0.11970373  0.50447710  1
  O  O321  1  0.50020509  0.63343555  0.01662659  1
  O  O322  1  0.50252876  0.61241471  0.50160170  1
  O  O323  1  0.48573897  0.37794880  0.49930063  1
  O  O324  1  0.49163874  0.37759129  0.98406084  1
  O  O325  1  0.49261589  0.88518731  0.49598375  1
  O  O326  1  0.50233987  0.88303363  0.99301926  1
  O  O327  1  0.99250140  0.37840368  0.49503132  1
  O  O328  1  1.00148131  0.38603981  0.99773399  1
  O  O329  1  1.01162659  0.89301966  0.49164201  1
  O  O330  1  0.99265095  0.87638230  0.99034137  1
  O  O331  1  0.48451053  0.50285544  0.37821601  1
  O  O332  1  0.50792513  0.48694497  0.87015347  1
  O  O333  1  0.48706440  1.00314528  0.37981211  1
  O  O334  1  0.50686671  0.98897807  0.88298239  1
  O  O335  1  0.99043608  0.48738148  0.38524229  1
  O  O336  1  0.99379444  0.48786329  0.88146821  1
  O  O337  1  0.99631143  1.00084509  0.38117588  1
  O  O338  1  0.99162940  0.99361254  0.87935426  1
  O  O339  1  0.01411539  -0.00056741  0.12280361  1
  O  O340  1  0.00258932  0.00706594  0.61900044  1
  O  O341  1  0.00149991  0.50234147  0.12119420  1
  O  O342  1  -0.00456786  0.49772094  0.61419944  1
  O  O343  1  0.50371353  0.01094186  0.11392004  1
  O  O344  1  0.50635610  0.00177157  0.61508570  1
  O  O345  1  0.49988755  0.52257031  0.12977923  1
  O  O346  1  0.50400133  0.49951519  0.61107201  1
  O  O347  1  0.24793611  0.38559196  0.23766841  1
  O  O348  1  0.24533636  0.36193520  0.72697936  1
  O  O349  1  0.24558823  0.88326323  0.24981393  1
  O  O350  1  0.23878861  0.88148227  0.74224299  1
  O  O351  1  0.73740292  0.37658869  0.23968203  1
  O  O352  1  0.74953204  0.38150763  0.74678201  1
  O  O353  1  0.74543639  0.88073938  0.25374092  1
  O  O354  1  0.74375854  0.88716242  0.75425387  1
  O  O355  1  0.25971200  0.10865083  0.24571996  1
  O  O356  1  0.25453389  0.11488034  0.75574743  1
  O  O357  1  0.25422555  0.61855207  0.25400707  1
  O  O358  1  0.26369034  0.64520914  0.76212915  1
  O  O359  1  0.74945951  0.11811511  0.25743299  1
  O  O360  1  0.74238554  0.12327623  0.77320040  1
  O  O361  1  0.76225401  0.62439688  0.24887739  1
  O  O362  1  0.76135848  0.61896956  0.75120522  1
  O  O363  1  0.36541593  0.11656670  0.36506181  1
  O  O364  1  0.36459199  0.12680392  0.86662064  1
  O  O365  1  0.36573185  0.61552528  0.36903138  1
  O  O366  1  0.36604840  0.64875483  0.86912435  1
  O  O367  1  0.86760209  0.12011337  0.37205284  1
  O  O368  1  0.86778668  0.11699173  0.88422681  1
  O  O369  1  0.88139097  0.61250559  0.37026426  1
  O  O370  1  0.86841583  0.61609860  0.86416341  1
  O  O371  1  0.13185553  0.37993603  0.13108255  1
  O  O372  1  0.13410834  0.37145189  0.61627041  1
  O  O373  1  0.12484358  0.88178447  0.13271278  1
  O  O374  1  0.12255534  0.88654564  0.63141641  1
  O  O375  1  0.63235536  0.37458289  0.13096581  1
  O  O376  1  0.63018171  0.37576209  0.62492283  1
  O  O377  1  0.62788804  0.87824310  0.13886880  1
  O  O378  1  0.61626604  0.87670580  0.63742042  1
  O  O379  1  0.18558593  0.24067230  0.27926833  1
  O  O380  1  0.12289262  0.23903603  0.76225390  1
  O  O381  1  0.11920930  0.75198375  0.26138590  1
  O  O382  1  0.12654899  0.76288676  0.74318564  1
  O  O383  1  0.61825067  0.25704683  0.25476167  1
  O  O384  1  0.62083078  0.24576359  0.75820823  1
  O  O385  1  0.61589256  0.75868843  0.25331047  1
  O  O386  1  0.63093075  0.75582694  0.75288077  1
  O  O387  1  0.37320675  0.23563180  0.25129274  1
  O  O388  1  0.38373701  0.23755166  0.73806814  1
  O  O389  1  0.37925933  0.74524875  0.24441832  1
  O  O390  1  0.38327969  0.76729071  0.72657313  1
  O  O391  1  0.86882013  0.25182108  0.23531870  1
  O  O392  1  0.87530938  0.24740594  0.73756383  1
  O  O393  1  0.87532244  0.74406172  0.26058229  1
  O  O394  1  0.87267978  0.73310295  0.75412351  1
  O  O395  1  0.38134700  0.49059321  0.49230577  1
  O  O396  1  0.39046622  0.50194121  1.00996236  1
  O  O397  1  0.37940588  0.99906599  0.49240531  1
  O  O398  1  0.38690778  0.99594813  1.00096631  1
  O  O399  1  0.88526623  0.48768472  0.49655767  1
  O  O400  1  0.88118894  0.50582208  0.98628075  1
  O  O401  1  0.88668220  1.00681732  0.48583001  1
  O  O402  1  0.87380658  0.99257156  0.99212181  1
  O  O403  1  0.12732219  0.00941065  0.00735361  1
  O  O404  1  0.12154602  0.00765225  0.50996226  1
  O  O405  1  0.11361350  0.50876976  0.01160964  1
  O  O406  1  0.10729859  0.49707531  0.49277557  1
  O  O407  1  0.61833375  0.00941610  0.00021187  1
  O  O408  1  0.60545469  0.01405035  0.49235171  1
  O  O409  1  0.61990470  0.50034179  0.00729868  1
  O  O410  1  0.61168271  0.48999123  0.49267440  1
  O  O411  1  0.35889059  0.38518300  0.10750482  1
  O  O412  1  0.36964340  0.36409214  0.61587002  1
  O  O413  1  0.37578668  0.86263242  0.12538197  1
  O  O414  1  0.36803046  0.87086174  0.61323853  1
  O  O415  1  0.86545604  0.36651671  0.12940862  1
  O  O416  1  0.87714567  0.35632026  0.61552954  1
  O  O417  1  0.87540262  0.87447581  0.11308072  1
  O  O418  1  0.86833995  0.88449673  0.60377988  1
  O  O419  1  0.12795897  0.11633742  0.38889895  1
  O  O420  1  0.12806024  0.12674130  0.88204395  1
  O  O421  1  0.12764925  0.63007002  0.37668726  1
  O  O422  1  0.10120467  0.63676688  0.89348758  1
  O  O423  1  0.62986072  0.13222154  0.37716092  1
  O  O424  1  0.62867045  0.13431348  0.88557225  1
  O  O425  1  0.62537510  0.61865286  0.39300767  1
  O  O426  1  0.63981193  0.63295210  0.86661410  1
