# generated using pymatgen
data_V85Zn86O256
_symmetry_space_group_name_H-M   'P 1'
_cell_length_a   16.93043377
_cell_length_b   16.93034833
_cell_length_c   16.93391617
_cell_angle_alpha   90.05670521
_cell_angle_beta   89.99291269
_cell_angle_gamma   89.98975915
_symmetry_Int_Tables_number   1
_chemical_formula_structural   V85Zn86O256
_chemical_formula_sum   'V85 Zn86 O256'
_cell_volume   4853.90376081
_cell_formula_units_Z   1
loop_
 _symmetry_equiv_pos_site_id
 _symmetry_equiv_pos_as_xyz
  1  'x, y, z'
loop_
 _atom_site_type_symbol
 _atom_site_label
 _atom_site_symmetry_multiplicity
 _atom_site_fract_x
 _atom_site_fract_y
 _atom_site_fract_z
 _atom_site_occupancy
  V  V0  1  0.87768039  0.25228722  0.13369698  1
  V  V1  1  0.87495386  0.49598062  0.37270395  1
  V  V2  1  0.87497813  0.62829445  0.75092129  1
  V  V3  1  0.00111597  0.37608130  0.87510184  1
  V  V4  1  0.86900572  0.37098258  -0.00201160  1
  V  V5  1  0.50144669  0.75086133  0.25124245  1
  V  V6  1  0.62712819  0.25364441  0.88134475  1
  V  V7  1  0.37186365  0.74952707  0.12392302  1
  V  V8  1  0.12432414  0.36469872  0.25052293  1
  V  V9  1  0.50053660  0.49567982  -0.00524252  1
  V  V10  1  0.37134283  -0.00036990  0.37314426  1
  V  V11  1  0.49364361  0.24499310  0.24458509  1
  V  V12  1  0.61720841  0.37373268  0.75369267  1
  V  V13  1  0.12017717  0.75047513  0.36991479  1
  V  V14  1  0.25039283  0.00313939  0.74739338  1
  V  V15  1  0.12695487  0.49822947  0.62414330  1
  V  V16  1  0.38101944  0.00386177  0.87492269  1
  V  V17  1  0.00022305  0.49927393  0.50036614  1
  V  V18  1  0.37729439  0.48379587  0.37853468  1
  V  V19  1  0.87512034  0.75335459  0.62192709  1
  V  V20  1  0.12553949  0.62685780  0.50012743  1
  V  V21  1  0.87660787  0.88340925  0.49299000  1
  V  V22  1  0.62602893  0.88440140  0.74413842  1
  V  V23  1  0.49762659  0.48849606  0.49747767  1
  V  V24  1  0.62476416  0.49841593  0.12493264  1
  V  V25  1  0.37383475  0.37018182  0.00587266  1
  V  V26  1  0.24514377  0.88111166  0.62576185  1
  V  V27  1  0.12831709  0.49869289  0.12952220  1
  V  V28  1  0.62363012  0.49981014  0.62462696  1
  V  V29  1  0.62565664  0.74880229  0.37360266  1
  V  V30  1  0.49934951  0.75368289  0.75241555  1
  V  V31  1  0.88736814  -0.01231862  0.89122792  1
  V  V32  1  0.37573761  0.62561838  0.75057080  1
  V  V33  1  0.25035677  0.50001998  0.74906072  1
  V  V34  1  0.75288947  0.49661505  0.24809748  1
  V  V35  1  0.11967680  0.75638617  0.87507571  1
  V  V36  1  -0.00510750  0.88188888  0.36142319  1
  V  V37  1  0.74548302  0.36603488  0.12263676  1
  V  V38  1  0.50024855  0.62402449  0.12461151  1
  V  V39  1  0.08817145  -0.02590428  0.10717749  1
  V  V40  1  0.00107287  0.36480956  0.37314918  1
  V  V41  1  0.49999201  0.62593040  0.62443099  1
  V  V42  1  0.00670953  0.00069691  0.50965258  1
  V  V43  1  0.38132949  0.87919137  -0.00218796  1
  V  V44  1  0.87822629  0.12274551  0.75479077  1
  V  V45  1  0.87036948  0.74488765  0.12246401  1
  V  V46  1  0.13274470  0.87570567  0.24793549  1
  V  V47  1  0.00064196  0.49921468  0.00144853  1
  V  V48  1  0.49208197  0.24709118  0.75379972  1
  V  V49  1  -0.00669861  0.62440187  0.14455303  1
  V  V50  1  0.63079337  0.62822564  -0.00048593  1
  V  V51  1  0.75497712  0.12783824  0.88411140  1
  V  V52  1  0.37651424  0.24094856  0.61502985  1
  V  V53  1  0.63247874  0.75311582  0.87674183  1
  V  V54  1  0.25044105  0.75302905  0.50092332  1
  V  V55  1  0.62398267  0.23376371  0.38025184  1
  V  V56  1  0.12878492  0.24998718  0.87779971  1
  V  V57  1  0.25282278  0.12434879  0.87314845  1
  V  V58  1  0.75733047  0.62315419  0.37052374  1
  V  V59  1  -0.00094308  0.13412475  0.14789482  1
  V  V60  1  0.61937591  0.37404324  0.26315478  1
  V  V61  1  0.63001488  0.87676798  0.24907935  1
  V  V62  1  0.12436429  0.62523572  -0.00002006  1
  V  V63  1  0.75097145  0.37126658  0.62539165  1
  V  V64  1  0.11581928  0.88213769  0.75148074  1
  V  V65  1  0.76547876  0.00333293  0.24617561  1
  V  V66  1  0.25619598  0.88959531  0.12787716  1
  V  V67  1  0.74944592  0.86759231  0.10428426  1
  V  V68  1  0.37877511  0.49445505  0.87315898  1
  V  V69  1  0.75113869  0.75097988  0.49713259  1
  V  V70  1  0.00277331  0.24587243  0.74741519  1
  V  V71  1  0.62139391  0.12334493  -0.00078941  1
  V  V72  1  0.24658088  0.12186056  0.36514036  1
  V  V73  1  0.12749761  0.12336987  0.51346276  1
  V  V74  1  0.87966711  0.24162890  0.62397543  1
  V  V75  1  0.51569733  0.11992416  0.62581987  1
  V  V76  1  0.11344260  0.12084580  0.00093975  1
  V  V77  1  0.51427303  0.00333601  0.49963663  1
  V  V78  1  0.62448930  0.62473188  0.49931634  1
  V  V79  1  0.87651963  0.37243235  0.50263477  1
  V  V80  1  0.25881062  0.37426242  0.61590919  1
  V  V81  1  0.00043561  0.62706506  0.62473056  1
  V  V82  1  0.62026200  0.00059451  0.11903299  1
  V  V83  1  0.37441780  0.62462064  0.25614253  1
  V  V84  1  0.75075736  0.50202864  0.75102308  1
  Zn  Zn85  1  0.36722800  0.12104602  0.23921711  1
  Zn  Zn86  1  0.74925878  0.00438220  0.74936084  1
  Zn  Zn87  1  -0.00493225  0.76011481  0.75605824  1
  Zn  Zn88  1  0.74186648  0.88225535  0.61663632  1
  Zn  Zn89  1  0.37292281  0.75311024  0.62668760  1
  Zn  Zn90  1  0.25038141  0.75067747  -0.00159118  1
  Zn  Zn91  1  0.50014104  0.87657131  0.37755608  1
  Zn  Zn92  1  0.37585738  0.87929300  0.50293372  1
  Zn  Zn93  1  0.25492685  0.36572453  0.13159815  1
  Zn  Zn94  1  0.25774336  0.24228457  0.00689590  1
  Zn  Zn95  1  0.24959013  0.62635845  0.87612425  1
  Zn  Zn96  1  0.74011984  0.23583570  0.50359008  1
  Zn  Zn97  1  0.50299071  0.88217952  0.87802307  1
  Zn  Zn98  1  0.25248105  0.25036004  0.49385113  1
  Zn  Zn99  1  0.12745227  0.37420085  0.74867328  1
  Zn  Zn100  1  0.25094627  0.49820398  0.25315329  1
  Zn  Zn101  1  0.12200061  0.24006515  0.37215931  1
  Zn  Zn102  1  0.25008340  0.62509182  0.37494816  1
  Zn  Zn103  1  0.75638549  0.62977906  0.88279589  1
  Zn  Zn104  1  0.87590099  0.50187827  0.87460563  1
  Zn  Zn105  1  0.48980237  0.12398642  0.11658932  1
  Zn  Zn106  1  0.76736618  0.10619087  0.38331303  1
  Zn  Zn107  1  0.18746008  0.18387569  0.18229170  1
  Zn  Zn108  1  0.19157854  0.18807494  0.68984841  1
  Zn  Zn109  1  0.18884775  0.68794210  0.18895243  1
  Zn  Zn110  1  0.18596386  0.69153443  0.68913905  1
  Zn  Zn111  1  0.68621312  0.18598045  0.18975662  1
  Zn  Zn112  1  0.69067392  0.18893906  0.69409484  1
  Zn  Zn113  1  0.69346711  0.68725151  0.18761315  1
  Zn  Zn114  1  0.68824444  0.69307252  0.68722688  1
  Zn  Zn115  1  0.30877611  0.30807393  0.31083339  1
  Zn  Zn116  1  0.31440563  0.31502535  0.81215846  1
  Zn  Zn117  1  0.31179427  0.81497216  0.31475755  1
  Zn  Zn118  1  0.30734549  0.81464898  0.81441020  1
  Zn  Zn119  1  0.83106221  0.27105446  0.33390615  1
  Zn  Zn120  1  0.81154491  0.31088494  0.81252640  1
  Zn  Zn121  1  0.81520506  0.80997477  0.30278106  1
  Zn  Zn122  1  0.81131886  0.81626431  0.81508059  1
  Zn  Zn123  1  0.18969661  0.43724032  0.43528902  1
  Zn  Zn124  1  0.19015356  0.43837986  0.93776286  1
  Zn  Zn125  1  0.18612876  0.93927664  0.43720553  1
  Zn  Zn126  1  0.19127579  0.93650254  0.93872952  1
  Zn  Zn127  1  0.68828692  0.43329726  0.43926523  1
  Zn  Zn128  1  0.68767536  0.43869590  0.93560921  1
  Zn  Zn129  1  0.69069322  0.93866751  0.43034428  1
  Zn  Zn130  1  0.69007307  0.94496045  0.92959892  1
  Zn  Zn131  1  0.30971005  0.06457026  0.05743648  1
  Zn  Zn132  1  0.31505336  0.06254508  0.55936511  1
  Zn  Zn133  1  0.31106090  0.56072966  0.06347786  1
  Zn  Zn134  1  0.31448991  0.56501865  0.56020685  1
  Zn  Zn135  1  0.81435710  0.06574193  0.06680938  1
  Zn  Zn136  1  0.80911913  0.06034287  0.56541087  1
  Zn  Zn137  1  0.81524914  0.55891918  0.06305175  1
  Zn  Zn138  1  0.81212494  0.56283338  0.56202270  1
  Zn  Zn139  1  0.44079643  0.43594195  0.18975745  1
  Zn  Zn140  1  0.43647076  0.43389917  0.68324876  1
  Zn  Zn141  1  0.44118715  0.93963682  0.18880922  1
  Zn  Zn142  1  0.43356909  0.94048255  0.68717169  1
  Zn  Zn143  1  0.93706983  0.43258036  0.18937150  1
  Zn  Zn144  1  0.93854113  0.43607055  0.68891772  1
  Zn  Zn145  1  0.93703671  0.92685419  0.16859180  1
  Zn  Zn146  1  0.92763985  0.94192508  0.68475785  1
  Zn  Zn147  1  0.06615187  0.05420636  0.30912765  1
  Zn  Zn148  1  0.06130892  0.05989505  0.81512616  1
  Zn  Zn149  1  0.06510000  0.55598120  0.31618427  1
  Zn  Zn150  1  0.06265863  0.56516906  0.81249937  1
  Zn  Zn151  1  0.56407438  0.06143539  0.30910495  1
  Zn  Zn152  1  0.56162409  0.06884367  0.81185790  1
  Zn  Zn153  1  0.56184131  0.56065166  0.31416745  1
  Zn  Zn154  1  0.56353904  0.56507770  0.81393169  1
  Zn  Zn155  1  0.44162995  0.18321781  0.43365195  1
  Zn  Zn156  1  0.44039653  0.18693559  0.93483534  1
  Zn  Zn157  1  0.43795290  0.68807306  0.43881237  1
  Zn  Zn158  1  0.43997254  0.68598015  0.93628330  1
  Zn  Zn159  1  0.93710118  0.17751524  0.43943641  1
  Zn  Zn160  1  0.93632983  0.19215380  0.94051727  1
  Zn  Zn161  1  0.93862998  0.68976122  0.43372610  1
  Zn  Zn162  1  0.93900938  0.68965441  0.94146407  1
  Zn  Zn163  1  0.06510124  0.31081485  0.06268144  1
  Zn  Zn164  1  0.06660191  0.31039433  0.56201329  1
  Zn  Zn165  1  0.06217041  0.80034236  0.06975847  1
  Zn  Zn166  1  0.06278926  0.81632994  0.56352358  1
  Zn  Zn167  1  0.55930845  0.31243427  0.06275829  1
  Zn  Zn168  1  0.56121893  0.30882240  0.56358906  1
  Zn  Zn169  1  0.56160828  0.81213824  0.06199683  1
  Zn  Zn170  1  0.55991581  0.81466555  0.56258130  1
  O  O171  1  0.10970677  0.12048409  0.11890430  1
  O  O172  1  0.12994789  0.12642812  0.61258308  1
  O  O173  1  0.11562402  0.62078069  0.12184513  1
  O  O174  1  0.12036519  0.61961961  0.62058112  1
  O  O175  1  0.62889412  0.11676317  0.11481020  1
  O  O176  1  0.61444939  0.12960231  0.62804312  1
  O  O177  1  0.62007166  0.62026999  0.11827293  1
  O  O178  1  0.62094597  0.62013442  0.62096182  1
  O  O179  1  0.37383430  0.38558853  0.37304181  1
  O  O180  1  0.37343428  0.38860903  0.88291188  1
  O  O181  1  0.37828043  0.88574022  0.37839732  1
  O  O182  1  0.37548258  0.88185212  0.88215470  1
  O  O183  1  0.88230758  0.37370972  0.38452218  1
  O  O184  1  0.88191101  0.37585626  0.87975734  1
  O  O185  1  0.88772959  0.86227906  0.37917604  1
  O  O186  1  0.87574588  0.88789935  0.87303336  1
  O  O187  1  0.26361757  0.00412494  0.37979250  1
  O  O188  1  0.25654241  0.00719111  0.86962945  1
  O  O189  1  0.26548141  0.50409034  0.37710660  1
  O  O190  1  0.25666684  0.50284740  0.86475361  1
  O  O191  1  0.75290319  -0.00574721  0.35280624  1
  O  O192  1  0.76215375  0.01145426  0.86830799  1
  O  O193  1  0.75445598  0.50317398  0.36955135  1
  O  O194  1  0.75079250  0.50325974  0.86014873  1
  O  O195  1  0.23672540  0.49784513  0.12672098  1
  O  O196  1  0.25032746  0.49300397  0.62894517  1
  O  O197  1  0.24351816  0.98877860  0.12031273  1
  O  O198  1  0.25492225  0.99442893  0.63382290  1
  O  O199  1  0.74453849  0.49400117  0.13243482  1
  O  O200  1  0.74524745  0.49432126  0.63388137  1
  O  O201  1  0.74414476  0.98596177  0.12807699  1
  O  O202  1  0.77486943  0.98747792  0.64014349  1
  O  O203  1  0.01038514  0.38374472  0.26318602  1
  O  O204  1  0.00181987  0.36715760  0.75903643  1
  O  O205  1  0.00359559  0.87224124  0.25860553  1
  O  O206  1  0.01235116  0.87986643  0.74144232  1
  O  O207  1  0.50955201  0.36136421  0.24333224  1
  O  O208  1  0.51184675  0.36748398  0.74289924  1
  O  O209  1  0.51346196  0.86822559  0.24942606  1
  O  O210  1  0.50789648  0.86950483  0.75064408  1
  O  O211  1  0.50293434  0.13628229  0.24545307  1
  O  O212  1  0.50182102  0.13275862  0.73613767  1
  O  O213  1  0.49435951  0.63011924  0.24433004  1
  O  O214  1  0.49646883  0.63239888  0.74437487  1
  O  O215  1  1.00821003  0.13401473  0.24617611  1
  O  O216  1  0.99594406  0.13899890  0.75735299  1
  O  O217  1  1.00305425  0.62057806  0.24254332  1
  O  O218  1  0.98733084  0.62465291  0.74352360  1
  O  O219  1  0.37872290  0.26767354  -0.00821500  1
  O  O220  1  0.37585809  0.24496530  0.51125794  1
  O  O221  1  0.37469257  0.75250968  0.00818122  1
  O  O222  1  0.36155994  0.75206682  0.49962551  1
  O  O223  1  0.87783225  0.26596069  0.00888247  1
  O  O224  1  0.87864176  0.25684292  0.51238014  1
  O  O225  1  0.86635722  0.72597171  0.01974869  1
  O  O226  1  0.87125796  0.75617138  0.50461200  1
  O  O227  1  0.12598291  0.23384990  0.49780666  1
  O  O228  1  0.12524319  0.24465846  0.98717361  1
  O  O229  1  0.13334962  0.74747384  0.49479728  1
  O  O230  1  0.12517481  0.74216781  0.99561187  1
  O  O231  1  0.61931519  0.25070336  0.48490470  1
  O  O232  1  0.62127728  0.24880382  0.98662797  1
  O  O233  1  0.63045496  0.74640518  0.49417312  1
  O  O234  1  0.61517906  0.73939703  0.98977492  1
  O  O235  1  0.50821652  0.24459867  0.14002363  1
  O  O236  1  0.49251199  0.23978288  0.62809751  1
  O  O237  1  0.48994395  0.74479235  0.13057228  1
  O  O238  1  0.49824261  0.74519540  0.63603427  1
  O  O239  1  0.99397027  0.24134256  0.12212814  1
  O  O240  1  0.99307263  0.25815515  0.63680435  1
  O  O241  1  0.98786089  0.73182507  0.12685181  1
  O  O242  1  0.99311315  0.74345341  0.62634530  1
  O  O243  1  0.00408335  0.26272617  0.38359048  1
  O  O244  1  0.00711467  0.26055493  0.87022804  1
  O  O245  1  0.01424793  0.76117624  0.38164555  1
  O  O246  1  0.01265793  0.74710040  0.87419302  1
  O  O247  1  0.51430237  0.24288649  0.36416693  1
  O  O248  1  0.51051801  0.24387124  0.86265650  1
  O  O249  1  0.50736027  0.75166231  0.36968259  1
  O  O250  1  0.50764115  0.74989173  0.86313860  1
  O  O251  1  0.23748368  0.12226867  0.49331795  1
  O  O252  1  0.23634300  0.12471399  0.98787776  1
  O  O253  1  0.24316366  0.63447770  0.49941350  1
  O  O254  1  0.23619279  0.62572803  1.00233742  1
  O  O255  1  0.75570426  0.12429370  0.49519153  1
  O  O256  1  0.74297697  0.12546040  0.99005079  1
  O  O257  1  0.74398785  0.62895227  0.49237018  1
  O  O258  1  0.73445584  0.61240435  0.99952768  1
  O  O259  1  0.26602250  0.37753885  -0.00014571  1
  O  O260  1  0.24555969  0.37065665  0.51202488  1
  O  O261  1  0.26238626  0.87032330  0.00938025  1
  O  O262  1  0.24806863  0.87018356  0.50791222  1
  O  O263  1  0.75743886  0.38377970  0.00911496  1
  O  O264  1  0.75458063  0.37517618  0.51523778  1
  O  O265  1  0.74155248  0.87489974  0.00661154  1
  O  O266  1  0.76028642  0.87040255  0.49581678  1
  O  O267  1  0.12885055  0.49271125  0.24410790  1
  O  O268  1  0.13436089  0.50063401  0.74339382  1
  O  O269  1  0.11186836  0.98066576  0.22681418  1
  O  O270  1  0.13689643  0.99389746  0.75713959  1
  O  O271  1  0.62546358  0.49253625  0.24388861  1
  O  O272  1  0.62989512  0.49393983  0.74500949  1
  O  O273  1  0.63112125  0.99099103  0.24038190  1
  O  O274  1  0.62458213  0.98710856  0.75598816  1
  O  O275  1  0.38678879  0.00168124  0.26903269  1
  O  O276  1  0.35986844  -0.00619978  0.76016448  1
  O  O277  1  0.37789783  0.50610298  0.26156452  1
  O  O278  1  0.37148354  0.50290712  0.75530611  1
  O  O279  1  0.86316148  -0.01243545  0.23750961  1
  O  O280  1  0.88425411  0.01607242  0.76083926  1
  O  O281  1  0.86317439  0.49141248  0.25853984  1
  O  O282  1  0.86690620  0.50813909  0.74837691  1
  O  O283  1  0.11831514  0.37517781  0.36826661  1
  O  O284  1  0.12000614  0.36850383  0.87381137  1
  O  O285  1  0.11995800  0.87160674  0.36557843  1
  O  O286  1  0.12991202  0.86826978  0.86678952  1
  O  O287  1  0.61874898  0.38114612  0.36421154  1
  O  O288  1  0.63113529  0.36827997  0.86401430  1
  O  O289  1  0.62435310  0.86735535  0.36467676  1
  O  O290  1  0.62142321  0.86960344  0.86739293  1
  O  O291  1  0.37727473  0.11627482  0.12672560  1
  O  O292  1  0.37955780  0.13776583  0.62578033  1
  O  O293  1  0.37866785  0.62997778  0.13387409  1
  O  O294  1  0.38239867  0.62783684  0.63256247  1
  O  O295  1  0.88578274  0.14008096  0.12342738  1
  O  O296  1  0.87573671  0.13717654  0.63636943  1
  O  O297  1  0.88952125  0.61760325  0.12836148  1
  O  O298  1  0.87776977  0.63564890  0.62838768  1
  O  O299  1  0.24260454  0.25420588  0.11747353  1
  O  O300  1  0.26321904  0.25476994  0.62590307  1
  O  O301  1  0.26385985  0.75417302  0.12578845  1
  O  O302  1  0.25007563  0.75727638  0.61710152  1
  O  O303  1  0.75380497  0.26174087  0.12806501  1
  O  O304  1  0.75801474  0.25678782  0.62536547  1
  O  O305  1  0.74614734  0.76094644  0.11788725  1
  O  O306  1  0.75796888  0.75477336  0.61555945  1
  O  O307  1  0.24654330  0.23760387  0.37735135  1
  O  O308  1  0.24446484  0.24410968  0.87540284  1
  O  O309  1  0.23915362  0.75133345  0.38351151  1
  O  O310  1  0.23702837  0.74566371  0.87708699  1
  O  O311  1  0.72596259  0.26815399  0.38226410  1
  O  O312  1  0.73972833  0.24191312  0.86939881  1
  O  O313  1  0.74679278  0.74053325  0.37675760  1
  O  O314  1  0.73665328  0.74717741  0.87068260  1
  O  O315  1  0.01191657  0.13061736  0.00008807  1
  O  O316  1  0.01158562  0.11044439  0.49508626  1
  O  O317  1  0.01123970  0.61686489  0.00511966  1
  O  O318  1  0.00517403  0.62007746  0.50453142  1
  O  O319  1  0.51599628  0.12969376  -0.00063184  1
  O  O320  1  0.50004998  0.11400051  0.51211421  1
  O  O321  1  0.50716726  0.61521046  0.00478043  1
  O  O322  1  0.50630779  0.62062796  0.50694073  1
  O  O323  1  0.50259602  0.38974515  0.50770024  1
  O  O324  1  0.49041374  0.38756096  1.00322800  1
  O  O325  1  0.49712084  0.88880617  0.50159985  1
  O  O326  1  0.48647948  0.87085520  0.99745502  1
  O  O327  1  0.99762905  0.38186123  0.49633488  1
  O  O328  1  0.99519266  0.37962295  0.99246608  1
  O  O329  1  0.99858668  0.88349860  0.49079945  1
  O  O330  1  1.01350928  0.90182039  1.07548233  1
  O  O331  1  0.48701278  0.50479850  0.38338012  1
  O  O332  1  0.49287897  0.50461630  0.88321554  1
  O  O333  1  0.49599179  1.00275537  0.38636540  1
  O  O334  1  0.48517055  1.00252100  0.86756265  1
  O  O335  1  0.99280761  0.49350564  0.38312025  1
  O  O336  1  1.00118648  0.48859850  0.87748235  1
  O  O337  1  1.00366704  0.98493687  0.38115003  1
  O  O338  1  0.98666690  1.00502558  0.88132435  1
  O  O339  1  -0.00874153  0.02789547  0.13234610  1
  O  O340  1  -0.00211824  -0.00457836  0.60793626  1
  O  O341  1  0.00893786  0.50775590  0.12365687  1
  O  O342  1  0.00513529  0.50528564  0.62016524  1
  O  O343  1  0.51687260  -0.00030360  0.12614093  1
  O  O344  1  0.49598623  0.01287560  0.61802268  1
  O  O345  1  0.50530779  0.50613037  0.11807169  1
  O  O346  1  0.50444173  0.50669048  0.61984665  1
  O  O347  1  0.24119395  0.37884676  0.24981372  1
  O  O348  1  0.25144750  0.38645216  0.74121784  1
  O  O349  1  0.24486558  0.87501626  0.24240352  1
  O  O350  1  0.24106872  0.88227060  0.74368884  1
  O  O351  1  0.73531247  0.38611037  0.23968966  1
  O  O352  1  0.74487896  0.38161662  0.74119950  1
  O  O353  1  0.73982753  0.87760640  0.24048341  1
  O  O354  1  0.73249179  0.87276579  0.75025516  1
  O  O355  1  0.24638913  0.12177449  0.26094144  1
  O  O356  1  0.24478160  0.11780132  0.76298842  1
  O  O357  1  0.26044088  0.62129844  0.25203653  1
  O  O358  1  0.25627712  0.61392226  0.74668993  1
  O  O359  1  0.75163335  0.10501216  0.24022284  1
  O  O360  1  0.76111908  0.12669399  0.76088177  1
  O  O361  1  0.73971740  0.60808242  0.25909339  1
  O  O362  1  0.76042864  0.61930391  0.74655421  1
  O  O363  1  0.36604676  0.11560061  0.37327743  1
  O  O364  1  0.36455633  0.11777607  0.88222118  1
  O  O365  1  0.37523515  0.62513343  0.36353886  1
  O  O366  1  0.37270050  0.61483051  0.86889813  1
  O  O367  1  0.86228372  0.16358683  0.36046382  1
  O  O368  1  0.86965763  0.12817478  0.87184792  1
  O  O369  1  0.86315677  0.61841083  0.37982097  1
  O  O370  1  0.87436043  0.62420128  0.86507427  1
  O  O371  1  0.12088459  0.38397140  0.13333286  1
  O  O372  1  0.13459485  0.38137305  0.62785881  1
  O  O373  1  0.14295534  0.86665358  0.13111708  1
  O  O374  1  0.13683758  0.87127477  0.63462694  1
  O  O375  1  0.63066463  0.38040097  0.12721042  1
  O  O376  1  0.63268080  0.37752895  0.63251125  1
  O  O377  1  0.63261055  0.87850007  0.12731026  1
  O  O378  1  0.62458498  0.87110488  0.63992452  1
  O  O379  1  0.12558671  0.26186529  0.25155753  1
  O  O380  1  0.12004952  0.25122445  0.75997044  1
  O  O381  1  0.12917622  0.75982345  0.25835504  1
  O  O382  1  0.12132419  0.75932720  0.75817529  1
  O  O383  1  0.62076446  0.25649202  0.25982104  1
  O  O384  1  0.61745599  0.25758178  0.75639665  1
  O  O385  1  0.62224231  0.75491598  0.25372374  1
  O  O386  1  0.61736771  0.75720311  0.75666409  1
  O  O387  1  0.39090106  0.24732227  0.25654631  1
  O  O388  1  0.38811947  0.25634654  0.74282523  1
  O  O389  1  0.38015107  0.74390598  0.24541845  1
  O  O390  1  0.38193487  0.74501272  0.75258491  1
  O  O391  1  0.87711309  0.27796596  0.23023133  1
  O  O392  1  0.88354871  0.24327165  0.74696260  1
  O  O393  1  0.85422126  0.73641151  0.22582943  1
  O  O394  1  0.87462903  0.74592440  0.74168180  1
  O  O395  1  0.38287971  0.50540902  0.48689882  1
  O  O396  1  0.38115451  0.49691864  0.99232576  1
  O  O397  1  0.38460122  1.00075452  0.48842885  1
  O  O398  1  0.36867111  0.98991171  0.98769882  1
  O  O399  1  0.87856467  0.49201352  0.49571972  1
  O  O400  1  0.88299056  0.49090749  0.99566887  1
  O  O401  1  0.88709090  0.98761763  0.49734727  1
  O  O402  1  0.86953810  1.00157066  0.98961278  1
  O  O403  1  0.12627080  0.00458656  0.00956901  1
  O  O404  1  0.11558630  0.00706454  0.50030742  1
  O  O405  1  0.12077056  0.50428536  0.00816015  1
  O  O406  1  0.12156020  0.50651329  0.50485983  1
  O  O407  1  0.63060469  0.01061091  0.00486149  1
  O  O408  1  0.61374863  -0.00490136  0.49580878  1
  O  O409  1  0.61619136  0.50395774  0.00273822  1
  O  O410  1  0.61949109  0.50510764  0.50571962  1
  O  O411  1  0.37383178  0.38466578  0.10979609  1
  O  O412  1  0.36926249  0.36074125  0.62614904  1
  O  O413  1  0.37377604  0.86951398  0.12105914  1
  O  O414  1  0.36175501  0.87255427  0.62438345  1
  O  O415  1  0.86651393  0.37675370  0.11452562  1
  O  O416  1  0.86815864  0.36697542  0.62462445  1
  O  O417  1  0.85757071  0.85902819  0.11933584  1
  O  O418  1  0.88097266  0.86218336  0.61289699  1
  O  O419  1  0.13229008  0.11860607  0.38083900  1
  O  O420  1  0.12944205  0.13188719  0.88090255  1
  O  O421  1  0.12574105  0.63307204  0.38072619  1
  O  O422  1  0.12626220  0.63042231  0.88401643  1
  O  O423  1  0.63658228  0.13330346  0.36828154  1
  O  O424  1  0.63363847  0.13129737  0.87964442  1
  O  O425  1  0.63403219  0.62799969  0.38009152  1
  O  O426  1  0.62733801  0.63335741  0.88220533  1
