# generated using pymatgen
data_V85Zn86O256
_symmetry_space_group_name_H-M   'P 1'
_cell_length_a   16.94192175
_cell_length_b   16.95184207
_cell_length_c   16.94250955
_cell_angle_alpha   89.99029982
_cell_angle_beta   90.01020490
_cell_angle_gamma   89.99456864
_symmetry_Int_Tables_number   1
_chemical_formula_structural   V85Zn86O256
_chemical_formula_sum   'V85 Zn86 O256'
_cell_volume   4865.83405128
_cell_formula_units_Z   1
loop_
 _symmetry_equiv_pos_site_id
 _symmetry_equiv_pos_as_xyz
  1  'x, y, z'
loop_
 _atom_site_type_symbol
 _atom_site_label
 _atom_site_symmetry_multiplicity
 _atom_site_fract_x
 _atom_site_fract_y
 _atom_site_fract_z
 _atom_site_occupancy
  V  V0  1  0.37657979  0.62074875  0.24786172  1
  V  V1  1  0.74788877  0.86870261  0.62214811  1
  V  V2  1  0.75147959  0.62862951  0.37921837  1
  V  V3  1  0.00230380  0.75599525  0.74727427  1
  V  V4  1  0.49364924  0.87299800  0.87768489  1
  V  V5  1  0.49895422  0.62412134  0.62414011  1
  V  V6  1  0.74892732  0.24225703  0.48999745  1
  V  V7  1  0.62850940  0.62584939  0.50001495  1
  V  V8  1  0.06610444  0.18061634  0.05572880  1
  V  V9  1  0.37019166  0.49797799  0.87243500  1
  V  V10  1  0.00693027  0.87955305  0.87289689  1
  V  V11  1  0.12092592  -0.01735237  0.12516760  1
  V  V12  1  0.75322198  0.74173870  -0.00423092  1
  V  V13  1  0.62203255  0.87302889  0.74983729  1
  V  V14  1  0.87644308  0.87630641  0.49715021  1
  V  V15  1  0.11741172  0.12453810  0.50954120  1
  V  V16  1  0.24170832  -0.00267222  0.75346221  1
  V  V17  1  0.37580969  0.00411011  0.87011130  1
  V  V18  1  0.00120496  0.24930475  0.73810252  1
  V  V19  1  0.37296766  0.49462711  0.37024084  1
  V  V20  1  0.87882249  0.12477035  0.74306986  1
  V  V21  1  0.61979911  0.00180556  0.62307940  1
  V  V22  1  0.49405463  0.88169445  0.37614234  1
  V  V23  1  0.73781116  0.25268791  -0.00270217  1
  V  V24  1  0.12781757  0.75503096  0.87096106  1
  V  V25  1  0.87440528  0.37445155  0.00198968  1
  V  V26  1  0.25631368  0.75883127  -0.00337000  1
  V  V27  1  0.25016302  0.62328364  0.37010554  1
  V  V28  1  0.50512778  0.62281452  0.12509674  1
  V  V29  1  0.12258820  0.75218756  0.36066177  1
  V  V30  1  0.87306166  0.00052519  0.87955732  1
  V  V31  1  0.50354544  0.36658802  0.87615478  1
  V  V32  1  0.88663867  0.63085276  0.24867542  1
  V  V33  1  0.25149215  0.24804550  0.00617707  1
  V  V34  1  0.50100098  0.13139505  0.12855534  1
  V  V35  1  0.62526680  0.49467656  0.12725815  1
  V  V36  1  0.74318321  0.13043671  0.87551632  1
  V  V37  1  0.25402904  0.11073068  0.38116892  1
  V  V38  1  -0.00237839  0.00060535  0.50444258  1
  V  V39  1  0.87058060  0.62638425  0.75316611  1
  V  V40  1  0.50223295  0.49528824  0.49829188  1
  V  V41  1  0.50880623  0.36560708  0.35996562  1
  V  V42  1  0.74669138  0.87322147  0.12417432  1
  V  V43  1  0.62788070  0.74371802  0.87299571  1
  V  V44  1  0.89057548  0.11799022  0.24601143  1
  V  V45  1  0.37708432  0.11409463  0.25591957  1
  V  V46  1  0.00090516  0.37942422  0.87168564  1
  V  V47  1  0.37880990  0.37204993  0.50230629  1
  V  V48  1  0.37158100  0.62143363  0.74723783  1
  V  V49  1  0.75187728  0.37023184  0.13398788  1
  V  V50  1  0.14571341  0.50850032  0.13795346  1
  V  V51  1  0.62724101  0.74926481  0.37721205  1
  V  V52  1  0.12304385  0.24697880  0.87135543  1
  V  V53  1  0.00303093  0.36995357  0.36654273  1
  V  V54  1  0.00132780  0.50902594  0.01358715  1
  V  V55  1  0.12200732  0.24489566  0.36737776  1
  V  V56  1  0.74872515  0.50082519  0.75578545  1
  V  V57  1  0.24938568  0.24738811  0.50333480  1
  V  V58  1  0.24698160  0.62241428  0.87059094  1
  V  V59  1  0.50816346  0.75180711  0.25017627  1
  V  V60  1  0.74781663  0.49934980  0.25258740  1
  V  V61  1  0.37977707  0.75650442  0.11979939  1
  V  V62  1  0.87364247  0.50429917  0.87695514  1
  V  V63  1  0.25460595  0.12853945  0.87120493  1
  V  V64  1  0.62677405  -0.00156319  0.12365023  1
  V  V65  1  0.62945833  0.62264721  -0.00270891  1
  V  V66  1  0.49968086  0.49812409  0.00123108  1
  V  V67  1  0.37020725  0.37569140  0.00700851  1
  V  V68  1  0.00697894  0.61746279  0.62340397  1
  V  V69  1  0.37321793  0.25187589  0.13742371  1
  V  V70  1  0.24994219  0.75201896  0.49910018  1
  V  V71  1  0.24231759  0.87394207  0.63074150  1
  V  V72  1  0.87435936  0.87524464  -0.00202010  1
  V  V73  1  0.12791778  0.38885440  0.74564739  1
  V  V74  1  0.75383274  0.37030598  0.62348620  1
  V  V75  1  0.24686031  0.38998984  0.62576200  1
  V  V76  1  0.00187391  0.87599338  0.36449815  1
  V  V77  1  0.62723643  0.49747700  0.62655417  1
  V  V78  1  0.37454440  0.24751297  0.63721600  1
  V  V79  1  0.74984186  0.00029273  0.75013180  1
  V  V80  1  0.49580227  0.12480956  0.62856115  1
  V  V81  1  0.88779129  0.74775811  0.12625514  1
  V  V82  1  0.49167245  -0.00249884  0.00258466  1
  V  V83  1  0.87866023  0.49809088  0.37909779  1
  V  V84  1  0.87230775  0.74808002  0.61924216  1
  Zn  Zn85  1  0.87829584  0.36870583  0.49655851  1
  Zn  Zn86  1  0.48896911  0.00738405  0.49449480  1
  Zn  Zn87  1  0.13008524  0.62033508  0.50157983  1
  Zn  Zn88  1  0.50619745  0.24138970  0.75687354  1
  Zn  Zn89  1  0.49814284  0.74910925  0.74882904  1
  Zn  Zn90  1  0.11775414  -0.00124489  0.63328772  1
  Zn  Zn91  1  0.24596731  -0.01000552  0.25186628  1
  Zn  Zn92  1  0.00331134  0.00947701  0.00155338  1
  Zn  Zn93  1  0.87801300  0.24171686  0.61606560  1
  Zn  Zn94  1  0.67200807  0.91824737  0.28752050  1
  Zn  Zn95  1  0.62070894  0.12863778  -0.00303739  1
  Zn  Zn96  1  0.01295344  0.49247640  0.50254616  1
  Zn  Zn97  1  0.75281514  0.07974016  0.33846502  1
  Zn  Zn98  1  0.62848957  0.36664003  0.75518004  1
  Zn  Zn99  1  0.62775715  0.23909574  0.35525668  1
  Zn  Zn100  1  0.89001717  0.24438866  0.12667257  1
  Zn  Zn101  1  0.62683540  0.12208894  0.48875506  1
  Zn  Zn102  1  0.36936655  0.88470867  0.49928875  1
  Zn  Zn103  1  0.37438297  0.75198237  0.62346471  1
  Zn  Zn104  1  0.14044998  0.37475703  0.24947846  1
  Zn  Zn105  1  0.25498303  0.87551004  0.12754590  1
  Zn  Zn106  1  0.12217306  0.62871490  0.00275551  1
  Zn  Zn107  1  0.19476077  0.18169327  0.19328018  1
  Zn  Zn108  1  0.18887873  0.18824481  0.68905016  1
  Zn  Zn109  1  0.19011185  0.68832719  0.18419448  1
  Zn  Zn110  1  0.18732965  0.68886741  0.68960621  1
  Zn  Zn111  1  0.69545252  0.18379811  0.18797735  1
  Zn  Zn112  1  0.68495861  0.18929663  0.68691744  1
  Zn  Zn113  1  0.69408382  0.68683112  0.18771050  1
  Zn  Zn114  1  0.68731956  0.68545581  0.68879797  1
  Zn  Zn115  1  0.31263633  0.30539378  0.32097432  1
  Zn  Zn116  1  0.30907677  0.31683938  0.81201076  1
  Zn  Zn117  1  0.31414368  0.81051199  0.30823647  1
  Zn  Zn118  1  0.31517718  0.81331877  0.80810169  1
  Zn  Zn119  1  0.82019780  0.30252733  0.30829774  1
  Zn  Zn120  1  0.81389322  0.31269875  0.81099450  1
  Zn  Zn121  1  0.81537990  0.81556693  0.31397148  1
  Zn  Zn122  1  0.81214567  0.81284669  0.81085118  1
  Zn  Zn123  1  0.18749231  0.43656149  0.43684525  1
  Zn  Zn124  1  0.18632976  0.43743146  0.93904942  1
  Zn  Zn125  1  0.18125277  0.93473137  0.44229441  1
  Zn  Zn126  1  0.18711080  0.94223225  0.94493445  1
  Zn  Zn127  1  0.68923207  0.43322496  0.43854099  1
  Zn  Zn128  1  0.68773380  0.43632162  0.93899991  1
  Zn  Zn129  1  0.68501226  0.93334234  0.44945667  1
  Zn  Zn130  1  0.68329561  0.93620085  0.94122150  1
  Zn  Zn131  1  0.30894282  0.06347857  0.06253924  1
  Zn  Zn132  1  0.31280184  0.05933654  0.56694039  1
  Zn  Zn133  1  0.31530575  0.57457645  0.05476736  1
  Zn  Zn134  1  0.31408361  0.56321395  0.55514157  1
  Zn  Zn135  1  0.81104005  0.07099026  0.08014759  1
  Zn  Zn136  1  0.81113419  0.05842921  0.56039849  1
  Zn  Zn137  1  0.81390995  0.56333999  0.06645661  1
  Zn  Zn138  1  0.81460558  0.56094699  0.56313386  1
  Zn  Zn139  1  0.31619424  0.43616244  0.18989632  1
  Zn  Zn140  1  0.43540603  0.43693425  0.68954501  1
  Zn  Zn141  1  0.44129886  0.93578227  0.19114376  1
  Zn  Zn142  1  0.43081101  0.93713098  0.68763313  1
  Zn  Zn143  1  0.93730523  0.43779358  0.19271148  1
  Zn  Zn144  1  0.93480615  0.43617344  0.68769915  1
  Zn  Zn145  1  0.93766401  0.93818331  0.18289298  1
  Zn  Zn146  1  0.93632991  0.93767275  0.68666401  1
  Zn  Zn147  1  0.06314427  0.05775848  0.31220672  1
  Zn  Zn148  1  0.06273565  0.06726740  0.81610753  1
  Zn  Zn149  1  0.06346542  0.56234288  0.31662936  1
  Zn  Zn150  1  0.05839516  0.56719552  0.81410178  1
  Zn  Zn151  1  0.56411917  0.06658301  0.30837031  1
  Zn  Zn152  1  0.56174345  0.06195958  0.80942581  1
  Zn  Zn153  1  0.56210024  0.55796873  0.31206599  1
  Zn  Zn154  1  0.55951427  0.55897470  0.81176978  1
  Zn  Zn155  1  0.43923092  0.18690169  0.44131993  1
  Zn  Zn156  1  0.43395234  0.18655218  0.94389958  1
  Zn  Zn157  1  0.43669083  0.68879933  0.43792253  1
  Zn  Zn158  1  0.43937666  0.68568189  0.93584063  1
  Zn  Zn159  1  0.93159114  0.18000548  0.42302591  1
  Zn  Zn160  1  0.92750003  0.19462433  0.92719233  1
  Zn  Zn161  1  0.93995720  0.69035360  0.43783030  1
  Zn  Zn162  1  0.93846953  0.68912595  0.93527393  1
  Zn  Zn163  1  0.06980078  0.34352686  0.06270627  1
  Zn  Zn164  1  0.06468352  0.31678198  0.55757799  1
  Zn  Zn165  1  0.06342663  0.81417528  0.05528669  1
  Zn  Zn166  1  0.06541166  0.80944561  0.55859039  1
  Zn  Zn167  1  0.55914767  0.31395430  0.18188878  1
  Zn  Zn168  1  0.56684467  0.30744667  0.56379308  1
  Zn  Zn169  1  0.56316229  0.81296250  0.05844209  1
  Zn  Zn170  1  0.56061048  0.81020552  0.55843202  1
  O  O171  1  0.12344745  0.12629407  0.11839894  1
  O  O172  1  0.12693904  0.12573122  0.61276466  1
  O  O173  1  0.12963997  0.61355028  0.11974560  1
  O  O174  1  0.10928730  0.62916158  0.62829191  1
  O  O175  1  0.61589312  0.11715621  0.11866780  1
  O  O176  1  0.61939018  0.11339957  0.62402793  1
  O  O177  1  0.62678992  0.61560391  0.11896648  1
  O  O178  1  0.61899734  0.61821191  0.62070149  1
  O  O179  1  0.38683101  0.37901505  0.38203952  1
  O  O180  1  0.37714820  0.38302130  0.88084703  1
  O  O181  1  0.39185147  0.86398969  0.37705090  1
  O  O182  1  0.38782595  0.88096216  0.87069494  1
  O  O183  1  0.88339436  0.38271992  0.37140056  1
  O  O184  1  0.87950627  0.38319300  0.88272043  1
  O  O185  1  0.89061963  0.85983220  0.38715076  1
  O  O186  1  0.88122400  0.88273573  0.87684914  1
  O  O187  1  0.24273105  0.00873568  0.37759846  1
  O  O188  1  0.25536766  0.00750782  0.87416843  1
  O  O189  1  0.26601453  0.50817267  0.37937424  1
  O  O190  1  0.26060007  0.50815844  0.88166341  1
  O  O191  1  0.74168300  -0.03055023  0.36219726  1
  O  O192  1  0.75635072  0.00272234  0.87096123  1
  O  O193  1  0.75595257  0.50438245  0.36855599  1
  O  O194  1  0.75584265  0.49458169  0.86361279  1
  O  O195  1  0.24973461  0.50899339  0.12462492  1
  O  O196  1  0.25626898  0.48886639  0.61997896  1
  O  O197  1  0.23852749  0.99705274  0.12146422  1
  O  O198  1  0.24577842  0.99349293  0.63813298  1
  O  O199  1  0.74700768  0.49290073  0.13255197  1
  O  O200  1  0.74748957  0.49359890  0.63350616  1
  O  O201  1  0.73842877  0.98648248  0.10744318  1
  O  O202  1  0.74132051  0.99137591  0.63066426  1
  O  O203  1  0.01003961  0.38162724  0.26253213  1
  O  O204  1  0.00485316  0.36914371  0.75333016  1
  O  O205  1  -0.00686179  0.87568707  0.26640242  1
  O  O206  1  -0.00684046  0.86347215  0.75702882  1
  O  O207  1  0.49666330  0.37438337  0.26147897  1
  O  O208  1  0.49741751  0.37839697  0.76795768  1
  O  O209  1  0.49968793  0.86317977  0.26144665  1
  O  O210  1  0.50533116  0.87235579  0.75608817  1
  O  O211  1  0.49218650  0.12244309  0.23765060  1
  O  O212  1  0.50135306  0.12439840  0.73559306  1
  O  O213  1  0.49649655  0.62846251  0.24413551  1
  O  O214  1  0.49284925  0.62388529  0.74024524  1
  O  O215  1  0.99197980  0.12808184  0.26089971  1
  O  O216  1  0.99106809  0.13652535  0.75739540  1
  O  O217  1  0.98462417  0.62255408  0.25554961  1
  O  O218  1  0.99286551  0.63470630  0.74075873  1
  O  O219  1  0.36748084  0.25771474  0.00975489  1
  O  O220  1  0.36725918  0.25523922  0.50794339  1
  O  O221  1  0.36959215  0.74204722  0.00778676  1
  O  O222  1  0.36137225  0.75037618  0.50074491  1
  O  O223  1  0.87348774  0.26570620  0.00235422  1
  O  O224  1  0.86434549  0.24782463  0.49850172  1
  O  O225  1  0.86866190  0.75189062  0.00329890  1
  O  O226  1  0.87935866  0.75745450  0.51321176  1
  O  O227  1  0.13216146  0.24255702  0.49598579  1
  O  O228  1  0.12751831  0.25084671  0.99787452  1
  O  O229  1  0.13695295  0.74210825  0.49285622  1
  O  O230  1  0.13219741  0.74838302  0.98662179  1
  O  O231  1  0.63968755  0.24618330  0.49831262  1
  O  O232  1  0.63908545  0.25001533  0.99670742  1
  O  O233  1  0.62140023  0.73793426  0.48988313  1
  O  O234  1  0.63293861  0.74273669  0.99231064  1
  O  O235  1  0.48793077  0.24217893  0.12259654  1
  O  O236  1  0.49050245  0.24380724  0.62571061  1
  O  O237  1  0.50018941  0.74330620  0.12979191  1
  O  O238  1  0.49865290  0.73557333  0.62415383  1
  O  O239  1  1.01437145  0.25100149  0.10886630  1
  O  O240  1  0.99819102  0.25552528  0.63500481  1
  O  O241  1  0.98682992  0.75282354  0.11591694  1
  O  O242  1  0.99385484  0.74468911  0.63203801  1
  O  O243  1  0.01185588  0.25649967  0.38191748  1
  O  O244  1  0.00629504  0.25966043  0.86698380  1
  O  O245  1  0.01570064  0.75597308  0.37984832  1
  O  O246  1  0.00699407  0.75741755  0.86770068  1
  O  O247  1  0.50658521  0.26200652  0.37961677  1
  O  O248  1  0.49038289  0.26371548  0.87701287  1
  O  O249  1  0.50961923  0.75028109  0.36784449  1
  O  O250  1  0.50720991  0.75740344  0.87458993  1
  O  O251  1  0.24281364  0.13036470  0.49847786  1
  O  O252  1  0.25536384  0.13965305  0.98760593  1
  O  O253  1  0.25400182  0.63236193  0.48548326  1
  O  O254  1  0.24897417  0.63723498  0.98410534  1
  O  O255  1  0.74930233  0.13697222  0.50333208  1
  O  O256  1  0.75223759  0.13625090  0.99347189  1
  O  O257  1  0.74752577  0.61993496  0.48673506  1
  O  O258  1  0.74810431  0.63392597  1.00032100  1
  O  O259  1  0.25830009  0.36168474  -0.00767838  1
  O  O260  1  0.25693067  0.36538894  0.50554554  1
  O  O261  1  0.25175514  0.86201255  -0.00057950  1
  O  O262  1  0.24936924  0.86692116  0.50666675  1
  O  O263  1  0.75776346  0.37245164  0.00661613  1
  O  O264  1  0.75383159  0.36620781  0.50768004  1
  O  O265  1  0.75539648  0.86277514  0.00262352  1
  O  O266  1  0.75888386  0.87248790  0.51543311  1
  O  O267  1  0.13053109  0.50888747  0.23917573  1
  O  O268  1  0.11839046  0.48743452  0.75716985  1
  O  O269  1  0.12727944  1.00742950  0.22934204  1
  O  O270  1  0.13581539  1.00524029  0.75302028  1
  O  O271  1  0.63960559  0.50628069  0.24280689  1
  O  O272  1  0.63327823  0.49657940  0.74563009  1
  O  O273  1  0.61460657  0.99676963  0.22854939  1
  O  O274  1  0.62913292  0.99173057  0.74109058  1
  O  O275  1  0.37415518  0.01173499  0.24607517  1
  O  O276  1  0.36233973  -0.00254320  0.76384270  1
  O  O277  1  0.37920225  0.51256893  0.25551303  1
  O  O278  1  0.37702969  0.51143131  0.75848718  1
  O  O279  1  0.88396986  0.01417059  0.24430119  1
  O  O280  1  0.87168598  0.00499697  0.75998715  1
  O  O281  1  0.86796320  0.51080559  0.25866895  1
  O  O282  1  0.86877561  0.50772901  0.75477317  1
  O  O283  1  0.12089359  0.36305749  0.37465261  1
  O  O284  1  0.12237427  0.36608372  0.86877659  1
  O  O285  1  0.11511124  0.86141401  0.37867294  1
  O  O286  1  0.11480749  0.87121753  0.87868565  1
  O  O287  1  0.60928939  0.38072665  0.37542828  1
  O  O288  1  0.60622202  0.38184353  0.87807195  1
  O  O289  1  0.61391235  0.86202854  0.37631636  1
  O  O290  1  0.61602969  0.86633744  0.87028175  1
  O  O291  1  0.38014893  0.13206979  0.13195768  1
  O  O292  1  0.38204295  0.13629897  0.62250752  1
  O  O293  1  0.38416587  0.63172729  0.13118420  1
  O  O294  1  0.38158968  0.62290854  0.63065791  1
  O  O295  1  0.89157682  0.12819550  0.13011698  1
  O  O296  1  0.87028081  0.12139573  0.63966440  1
  O  O297  1  0.87020802  0.63201570  0.14028744  1
  O  O298  1  0.88092551  0.63142220  0.63303581  1
  O  O299  1  0.25771160  0.24358724  0.11667379  1
  O  O300  1  0.25660951  0.25295686  0.61736341  1
  O  O301  1  0.26224071  0.74717363  0.11384367  1
  O  O302  1  0.24934296  0.75463046  0.61817107  1
  O  O303  1  0.75296474  0.26231999  0.11329968  1
  O  O304  1  0.75384656  0.25674955  0.61642620  1
  O  O305  1  0.75637998  0.75339256  0.11264471  1
  O  O306  1  0.75969933  0.75671499  0.63318711  1
  O  O307  1  0.24478876  0.23979290  0.39092036  1
  O  O308  1  0.24337947  0.24578423  0.87908832  1
  O  O309  1  0.24229602  0.74524888  0.37957396  1
  O  O310  1  0.24466731  0.74688803  0.87617267  1
  O  O311  1  0.74578669  0.26152550  0.38797050  1
  O  O312  1  0.75975080  0.24112132  0.88351376  1
  O  O313  1  0.73727175  0.74274025  0.36832993  1
  O  O314  1  0.74029929  0.75474450  0.88186955  1
  O  O315  1  0.00249079  0.13059983  -0.00774003  1
  O  O316  1  0.00497562  0.11314881  0.49056642  1
  O  O317  1  0.00062027  0.61214508  -0.00584517  1
  O  O318  1  -0.00206889  0.62644505  0.51696377  1
  O  O319  1  0.49904051  0.11818654  0.01056737  1
  O  O320  1  0.50746452  0.12490019  0.51112233  1
  O  O321  1  0.50802799  0.61850951  0.00483123  1
  O  O322  1  0.50419914  0.61622300  0.50596823  1
  O  O323  1  0.49614910  0.38063871  0.50094837  1
  O  O324  1  0.48485597  0.38317579  0.98686965  1
  O  O325  1  0.49731047  0.87303388  0.48591162  1
  O  O326  1  0.50310485  0.88360766  0.98916309  1
  O  O327  1  0.99661712  0.37684626  0.48790804  1
  O  O328  1  0.99271792  0.38973372  0.99235301  1
  O  O329  1  0.99296372  0.87819153  0.49642444  1
  O  O330  1  0.99089336  0.87510949  0.98598831  1
  O  O331  1  0.49099919  0.49187724  0.37799818  1
  O  O332  1  0.48716658  0.49633361  0.88121862  1
  O  O333  1  0.50697388  0.98422192  0.37228474  1
  O  O334  1  0.49331272  0.99513449  0.87844513  1
  O  O335  1  0.99304123  0.49408557  0.37708696  1
  O  O336  1  0.99266131  0.49700362  0.88173037  1
  O  O337  1  1.01011083  0.98111285  0.38642342  1
  O  O338  1  0.99363440  0.99380129  0.87576561  1
  O  O339  1  0.01486740  -0.00858884  0.11750871  1
  O  O340  1  0.00099981  -0.00576901  0.61193457  1
  O  O341  1  0.00270911  0.49813004  0.11529793  1
  O  O342  1  -0.00747749  0.51481670  0.62505100  1
  O  O343  1  0.50164076  0.00439625  0.11631480  1
  O  O344  1  0.50450230  0.00548958  0.62692075  1
  O  O345  1  0.51323099  0.50625332  0.11737956  1
  O  O346  1  0.50526979  0.50708626  0.62102847  1
  O  O347  1  0.25456773  0.37836503  0.26124497  1
  O  O348  1  0.24011326  0.37270672  0.73892536  1
  O  O349  1  0.25917480  0.87776366  0.24230415  1
  O  O350  1  0.24993757  0.88385037  0.74507928  1
  O  O351  1  0.76018887  0.38502898  0.24094057  1
  O  O352  1  0.75116954  0.38253093  0.74287307  1
  O  O353  1  0.75125798  0.85941163  0.22864355  1
  O  O354  1  0.74484687  0.88070648  0.74168344  1
  O  O355  1  0.25900006  0.11810938  0.26380658  1
  O  O356  1  0.24687718  0.11977788  0.76377231  1
  O  O357  1  0.26240863  0.63382678  0.26193311  1
  O  O358  1  0.25610540  0.62795954  0.76113032  1
  O  O359  1  0.76755453  0.11131461  0.22801160  1
  O  O360  1  0.75613297  0.11895819  0.75679354  1
  O  O361  1  0.75770597  0.61822288  0.26172495  1
  O  O362  1  0.75914132  0.61410778  0.74489821  1
  O  O363  1  0.36750923  0.13241732  0.36743775  1
  O  O364  1  0.36810655  0.11735003  0.87654099  1
  O  O365  1  0.37304249  0.61742492  0.36707939  1
  O  O366  1  0.36945319  0.61787180  0.86785103  1
  O  O367  1  0.85973257  0.12763356  0.35414865  1
  O  O368  1  0.86503307  0.11719843  0.86623634  1
  O  O369  1  0.87010398  0.62308902  0.36897064  1
  O  O370  1  0.87956365  0.62190434  0.86057437  1
  O  O371  1  0.13329667  0.40084493  0.13149859  1
  O  O372  1  0.13482134  0.37142933  0.63311487  1
  O  O373  1  0.12933911  0.87930628  0.12265893  1
  O  O374  1  0.13708910  0.87539227  0.62214981  1
  O  O375  1  0.63470718  0.38829804  0.12499027  1
  O  O376  1  0.63733823  0.38208345  0.62534609  1
  O  O377  1  0.63437356  0.88114041  0.11608413  1
  O  O378  1  0.63016354  0.87626100  0.62850313  1
  O  O379  1  0.13444923  0.24875590  0.26493809  1
  O  O380  1  0.11793412  0.25596401  0.75609460  1
  O  O381  1  0.12827800  0.74770434  0.26209333  1
  O  O382  1  0.11631256  0.74816125  0.76186205  1
  O  O383  1  0.63074569  0.25417382  0.24313196  1
  O  O384  1  0.61961835  0.25441744  0.74859880  1
  O  O385  1  0.61480672  0.74017386  0.25581016  1
  O  O386  1  0.62303322  0.75400732  0.75734246  1
  O  O387  1  0.36863838  0.24032544  0.24026906  1
  O  O388  1  0.37730391  0.25573318  0.73937878  1
  O  O389  1  0.38988213  0.73764809  0.24384397  1
  O  O390  1  0.37791431  0.73491965  0.74805244  1
  O  O391  1  0.87565088  0.23713368  0.23938450  1
  O  O392  1  0.88383822  0.24190612  0.74851793  1
  O  O393  1  0.87177324  0.73786466  0.24268978  1
  O  O394  1  0.88091300  0.74386259  0.74293406  1
  O  O395  1  0.38328185  0.49310586  0.49047288  1
  O  O396  1  0.37735190  0.49443980  0.99469954  1
  O  O397  1  0.37627954  0.99850451  0.49955857  1
  O  O398  1  0.38452373  1.00359639  0.98958571  1
  O  O399  1  0.87546056  0.49945988  0.48572602  1
  O  O400  1  0.88192150  0.49492737  0.99923285  1
  O  O401  1  0.88016037  0.98513845  0.50346554  1
  O  O402  1  0.87668454  0.99831604  0.98811526  1
  O  O403  1  0.12185303  0.00229439  0.01495071  1
  O  O404  1  0.11603865  0.00767659  0.50578985  1
  O  O405  1  0.11611109  0.50200608  0.00802203  1
  O  O406  1  0.12527386  0.50778080  0.49531306  1
  O  O407  1  0.61040044  0.00257915  0.00479944  1
  O  O408  1  0.61784197  -0.00110077  0.51422196  1
  O  O409  1  0.62389723  0.50561272  0.00641066  1
  O  O410  1  0.62161172  0.50560683  0.50605770  1
  O  O411  1  0.37461526  0.36821010  0.11501679  1
  O  O412  1  0.36888929  0.36891932  0.62079908  1
  O  O413  1  0.38347230  0.85900326  0.12518800  1
  O  O414  1  0.36071660  0.87064202  0.62431894  1
  O  O415  1  0.87003692  0.37538308  0.11862101  1
  O  O416  1  0.86399732  0.37330154  0.62204848  1
  O  O417  1  0.86912141  0.86747287  0.11589521  1
  O  O418  1  0.86769515  0.86676577  0.62156197  1
  O  O419  1  0.13377849  0.12910965  0.38553529  1
  O  O420  1  0.13194975  0.14104413  0.87477183  1
  O  O421  1  0.13427638  0.63489678  0.37348905  1
  O  O422  1  0.13224521  0.63351640  0.87498762  1
  O  O423  1  0.64000564  0.12133265  0.37075230  1
  O  O424  1  0.63944844  0.11663117  0.87635212  1
  O  O425  1  0.63233128  0.62731946  0.37951100  1
  O  O426  1  0.61843593  0.63671610  0.87765558  1
