# generated using pymatgen
data_V85Zn86O256
_symmetry_space_group_name_H-M   'P 1'
_cell_length_a   16.91300581
_cell_length_b   16.92786434
_cell_length_c   16.92774462
_cell_angle_alpha   90.03374881
_cell_angle_beta   89.93705542
_cell_angle_gamma   90.02424877
_symmetry_Int_Tables_number   1
_chemical_formula_structural   V85Zn86O256
_chemical_formula_sum   'V85 Zn86 O256'
_cell_volume   4846.42716401
_cell_formula_units_Z   1
loop_
 _symmetry_equiv_pos_site_id
 _symmetry_equiv_pos_as_xyz
  1  'x, y, z'
loop_
 _atom_site_type_symbol
 _atom_site_label
 _atom_site_symmetry_multiplicity
 _atom_site_fract_x
 _atom_site_fract_y
 _atom_site_fract_z
 _atom_site_occupancy
  V  V0  1  0.75382150  0.37346751  0.12834025  1
  V  V1  1  0.75214730  0.24702199  0.00115187  1
  V  V2  1  0.12662673  0.00672892  0.11705061  1
  V  V3  1  0.36707167  0.62726937  0.75632170  1
  V  V4  1  0.12800916  0.74823793  0.37701743  1
  V  V5  1  0.25104497  0.74449484  -0.00330379  1
  V  V6  1  0.87820264  0.12678933  0.24949707  1
  V  V7  1  0.12551477  0.24135564  0.87769919  1
  V  V8  1  0.86856370  0.87227959  0.00801922  1
  V  V9  1  0.51093322  0.01134338  0.50283609  1
  V  V10  1  0.00129670  0.37339053  0.38163272  1
  V  V11  1  0.00255009  0.12847735  0.12637115  1
  V  V12  1  0.37063153  0.12723512  0.25260948  1
  V  V13  1  0.62168084  -0.01915015  0.13000509  1
  V  V14  1  0.87597902  0.38137781  -0.00130846  1
  V  V15  1  0.75170189  0.74283076  0.00893090  1
  V  V16  1  0.49931692  0.49874787  0.50181104  1
  V  V17  1  0.38536856  0.87841684  0.49875584  1
  V  V18  1  0.37892907  0.00398373  0.37768319  1
  V  V19  1  0.00088239  0.62792793  0.12292999  1
  V  V20  1  0.38312485  0.37224048  -0.00402698  1
  V  V21  1  0.87923253  0.00415624  0.38519508  1
  V  V22  1  0.37856008  0.24604454  0.12370840  1
  V  V23  1  -0.00325558  0.38150686  0.87408300  1
  V  V24  1  0.49613834  0.25516524  0.75816552  1
  V  V25  1  0.12194730  0.23925852  0.37009820  1
  V  V26  1  0.49833788  0.62765783  0.62922307  1
  V  V27  1  0.86453698  0.00452750  0.87545985  1
  V  V28  1  -0.00022323  0.75120093  0.24725484  1
  V  V29  1  0.62910351  0.75362145  0.86848963  1
  V  V30  1  0.86701695  0.75015289  0.62531133  1
  V  V31  1  0.81980280  0.06889041  0.69419284  1
  V  V32  1  0.12816282  0.74042917  0.87305502  1
  V  V33  1  0.11898285  0.37066609  0.24884615  1
  V  V34  1  0.12526285  0.37537889  0.74998657  1
  V  V35  1  0.24879114  0.24334365  0.00031223  1
  V  V36  1  0.75363389  0.50433118  0.76470168  1
  V  V37  1  0.37408747  0.50036583  0.37390308  1
  V  V38  1  -0.00124809  0.74650375  0.74892042  1
  V  V39  1  0.87444476  0.62162737  0.76254650  1
  V  V40  1  0.87044525  0.87899811  0.50458777  1
  V  V41  1  0.61862497  0.38054000  0.76413933  1
  V  V42  1  0.87479681  0.25371238  0.63157846  1
  V  V43  1  0.25426063  0.87745757  0.12167176  1
  V  V44  1  -0.00296506  0.87553940  0.87476902  1
  V  V45  1  0.24976428  0.00394514  0.25654185  1
  V  V46  1  0.74497347  0.12298233  0.37392741  1
  V  V47  1  0.00131344  0.62143007  0.61128020  1
  V  V48  1  0.37410126  0.49818006  0.87510148  1
  V  V49  1  0.49731087  0.00391122  -0.01090488  1
  V  V50  1  0.62362783  0.12292294  0.00980794  1
  V  V51  1  0.37545873  0.62619743  0.24658171  1
  V  V52  1  0.00234692  0.00771826  -0.00215705  1
  V  V53  1  0.75230698  0.50069804  0.25418359  1
  V  V54  1  0.24908066  0.37427439  0.62402275  1
  V  V55  1  0.24978663  0.74790351  0.49708952  1
  V  V56  1  -0.00254053  0.24395228  0.75154312  1
  V  V57  1  0.50221550  0.24340015  0.24781043  1
  V  V58  1  0.61940739  0.76561072  0.37113996  1
  V  V59  1  0.87632757  0.62822760  0.25011777  1
  V  V60  1  0.38007419  0.87739156  -0.01644367  1
  V  V61  1  0.37375123  0.37297329  0.50007482  1
  V  V62  1  0.49974420  0.37392133  0.37631434  1
  V  V63  1  0.74805728  0.37954751  0.62618073  1
  V  V64  1  0.25495209  0.00058092  0.75468422  1
  V  V65  1  0.63343308  0.89432159  0.73204293  1
  V  V66  1  0.12378021  -0.00100551  0.61786827  1
  V  V67  1  0.37938029  0.12079826  0.75468462  1
  V  V68  1  0.12118002  0.50074345  0.61044287  1
  V  V69  1  0.12521622  0.49836603  0.12206020  1
  V  V70  1  0.12514469  0.87582410  0.24833537  1
  V  V71  1  0.74590447  0.24092000  0.50573121  1
  V  V72  1  0.00209244  0.87939055  0.38346000  1
  V  V73  1  0.24476795  0.62491332  0.37534094  1
  V  V74  1  0.62480543  0.50206573  0.12543256  1
  V  V75  1  0.24814949  0.23923655  0.49532363  1
  V  V76  1  0.50274939  0.62584223  0.12217705  1
  V  V77  1  0.62503494  0.24750979  0.38078915  1
  V  V78  1  0.62490116  0.62748839  0.49641831  1
  V  V79  1  0.62459782  0.50168596  0.62851323  1
  V  V80  1  0.88112270  0.50157726  0.38470745  1
  V  V81  1  0.37707939  0.75256470  0.62451591  1
  V  V82  1  0.00112373  0.12178240  0.61737889  1
  V  V83  1  0.62593553  0.37417071  0.25240205  1
  V  V84  1  0.12663335  0.87551608  0.74878948  1
  Zn  Zn85  1  0.50967896  0.12705269  0.62806633  1
  Zn  Zn86  1  0.87852200  0.37903190  0.50408541  1
  Zn  Zn87  1  0.88236675  0.25231818  0.13098724  1
  Zn  Zn88  1  0.25194310  0.87645863  0.62335193  1
  Zn  Zn89  1  0.12520441  0.11542749  0.49199092  1
  Zn  Zn90  1  -0.00176796  0.50501791  -0.00601959  1
  Zn  Zn91  1  0.75068626  0.62662215  0.37862441  1
  Zn  Zn92  1  0.25090965  0.11817196  0.87965978  1
  Zn  Zn93  1  0.74488393  0.75477118  0.50368096  1
  Zn  Zn94  1  0.37652814  0.24835624  0.62602005  1
  Zn  Zn95  1  0.63313235  0.62106657  -0.01138798  1
  Zn  Zn96  1  0.50633113  0.49548278  -0.00952517  1
  Zn  Zn97  1  0.12888495  0.61942677  -0.00589680  1
  Zn  Zn98  1  0.61994701  0.24995203  0.88192567  1
  Zn  Zn99  1  0.25032030  0.37394699  0.12531695  1
  Zn  Zn100  1  0.24487316  0.50486716  0.75507781  1
  Zn  Zn101  1  0.37947956  0.75237101  0.12175773  1
  Zn  Zn102  1  0.74097078  -0.01069788  0.24804639  1
  Zn  Zn103  1  0.49600258  0.76697205  0.76639364  1
  Zn  Zn104  1  0.74984590  0.12521216  0.87266096  1
  Zn  Zn105  1  0.24865097  0.49749903  0.24838224  1
  Zn  Zn106  1  0.51487595  0.76916607  0.24173796  1
  Zn  Zn107  1  0.18805129  0.18846628  0.18655300  1
  Zn  Zn108  1  0.18845143  0.18563949  0.68696900  1
  Zn  Zn109  1  0.18969254  0.68748540  0.18666999  1
  Zn  Zn110  1  0.18632545  0.68670829  0.68189783  1
  Zn  Zn111  1  0.69017572  0.18282442  0.18757358  1
  Zn  Zn112  1  0.67937539  0.19628943  0.69259778  1
  Zn  Zn113  1  0.69039744  0.69026964  0.18777855  1
  Zn  Zn114  1  0.68802043  0.68756673  0.69321857  1
  Zn  Zn115  1  0.30669220  0.31269336  0.31237749  1
  Zn  Zn116  1  0.31239776  0.31271070  0.81463331  1
  Zn  Zn117  1  0.34760033  0.83189618  0.29368370  1
  Zn  Zn118  1  0.30940366  0.81140561  0.81048290  1
  Zn  Zn119  1  0.81644422  0.31052699  0.31504035  1
  Zn  Zn120  1  0.81006352  0.31519104  0.81506139  1
  Zn  Zn121  1  0.80524913  0.80973766  0.31864289  1
  Zn  Zn122  1  0.80604452  0.81274846  0.81466450  1
  Zn  Zn123  1  0.18820869  0.43276430  0.43451634  1
  Zn  Zn124  1  0.19289511  0.43307041  0.93792531  1
  Zn  Zn125  1  0.19435877  0.93203742  0.43701475  1
  Zn  Zn126  1  0.18687129  0.93299893  0.93544279  1
  Zn  Zn127  1  0.68991411  0.43768385  0.44025072  1
  Zn  Zn128  1  0.69164854  0.43784944  0.94180303  1
  Zn  Zn129  1  0.69188183  0.93506415  0.43423613  1
  Zn  Zn130  1  0.68380856  0.93208322  0.93712794  1
  Zn  Zn131  1  0.31863309  0.06369697  0.06340546  1
  Zn  Zn132  1  0.31611029  0.06284994  0.57136926  1
  Zn  Zn133  1  0.31274175  0.56022327  0.06009541  1
  Zn  Zn134  1  0.31028488  0.56218074  0.56331806  1
  Zn  Zn135  1  0.80981994  0.05772939  0.06618448  1
  Zn  Zn136  1  0.68289194  0.06007935  0.56634842  1
  Zn  Zn137  1  0.81544934  0.56350738  0.06585261  1
  Zn  Zn138  1  0.81165917  0.56608401  0.56678995  1
  Zn  Zn139  1  0.43804531  0.43472834  0.18663474  1
  Zn  Zn140  1  0.43516324  0.43849372  0.69070230  1
  Zn  Zn141  1  0.44414185  0.94184952  0.17962152  1
  Zn  Zn142  1  0.44540935  0.93880274  0.68952169  1
  Zn  Zn143  1  0.94114080  0.44004793  0.19066965  1
  Zn  Zn144  1  0.93805495  0.44041610  0.68891122  1
  Zn  Zn145  1  0.89783374  0.91397690  0.21158505  1
  Zn  Zn146  1  0.94138982  0.93417817  0.68507436  1
  Zn  Zn147  1  0.05859306  0.05974771  0.30685097  1
  Zn  Zn148  1  0.06044982  0.06106556  0.80826520  1
  Zn  Zn149  1  0.06299048  0.55878655  0.31211977  1
  Zn  Zn150  1  0.06057911  0.56091556  0.80516440  1
  Zn  Zn151  1  0.56024514  0.05862399  0.31258162  1
  Zn  Zn152  1  0.56924494  0.06418820  0.81459492  1
  Zn  Zn153  1  0.55997269  0.56530262  0.31017970  1
  Zn  Zn154  1  0.55941782  0.57017215  0.81538945  1
  Zn  Zn155  1  0.43379256  0.18582078  0.43530345  1
  Zn  Zn156  1  0.43801138  0.18234777  0.93455534  1
  Zn  Zn157  1  0.43887848  0.68837654  0.43561582  1
  Zn  Zn158  1  0.44166723  0.68585234  0.93732914  1
  Zn  Zn159  1  0.93546147  0.19209567  0.44004147  1
  Zn  Zn160  1  0.93342324  0.18979336  0.93816147  1
  Zn  Zn161  1  0.93666308  0.69265297  0.43601212  1
  Zn  Zn162  1  0.93811209  0.69088584  0.94009413  1
  Zn  Zn163  1  0.06342959  0.31246911  0.05886503  1
  Zn  Zn164  1  0.06372280  0.30981017  0.55899994  1
  Zn  Zn165  1  0.06311491  0.81533646  0.06116421  1
  Zn  Zn166  1  0.06172395  0.80801159  0.56237499  1
  Zn  Zn167  1  0.56392189  0.31155141  0.06537355  1
  Zn  Zn168  1  0.56324270  0.30824773  0.56969206  1
  Zn  Zn169  1  0.56186793  0.80948270  0.05304979  1
  Zn  Zn170  1  0.56359112  0.81738581  0.56620762  1
  O  O171  1  0.12101813  0.11370691  0.12844775  1
  O  O172  1  0.11770041  0.11629101  0.62298294  1
  O  O173  1  0.11662609  0.61753831  0.12474364  1
  O  O174  1  0.11161232  0.61608288  0.62862211  1
  O  O175  1  0.62412193  0.12499885  0.11307507  1
  O  O176  1  0.62348984  0.13645415  0.61935585  1
  O  O177  1  0.62026676  0.61668105  0.12589499  1
  O  O178  1  0.61618381  0.62382895  0.61796987  1
  O  O179  1  0.37888798  0.38004183  0.37933618  1
  O  O180  1  0.37438392  0.38515418  0.88216607  1
  O  O181  1  0.36333094  0.89406667  0.38846118  1
  O  O182  1  0.37109171  0.87573990  0.88486919  1
  O  O183  1  0.88358459  0.38218051  0.37645525  1
  O  O184  1  0.88481729  0.36960155  0.88467015  1
  O  O185  1  0.88457570  0.88129878  0.38466654  1
  O  O186  1  0.88217503  0.88164176  0.87934531  1
  O  O187  1  0.25212462  -0.00015024  0.36102040  1
  O  O188  1  0.23983326  0.00049450  0.85959161  1
  O  O189  1  0.25725824  0.50702381  0.37637965  1
  O  O190  1  0.26438748  0.49815119  0.87290759  1
  O  O191  1  0.75819182  0.00916140  0.37448797  1
  O  O192  1  0.76172497  -0.00036519  0.88133964  1
  O  O193  1  0.75829002  0.50082942  0.36892616  1
  O  O194  1  0.75089718  0.49697861  0.86395191  1
  O  O195  1  0.23743481  0.49735625  0.12355806  1
  O  O196  1  0.24220960  0.48941013  0.62592207  1
  O  O197  1  0.24532435  0.99696623  0.12903148  1
  O  O198  1  0.24137497  0.99750080  0.63561245  1
  O  O199  1  0.74214175  0.49570563  0.13292072  1
  O  O200  1  0.74397888  0.49382104  0.63122796  1
  O  O201  1  0.72742698  1.00259351  0.12399075  1
  O  O202  1  0.76930936  1.01456913  0.62873748  1
  O  O203  1  0.01133136  0.37660824  0.25968914  1
  O  O204  1  0.00546261  0.36661464  0.75440914  1
  O  O205  1  -0.00022250  0.86631998  0.25894268  1
  O  O206  1  0.00580641  0.86906806  0.75886660  1
  O  O207  1  0.50497165  0.36581660  0.25779385  1
  O  O208  1  0.50889703  0.37103667  0.74696144  1
  O  O209  1  0.45380741  0.86180361  0.25388483  1
  O  O210  1  0.52052641  0.87571422  0.74323818  1
  O  O211  1  0.48819133  0.13620104  0.25831538  1
  O  O212  1  0.49519934  0.13214528  0.75171906  1
  O  O213  1  0.49217123  0.62574400  0.23854340  1
  O  O214  1  0.48897208  0.62730360  0.73770082  1
  O  O215  1  0.99352449  0.12372554  0.23765227  1
  O  O216  1  1.00493793  0.13973008  0.74126004  1
  O  O217  1  0.99739941  0.63174027  0.24543356  1
  O  O218  1  0.99221598  0.62898494  0.74116238  1
  O  O219  1  0.37434196  0.25305207  0.00642462  1
  O  O220  1  0.36670221  0.25598974  0.50019870  1
  O  O221  1  0.36952987  0.76133878  -0.00139614  1
  O  O222  1  0.37354012  0.75836611  0.50442578  1
  O  O223  1  0.86840126  0.26015631  0.00597707  1
  O  O224  1  0.86573769  0.25263159  0.51515375  1
  O  O225  1  0.86489684  0.76213959  -0.00737038  1
  O  O226  1  0.87310039  0.75776408  0.50759904  1
  O  O227  1  0.13215761  0.24596276  0.49034298  1
  O  O228  1  0.13553897  0.25472839  0.98935688  1
  O  O229  1  0.13822762  0.75562659  0.49268864  1
  O  O230  1  0.13238878  0.75183077  0.98935536  1
  O  O231  1  0.63431869  0.25920418  0.49218722  1
  O  O232  1  0.63213015  0.24425738  1.00182560  1
  O  O233  1  0.62235869  0.74460365  0.49197653  1
  O  O234  1  0.63860860  0.74813564  0.99392407  1
  O  O235  1  0.49364125  0.25466670  0.13886544  1
  O  O236  1  0.49633278  0.25014992  0.64049145  1
  O  O237  1  0.49973945  0.74080622  0.12515773  1
  O  O238  1  0.48871829  0.74356099  0.62227957  1
  O  O239  1  1.00181965  0.23278929  0.11425080  1
  O  O240  1  0.99278770  0.24690490  0.63087081  1
  O  O241  1  1.00936140  0.74435160  0.13831716  1
  O  O242  1  0.99599888  0.73831707  0.63051269  1
  O  O243  1  0.00891103  0.25861532  0.37842768  1
  O  O244  1  0.00534211  0.25643898  0.86862324  1
  O  O245  1  0.00914255  0.75424032  0.36639651  1
  O  O246  1  0.00674048  0.75836594  0.86953045  1
  O  O247  1  0.50498023  0.25462994  0.37026314  1
  O  O248  1  0.50030425  0.24963620  0.86397171  1
  O  O249  1  0.51647275  0.74328028  0.37192662  1
  O  O250  1  0.51731657  0.74825289  0.88005412  1
  O  O251  1  0.24897557  0.13653749  0.50755169  1
  O  O252  1  0.25815602  0.13732066  0.99781403  1
  O  O253  1  0.26008013  0.63794017  0.49080451  1
  O  O254  1  0.24901104  0.64062385  1.00508676  1
  O  O255  1  0.74832277  0.13647993  0.49339178  1
  O  O256  1  0.74545369  0.13323157  1.00270846  1
  O  O257  1  0.73801021  0.62752857  0.50151211  1
  O  O258  1  0.75529215  0.63763471  1.00296405  1
  O  O259  1  0.26328077  0.36172953  0.00155065  1
  O  O260  1  0.25416335  0.36669306  0.50639687  1
  O  O261  1  0.25847045  0.87030112  0.00291246  1
  O  O262  1  0.26119544  0.86381240  0.50370445  1
  O  O263  1  0.75714647  0.36911509  0.00839578  1
  O  O264  1  0.75089353  0.36891555  0.51413493  1
  O  O265  1  0.76382721  0.87000068  0.00077099  1
  O  O266  1  0.76562083  0.87415961  0.49852329  1
  O  O267  1  0.12539244  0.49087203  0.24061795  1
  O  O268  1  0.12551529  0.48765898  0.74152946  1
  O  O269  1  0.13286546  0.99457610  0.24138319  1
  O  O270  1  0.12894085  0.99187544  0.74118981  1
  O  O271  1  0.63160927  0.49517770  0.24620323  1
  O  O272  1  0.62977331  0.49817013  0.74662464  1
  O  O273  1  0.62084787  0.99956915  0.23595843  1
  O  O274  1  0.62859377  0.99493921  0.74630097  1
  O  O275  1  0.36991165  0.01031091  0.25513593  1
  O  O276  1  0.36684182  0.00605051  0.74389440  1
  O  O277  1  0.37364176  0.50726764  0.25483638  1
  O  O278  1  0.37093500  0.50740658  0.75867246  1
  O  O279  1  0.88095778  0.01612564  0.26708481  1
  O  O280  1  0.87518528  0.00294916  0.75444787  1
  O  O281  1  0.87264575  0.50943042  0.25919368  1
  O  O282  1  0.86695716  0.50974687  0.74643973  1
  O  O283  1  0.11808039  0.36814325  0.36814329  1
  O  O284  1  0.12011191  0.36635128  0.86620485  1
  O  O285  1  0.11996508  0.87194712  0.36757202  1
  O  O286  1  0.11734030  0.86879526  0.86353631  1
  O  O287  1  0.62108182  0.37002032  0.37011908  1
  O  O288  1  0.62656771  0.37749577  0.86691873  1
  O  O289  1  0.62396458  0.86481262  0.37438513  1
  O  O290  1  0.62628380  0.86024355  0.87068120  1
  O  O291  1  0.37554653  0.13838475  0.13375631  1
  O  O292  1  0.37909945  0.13007334  0.63963059  1
  O  O293  1  0.38363661  0.62145907  0.12966496  1
  O  O294  1  0.38086474  0.63141386  0.62926123  1
  O  O295  1  0.88333723  0.12156761  0.13316093  1
  O  O296  1  0.88220288  0.13323518  0.63634828  1
  O  O297  1  0.89158902  0.61936833  0.13525237  1
  O  O298  1  0.88640208  0.63097748  0.62959694  1
  O  O299  1  0.25802244  0.25142470  0.11753221  1
  O  O300  1  0.24718717  0.26144216  0.61735025  1
  O  O301  1  0.24830692  0.76119004  0.11542714  1
  O  O302  1  0.26131952  0.74922526  0.61655994  1
  O  O303  1  0.75213697  0.25645692  0.11736167  1
  O  O304  1  0.75576363  0.25920206  0.62328069  1
  O  O305  1  0.74819596  0.75049297  0.10883207  1
  O  O306  1  0.76398100  0.74343957  0.62408107  1
  O  O307  1  0.23758848  0.25411551  0.38480855  1
  O  O308  1  0.24140535  0.24842969  0.88135976  1
  O  O309  1  0.24724715  0.74227469  0.38032164  1
  O  O310  1  0.23913930  0.75564425  0.88240404  1
  O  O311  1  0.74688758  0.24441500  0.38523816  1
  O  O312  1  0.74931663  0.25090759  0.89026406  1
  O  O313  1  0.73536367  0.74544551  0.38158142  1
  O  O314  1  0.73952238  0.75188482  0.88697188  1
  O  O315  1  -0.00524722  0.11224617  0.00244124  1
  O  O316  1  0.00160160  0.13085348  0.51435160  1
  O  O317  1  0.00358216  0.62578132  0.00873607  1
  O  O318  1  -0.00175573  0.62980406  0.51260374  1
  O  O319  1  0.50461501  0.11185619  -0.00151805  1
  O  O320  1  0.49744098  0.11418893  0.49977831  1
  O  O321  1  0.50201937  0.61831080  0.01313066  1
  O  O322  1  0.50264404  0.61905598  0.51029953  1
  O  O323  1  0.49468035  0.37858040  0.49659975  1
  O  O324  1  0.48790899  0.37588316  1.00600732  1
  O  O325  1  0.48952676  0.88552610  0.50241707  1
  O  O326  1  0.48522220  0.88188683  1.00179068  1
  O  O327  1  0.99805156  0.37300470  0.48799656  1
  O  O328  1  0.99299857  0.37502740  0.99072496  1
  O  O329  1  0.99462420  0.86681795  0.48811090  1
  O  O330  1  0.99638286  0.88078897  0.98705371  1
  O  O331  1  0.49363526  0.49453889  0.38055369  1
  O  O332  1  0.48310002  0.50477227  0.87471688  1
  O  O333  1  0.49050408  1.00406536  0.38820493  1
  O  O334  1  0.50557912  0.99912071  0.89043508  1
  O  O335  1  0.99183805  0.49091971  0.37232299  1
  O  O336  1  1.00583969  0.48541343  0.87357127  1
  O  O337  1  0.99590557  0.98974224  0.37384169  1
  O  O338  1  0.99449243  0.99412158  0.87849510  1
  O  O339  1  0.01091055  0.00901804  0.11341459  1
  O  O340  1  0.00962335  0.01063353  0.63228945  1
  O  O341  1  0.01085027  0.50795391  0.12307374  1
  O  O342  1  0.00517567  0.51205029  0.62567932  1
  O  O343  1  0.51281846  0.00009012  0.11261993  1
  O  O344  1  0.49521591  0.00513616  0.60584473  1
  O  O345  1  0.51411362  0.50247717  0.12761890  1
  O  O346  1  0.50371115  0.50773422  0.62184233  1
  O  O347  1  0.23632072  0.37791096  0.24797726  1
  O  O348  1  0.24123016  0.37422661  0.74134085  1
  O  O349  1  0.24981753  0.88459749  0.23905232  1
  O  O350  1  0.24180311  0.87993175  0.74543114  1
  O  O351  1  0.74680860  0.37922454  0.24749242  1
  O  O352  1  0.74257940  0.38194949  0.74290427  1
  O  O353  1  0.79020496  0.88712236  0.24316572  1
  O  O354  1  0.73261347  0.87139761  0.75210103  1
  O  O355  1  0.26159487  0.11856026  0.24449981  1
  O  O356  1  0.25667361  0.11666179  0.75018403  1
  O  O357  1  0.25492591  0.61848843  0.25713281  1
  O  O358  1  0.26290674  0.62461388  0.74205850  1
  O  O359  1  0.75740814  0.11953145  0.25843670  1
  O  O360  1  0.75581985  0.12777143  0.75026469  1
  O  O361  1  0.76075800  0.61983751  0.25173443  1
  O  O362  1  0.76254806  0.61564952  0.74366131  1
  O  O363  1  0.37076522  0.11527615  0.36792400  1
  O  O364  1  0.36989400  0.12644599  0.86055632  1
  O  O365  1  0.36840239  0.62005772  0.36726908  1
  O  O366  1  0.37635353  0.61800096  0.86676608  1
  O  O367  1  0.86773107  0.12226375  0.37438805  1
  O  O368  1  0.87227257  0.11338701  0.87836915  1
  O  O369  1  0.87617772  0.61783399  0.36966261  1
  O  O370  1  0.88416134  0.62725681  0.86164893  1
  O  O371  1  0.12307309  0.38047921  0.13122300  1
  O  O372  1  0.12802211  0.37954731  0.63017465  1
  O  O373  1  0.13392593  0.88502395  0.12805240  1
  O  O374  1  0.12189313  0.87911642  0.63512812  1
  O  O375  1  0.63222504  0.38174908  0.13297681  1
  O  O376  1  0.63209025  0.38174042  0.63484951  1
  O  O377  1  0.61905126  0.88154309  0.12488879  1
  O  O378  1  0.63268519  0.87851390  0.63065668  1
  O  O379  1  0.12935421  0.25668045  0.25846999  1
  O  O380  1  0.11833594  0.25922980  0.75291658  1
  O  O381  1  0.12088310  0.75704447  0.25578689  1
  O  O382  1  0.12176098  0.75640803  0.75324913  1
  O  O383  1  0.61862808  0.25263733  0.25675690  1
  O  O384  1  0.61726248  0.26444154  0.75898829  1
  O  O385  1  0.62661549  0.74548571  0.26554445  1
  O  O386  1  0.62121869  0.75024609  0.75888527  1
  O  O387  1  0.37926144  0.24595414  0.24605833  1
  O  O388  1  0.38061786  0.24544505  0.74991236  1
  O  O389  1  0.36303493  0.73028283  0.24140425  1
  O  O390  1  0.37801783  0.74587500  0.74341272  1
  O  O391  1  0.87124070  0.23413271  0.24958720  1
  O  O392  1  0.88185786  0.25831586  0.74061009  1
  O  O393  1  0.88535859  0.73549254  0.25980755  1
  O  O394  1  0.87931605  0.74412577  0.74414742  1
  O  O395  1  0.38008552  0.49379172  0.49521435  1
  O  O396  1  0.37555789  0.49109811  0.99140066  1
  O  O397  1  0.37776899  0.99721686  0.49492990  1
  O  O398  1  0.38610859  0.99171038  1.00144055  1
  O  O399  1  0.86806796  0.49990422  0.48817777  1
  O  O400  1  0.87733615  0.48621356  1.00567687  1
  O  O401  1  0.87981257  0.99264010  0.48817068  1
  O  O402  1  0.88156726  0.99006343  0.99332925  1
  O  O403  1  0.11677621  -0.00603271  0.00566112  1
  O  O404  1  0.13342550  -0.00318520  0.51303302  1
  O  O405  1  0.12324066  0.49948266  0.00587707  1
  O  O406  1  0.12824449  0.49471737  0.51120627  1
  O  O407  1  0.61608255  0.00207393  0.00628259  1
  O  O408  1  0.61542147  -0.00156422  0.49428009  1
  O  O409  1  0.62544122  0.50207408  0.00980822  1
  O  O410  1  0.61898774  0.50586368  0.50816895  1
  O  O411  1  0.37300067  0.36354992  0.12046055  1
  O  O412  1  0.36466232  0.37490144  0.61980297  1
  O  O413  1  0.36203465  0.87689513  0.11189241  1
  O  O414  1  0.37527374  0.86715967  0.61914072  1
  O  O415  1  0.87171548  0.37354087  0.12288145  1
  O  O416  1  0.86763764  0.37105082  0.62548093  1
  O  O417  1  0.89375462  0.87482368  0.10316701  1
  O  O418  1  0.88730635  0.86292107  0.61590817  1
  O  O419  1  0.11777700  0.13434338  0.37401789  1
  O  O420  1  0.12495966  0.13826554  0.86750011  1
  O  O421  1  0.13845550  0.62664556  0.37059510  1
  O  O422  1  0.11895089  0.63641138  0.87237966  1
  O  O423  1  0.63723239  0.13036008  0.36896636  1
  O  O424  1  0.63140559  0.12753324  0.89039434  1
  O  O425  1  0.62378340  0.62061734  0.38954803  1
  O  O426  1  0.62639068  0.63887588  0.87475410  1
