# generated using pymatgen
data_V85Zn86O256
_symmetry_space_group_name_H-M   'P 1'
_cell_length_a   16.92580247
_cell_length_b   16.93653269
_cell_length_c   16.93681462
_cell_angle_alpha   89.97678601
_cell_angle_beta   90.08101845
_cell_angle_gamma   89.97435399
_symmetry_Int_Tables_number   1
_chemical_formula_structural   V85Zn86O256
_chemical_formula_sum   'V85 Zn86 O256'
_cell_volume   4855.17617476
_cell_formula_units_Z   1
loop_
 _symmetry_equiv_pos_site_id
 _symmetry_equiv_pos_as_xyz
  1  'x, y, z'
loop_
 _atom_site_type_symbol
 _atom_site_label
 _atom_site_symmetry_multiplicity
 _atom_site_fract_x
 _atom_site_fract_y
 _atom_site_fract_z
 _atom_site_occupancy
  V  V0  1  0.11265649  0.37256853  0.24722491  1
  V  V1  1  0.38486509  0.12868499  0.25083822  1
  V  V2  1  0.62447929  0.24408252  0.88089781  1
  V  V3  1  0.25667017  0.86814139  0.13080163  1
  V  V4  1  0.87966188  0.63169998  0.24942635  1
  V  V5  1  0.12389202  -0.00822062  0.63184068  1
  V  V6  1  0.74652673  0.24281825  0.50139877  1
  V  V7  1  0.88908818  0.75258426  0.12173588  1
  V  V8  1  0.37505789  0.87438008  0.50118319  1
  V  V9  1  0.62284196  0.87247397  0.25002406  1
  V  V10  1  0.13118152  0.12883801  0.50144059  1
  V  V11  1  0.51968305  0.00569509  0.00196829  1
  V  V12  1  0.00309265  0.12795973  0.63091074  1
  V  V13  1  0.12607307  0.12874823  0.00198538  1
  V  V14  1  0.37205078  0.24376736  0.61848158  1
  V  V15  1  0.12306004  0.50037387  0.62305028  1
  V  V16  1  -0.01749724  0.49961432  -0.00230073  1
  V  V17  1  0.87846150  0.12005566  0.75444446  1
  V  V18  1  -0.00117353  0.87193690  0.37000102  1
  V  V19  1  0.38103855  0.62332677  0.74714656  1
  V  V20  1  0.74948994  0.50184693  0.24853275  1
  V  V21  1  0.25531789  -0.00289667  0.75508070  1
  V  V22  1  0.37603457  0.88547387  0.00292316  1
  V  V23  1  0.75186655  0.24796657  -0.00086921  1
  V  V24  1  0.37581796  -0.00419374  0.37879122  1
  V  V25  1  0.74454850  -0.00024976  0.74464350  1
  V  V26  1  0.38224871  0.49999799  0.87860355  1
  V  V27  1  0.61236892  0.49999224  0.12062776  1
  V  V28  1  0.00170441  -0.00018257  0.49920005  1
  V  V29  1  0.49737624  0.50029892  0.50076704  1
  V  V30  1  0.87800090  0.62283540  0.75925678  1
  V  V31  1  0.87950401  0.25786854  0.12532313  1
  V  V32  1  0.62075312  0.37513366  0.25152071  1
  V  V33  1  0.00824694  0.62289550  0.12585031  1
  V  V34  1  0.37999289  0.74154616  0.62440049  1
  V  V35  1  0.00357135  0.13155598  0.12989667  1
  V  V36  1  0.38311526  0.37573274  0.00065387  1
  V  V37  1  0.74129854  0.87675766  0.62349313  1
  V  V38  1  0.24747792  0.49811876  0.24872792  1
  V  V39  1  0.12707248  0.61542216  -0.00323000  1
  V  V40  1  0.62997440  0.75281747  0.87437437  1
  V  V41  1  0.69428507  0.04066623  0.19582838  1
  V  V42  1  0.87995374  0.12842296  0.25081582  1
  V  V43  1  0.25145386  0.13659887  0.37707616  1
  V  V44  1  0.24759351  0.86840678  0.63819899  1
  V  V45  1  0.38628877  0.24861012  0.12845212  1
  V  V46  1  0.74770669  0.12343580  0.37625029  1
  V  V47  1  0.12065426  0.74993423  0.37252619  1
  V  V48  1  0.49701047  0.37249351  0.37299922  1
  V  V49  1  0.75196607  0.38004801  0.11840223  1
  V  V50  1  0.25039609  0.63365142  0.87240657  1
  V  V51  1  0.12099691  0.25127210  0.87236266  1
  V  V52  1  0.62152301  0.50257471  0.62738140  1
  V  V53  1  0.51303742  0.11867816  0.62330662  1
  V  V54  1  0.11958564  0.37184491  0.75076313  1
  V  V55  1  0.62099937  0.62541758  0.50414471  1
  V  V56  1  0.88028064  0.25124977  0.62979080  1
  V  V57  1  0.74916106  0.37354629  0.62389629  1
  V  V58  1  0.50284589  0.74373420  0.74719111  1
  V  V59  1  0.25938658  0.74453118  0.00629710  1
  V  V60  1  0.50975196  -0.00205411  0.50308780  1
  V  V61  1  0.10818248  0.25372367  0.37419339  1
  V  V62  1  -0.00595846  0.00110201  -0.00610987  1
  V  V63  1  0.61961660  0.24669481  0.37888423  1
  V  V64  1  0.87815316  0.37388137  0.49076777  1
  V  V65  1  0.24930769  0.00180665  0.25152468  1
  V  V66  1  0.62048203  0.62271461  -0.00235271  1
  V  V67  1  0.25806910  0.12471375  0.87555407  1
  V  V68  1  0.49318012  0.63605479  0.12535295  1
  V  V69  1  -0.00974384  0.37894223  0.87619560  1
  V  V70  1  0.87421035  0.87303927  0.50146279  1
  V  V71  1  0.62500935  0.37365380  0.75085206  1
  V  V72  1  0.49787747  0.24713324  0.75132387  1
  V  V73  1  0.87077219  -0.00157619  0.36843503  1
  V  V74  1  0.24987491  0.62462973  0.37575628  1
  V  V75  1  0.49057426  0.87899503  0.87332219  1
  V  V76  1  0.74972236  0.62517006  0.37491034  1
  V  V77  1  0.24927386  0.37545485  0.12562241  1
  V  V78  1  0.61458978  0.75013784  0.37365155  1
  V  V79  1  0.75314191  0.11594640  0.87931438  1
  V  V80  1  0.25209576  0.49709772  0.75051014  1
  V  V81  1  -0.00074043  0.49807900  0.49212199  1
  V  V82  1  0.25008069  0.36932560  0.61794170  1
  V  V83  1  0.11845749  0.87247467  0.24440085  1
  V  V84  1  0.74955818  0.87068290  0.12696508  1
  Zn  Zn85  1  0.37061548  0.37063745  0.49686114  1
  Zn  Zn86  1  0.50197156  0.37594522  0.87830018  1
  Zn  Zn87  1  -0.00587032  0.62664714  0.62425816  1
  Zn  Zn88  1  0.87620929  0.74911579  0.62864661  1
  Zn  Zn89  1  0.25251361  0.25135377  0.00044119  1
  Zn  Zn90  1  0.62216209  0.87899662  0.74737947  1
  Zn  Zn91  1  0.12491381  0.00075332  0.12700871  1
  Zn  Zn92  1  0.74934902  0.74871346  0.50123957  1
  Zn  Zn93  1  0.75803917  0.49650539  0.75619093  1
  Zn  Zn94  1  0.51692490  0.12172393  0.12540987  1
  Zn  Zn95  1  0.87896014  0.49718123  0.37067690  1
  Zn  Zn96  1  -0.00234031  0.87643161  0.86128413  1
  Zn  Zn97  1  0.48733097  0.76179693  0.24908939  1
  Zn  Zn98  1  0.12182305  0.62607250  0.49838022  1
  Zn  Zn99  1  0.24885218  0.75005481  0.49965255  1
  Zn  Zn100  1  0.01137448  0.75734744  0.74848000  1
  Zn  Zn101  1  0.87246906  0.87724040  -0.00892436  1
  Zn  Zn102  1  0.37908288  0.11657336  0.75269174  1
  Zn  Zn103  1  0.36942981  0.63224547  0.24532394  1
  Zn  Zn104  1  0.37372779  0.49910918  0.37406823  1
  Zn  Zn105  1  0.75435412  0.61440821  0.87925207  1
  Zn  Zn106  1  0.75310941  0.74967011  -0.00109207  1
  Zn  Zn107  1  0.19184644  0.19384572  0.19056100  1
  Zn  Zn108  1  0.18848266  0.18689592  0.69168830  1
  Zn  Zn109  1  0.18616027  0.68947623  0.18732133  1
  Zn  Zn110  1  0.19270708  0.68156916  0.68432689  1
  Zn  Zn111  1  0.69046533  0.20422297  0.19272245  1
  Zn  Zn112  1  0.68910691  0.18698297  0.69099220  1
  Zn  Zn113  1  0.68677528  0.69001201  0.18547427  1
  Zn  Zn114  1  0.69554760  0.68774753  0.68888525  1
  Zn  Zn115  1  0.31266189  0.31161343  0.31046543  1
  Zn  Zn116  1  0.31121775  0.31104760  0.81128961  1
  Zn  Zn117  1  0.31153833  0.81077806  0.31385249  1
  Zn  Zn118  1  0.15685311  0.80223999  0.83176705  1
  Zn  Zn119  1  0.80972864  0.31153623  0.31006179  1
  Zn  Zn120  1  0.81168453  0.30855637  0.81037433  1
  Zn  Zn121  1  0.80722591  0.81033496  0.30873081  1
  Zn  Zn122  1  0.82018333  0.81201149  0.81247772  1
  Zn  Zn123  1  0.18431422  0.43464639  0.43448664  1
  Zn  Zn124  1  0.19165096  0.43938994  0.93749951  1
  Zn  Zn125  1  0.18992170  0.93695985  0.43972162  1
  Zn  Zn126  1  0.19502871  0.94721124  0.94612718  1
  Zn  Zn127  1  0.68861388  0.43759282  0.43889739  1
  Zn  Zn128  1  0.68627337  0.43674629  0.93853401  1
  Zn  Zn129  1  0.68902179  0.93443270  0.43257643  1
  Zn  Zn130  1  0.69049169  0.93302765  0.93585333  1
  Zn  Zn131  1  0.31340072  0.06320035  0.06598369  1
  Zn  Zn132  1  0.31253202  0.06092803  0.56634297  1
  Zn  Zn133  1  0.31340427  0.55577585  0.06223360  1
  Zn  Zn134  1  0.30967028  0.56039519  0.56006441  1
  Zn  Zn135  1  0.81712604  0.06853717  0.06031492  1
  Zn  Zn136  1  0.81374342  0.05955879  0.56360206  1
  Zn  Zn137  1  0.80875144  0.56868286  0.06304276  1
  Zn  Zn138  1  0.81158348  0.56174881  0.56660971  1
  Zn  Zn139  1  0.43382940  0.44041100  0.19016255  1
  Zn  Zn140  1  0.43848571  0.43388660  0.68641015  1
  Zn  Zn141  1  0.43976657  0.94175518  0.18547517  1
  Zn  Zn142  1  0.43617532  0.93305975  0.68662125  1
  Zn  Zn143  1  0.93676434  0.44539314  0.18325725  1
  Zn  Zn144  1  0.93856938  0.44062515  0.68653757  1
  Zn  Zn145  1  0.93694905  0.94275034  0.18128201  1
  Zn  Zn146  1  0.93479972  0.93442068  0.69073978  1
  Zn  Zn147  1  0.06141774  0.06305201  0.31236521  1
  Zn  Zn148  1  0.06718751  0.06160946  0.81261447  1
  Zn  Zn149  1  0.06415090  0.55914559  0.31019973  1
  Zn  Zn150  1  0.06126320  0.56546850  0.81301940  1
  Zn  Zn151  1  0.55800422  0.06224124  0.32306372  1
  Zn  Zn152  1  0.56377250  0.06141815  0.81672300  1
  Zn  Zn153  1  0.55978011  0.56309542  0.31092573  1
  Zn  Zn154  1  0.56659551  0.56168232  0.81366538  1
  Zn  Zn155  1  0.43961206  0.18442581  0.44131009  1
  Zn  Zn156  1  0.43883531  0.18581291  0.94286875  1
  Zn  Zn157  1  0.43526006  0.68533983  0.43551078  1
  Zn  Zn158  1  0.43881905  0.69155638  0.93704857  1
  Zn  Zn159  1  0.93631682  0.18524053  0.44291224  1
  Zn  Zn160  1  0.93717193  0.19234002  0.93920327  1
  Zn  Zn161  1  0.93957984  0.68720584  0.43743710  1
  Zn  Zn162  1  0.94318683  0.69794564  0.93021791  1
  Zn  Zn163  1  0.06212677  0.31700479  0.06026227  1
  Zn  Zn164  1  0.06228051  0.31235467  0.55951621  1
  Zn  Zn165  1  0.08515688  0.82442762  0.01270663  1
  Zn  Zn166  1  0.06043820  0.80937864  0.56379449  1
  Zn  Zn167  1  0.56389895  0.30943347  0.06231427  1
  Zn  Zn168  1  0.56019388  0.31088988  0.56203287  1
  Zn  Zn169  1  0.56561609  0.81552369  0.06081337  1
  Zn  Zn170  1  0.56115143  0.81235603  0.56152769  1
  O  O171  1  0.11989779  0.13214154  0.12054916  1
  O  O172  1  0.12119442  0.12175168  0.61837827  1
  O  O173  1  0.11282089  0.62738656  0.12106838  1
  O  O174  1  0.12935350  0.60760197  0.62014697  1
  O  O175  1  0.63508765  0.11469000  0.14616324  1
  O  O176  1  0.61154504  0.12883018  0.62685039  1
  O  O177  1  0.61700400  0.61821985  0.12001194  1
  O  O178  1  0.63144811  0.61555400  0.61566282  1
  O  O179  1  0.38232401  0.37485187  0.37762069  1
  O  O180  1  0.37456595  0.37983008  0.88291535  1
  O  O181  1  0.36575134  0.88578874  0.38662741  1
  O  O182  1  0.39040105  0.87175823  0.88673342  1
  O  O183  1  0.86743764  0.37515037  0.38654191  1
  O  O184  1  0.89152480  0.36632669  0.86667832  1
  O  O185  1  0.87693742  0.88213822  0.37492444  1
  O  O186  1  0.88211169  0.87601570  0.87864665  1
  O  O187  1  0.25555862  0.00912060  0.36833301  1
  O  O188  1  0.24363502  0.01155165  0.86660347  1
  O  O189  1  0.24891691  0.50571980  0.36872089  1
  O  O190  1  0.26276757  0.50425196  0.86758470  1
  O  O191  1  0.76329949  0.00730539  0.38054261  1
  O  O192  1  0.74841968  0.01200581  0.87075157  1
  O  O193  1  0.74967164  0.51048128  0.36905044  1
  O  O194  1  0.73884855  0.50153612  0.86820596  1
  O  O195  1  0.25382056  0.48500278  0.13291861  1
  O  O196  1  0.24478507  0.49020064  0.63077533  1
  O  O197  1  0.25008264  0.99617469  0.14009970  1
  O  O198  1  0.24349380  0.99220552  0.63223350  1
  O  O199  1  0.74149659  0.49533689  0.12867442  1
  O  O200  1  0.73679692  0.48947971  0.62456775  1
  O  O201  1  0.75744831  0.99305067  0.12671090  1
  O  O202  1  0.75180697  0.99278054  0.63221742  1
  O  O203  1  0.01390911  0.38088484  0.24307081  1
  O  O204  1  0.01302508  0.38331857  0.75791514  1
  O  O205  1  0.01291019  0.88434678  0.25086723  1
  O  O206  1  0.01042904  0.87879782  0.74644640  1
  O  O207  1  0.50604315  0.38185733  0.26327935  1
  O  O208  1  0.50745923  0.36347504  0.75120776  1
  O  O209  1  0.51681045  0.87792000  0.24221701  1
  O  O210  1  0.50080401  0.86831074  0.75737399  1
  O  O211  1  0.48751573  0.11629446  0.24778124  1
  O  O212  1  0.49916476  0.12770980  0.74195887  1
  O  O213  1  0.49910097  0.62524285  0.23481824  1
  O  O214  1  0.49698376  0.63508018  0.75358118  1
  O  O215  1  0.99353651  0.12668398  0.24209825  1
  O  O216  1  0.99535143  0.11980429  0.73950319  1
  O  O217  1  0.99197927  0.61531061  0.23900975  1
  O  O218  1  0.98968002  0.62340173  0.74673844  1
  O  O219  1  0.37270488  0.25593427  0.00911141  1
  O  O220  1  0.37903864  0.25087767  0.51425918  1
  O  O221  1  0.36560417  0.76008435  -0.00330691  1
  O  O222  1  0.37633847  0.75655610  0.50594837  1
  O  O223  1  0.86309154  0.24885381  0.01166516  1
  O  O224  1  0.86899166  0.25555833  0.50884235  1
  O  O225  1  0.87374181  0.75034925  0.00945892  1
  O  O226  1  0.87255539  0.76479813  0.49427406  1
  O  O227  1  0.12254987  0.24330092  0.48631469  1
  O  O228  1  0.12871266  0.24246105  0.99521230  1
  O  O229  1  0.12651533  0.75056187  0.48542107  1
  O  O230  1  0.14611515  0.73079196  1.00583563  1
  O  O231  1  0.63465302  0.25547614  0.49125223  1
  O  O232  1  0.63760674  0.25186964  0.99384060  1
  O  O233  1  0.62462974  0.74156517  0.49306098  1
  O  O234  1  0.62540622  0.74403799  0.99047746  1
  O  O235  1  0.49172419  0.24150234  0.12205794  1
  O  O236  1  0.49497689  0.23878859  0.63119003  1
  O  O237  1  0.50485308  0.73836990  0.12635778  1
  O  O238  1  0.49261847  0.75458879  0.63471449  1
  O  O239  1  0.99055146  0.24368669  0.11718878  1
  O  O240  1  0.99258294  0.24064895  0.62007088  1
  O  O241  1  0.99084258  0.74032538  0.12073077  1
  O  O242  1  0.99506383  0.74493234  0.62583153  1
  O  O243  1  0.00962994  0.24545926  0.37542642  1
  O  O244  1  0.01415512  0.26056088  0.88458176  1
  O  O245  1  0.00692067  0.75956627  0.37467213  1
  O  O246  1  0.01443487  0.75787706  0.87134633  1
  O  O247  1  0.50934123  0.25670036  0.38247803  1
  O  O248  1  0.50718261  0.24662297  0.86857945  1
  O  O249  1  0.51104852  0.74482855  0.37166028  1
  O  O250  1  0.50814041  0.75745674  0.86679712  1
  O  O251  1  0.23879022  0.11903092  0.49318664  1
  O  O252  1  0.24307087  0.12614319  0.99452792  1
  O  O253  1  0.24368239  0.62427603  0.48928381  1
  O  O254  1  0.25111584  0.62719842  0.99459892  1
  O  O255  1  0.75717710  0.13669973  0.49607733  1
  O  O256  1  0.75419001  0.13388150  0.99099751  1
  O  O257  1  0.73891060  0.62276619  0.49155216  1
  O  O258  1  0.73501484  0.62964924  0.99988808  1
  O  O259  1  0.25859853  0.37342384  0.00920724  1
  O  O260  1  0.24959422  0.37818231  0.51390325  1
  O  O261  1  0.25826672  0.86859112  0.01114477  1
  O  O262  1  0.26141067  0.87568675  0.51057798  1
  O  O263  1  0.74543598  0.36927714  0.01363958  1
  O  O264  1  0.75609825  0.36528131  0.50578796  1
  O  O265  1  0.75270826  0.87330492  0.01234773  1
  O  O266  1  0.75720916  0.87588584  0.50581645  1
  O  O267  1  0.13456597  0.48225332  0.25626076  1
  O  O268  1  0.13141776  0.49332427  0.74228089  1
  O  O269  1  0.13339003  0.99499882  0.25013004  1
  O  O270  1  0.13532386  1.00736120  0.73670850  1
  O  O271  1  0.62979276  0.49192904  0.24439223  1
  O  O272  1  0.62137154  0.49067061  0.74089130  1
  O  O273  1  0.62939917  0.99180820  0.26326440  1
  O  O274  1  0.63971126  1.00001453  0.75407894  1
  O  O275  1  0.36860436  0.00400652  0.25999976  1
  O  O276  1  0.36003332  -0.00227876  0.74643654  1
  O  O277  1  0.36029023  0.50341966  0.25301269  1
  O  O278  1  0.37201930  0.50383118  0.75263553  1
  O  O279  1  0.87987396  0.01369491  0.25722409  1
  O  O280  1  0.86502173  0.01513875  0.74276383  1
  O  O281  1  0.86729328  0.51088036  0.25010739  1
  O  O282  1  0.87457948  0.51493571  0.74365003  1
  O  O283  1  0.12651742  0.36049269  0.36591805  1
  O  O284  1  0.12302933  0.36983314  0.86842717  1
  O  O285  1  0.12065094  0.87088641  0.36718093  1
  O  O286  1  0.11933472  0.87388749  0.90747146  1
  O  O287  1  0.61968274  0.37063406  0.36954528  1
  O  O288  1  0.62261571  0.36100677  0.86950016  1
  O  O289  1  0.63379200  0.86029745  0.36506265  1
  O  O290  1  0.61654339  0.86712334  0.87291327  1
  O  O291  1  0.37277173  0.13332918  0.13545716  1
  O  O292  1  0.38060112  0.13090251  0.63057526  1
  O  O293  1  0.39100868  0.61871582  0.12154009  1
  O  O294  1  0.37112454  0.63452193  0.62654285  1
  O  O295  1  0.88262096  0.13502067  0.13284679  1
  O  O296  1  0.88552504  0.13097235  0.62806208  1
  O  O297  1  0.88254587  0.63166284  0.13058867  1
  O  O298  1  0.87319339  0.62846362  0.63296590  1
  O  O299  1  0.26242650  0.26082633  0.12606670  1
  O  O300  1  0.25972085  0.25611857  0.63260143  1
  O  O301  1  0.25250013  0.75707455  0.12060545  1
  O  O302  1  0.25951365  0.75472115  0.62060743  1
  O  O303  1  0.75668951  0.25955239  0.11834998  1
  O  O304  1  0.75559880  0.25255498  0.61796160  1
  O  O305  1  0.76037773  0.75704812  0.12455505  1
  O  O306  1  0.75396819  0.76170326  0.62041306  1
  O  O307  1  0.24420188  0.23876698  0.37327944  1
  O  O308  1  0.23912323  0.24401959  0.87601347  1
  O  O309  1  0.24115978  0.74135306  0.37790343  1
  O  O310  1  0.25162785  0.73666855  0.88302163  1
  O  O311  1  0.74280624  0.24455318  0.38223121  1
  O  O312  1  0.74514882  0.24449946  0.88267212  1
  O  O313  1  0.74213083  0.73664248  0.37585879  1
  O  O314  1  0.73698094  0.74941964  0.87350550  1
  O  O315  1  0.00646799  0.12162792  0.00662053  1
  O  O316  1  0.00925249  0.11989975  0.50895852  1
  O  O317  1  0.00842672  0.61550286  0.00211064  1
  O  O318  1  0.00193133  0.61419381  0.50199234  1
  O  O319  1  0.50174452  0.11027672  0.00103910  1
  O  O320  1  0.49679392  0.11520179  0.51526717  1
  O  O321  1  0.50960385  0.62998440  0.01132824  1
  O  O322  1  0.51211782  0.61559201  0.49391182  1
  O  O323  1  0.50033119  0.38190395  0.48905260  1
  O  O324  1  0.48817179  0.36988360  0.99876848  1
  O  O325  1  0.48459264  0.88436017  0.51105264  1
  O  O326  1  0.49541757  0.88484522  0.99782145  1
  O  O327  1  0.98814677  0.38165937  0.50463887  1
  O  O328  1  1.00373305  0.39150706  0.99383192  1
  O  O329  1  0.99275997  0.88167745  0.49183592  1
  O  O330  1  0.99793765  0.89736553  1.01587932  1
  O  O331  1  0.49897024  0.49249800  0.38278763  1
  O  O332  1  0.48675485  0.49637299  0.86830647  1
  O  O333  1  0.48332524  1.00544513  0.38773991  1
  O  O334  1  0.50491289  0.99216562  0.88774406  1
  O  O335  1  0.99887399  0.50100339  0.38704670  1
  O  O336  1  1.00556820  0.49339053  0.88922541  1
  O  O337  1  0.99056432  0.99518324  0.37907796  1
  O  O338  1  1.00721548  1.00414726  0.89181133  1
  O  O339  1  0.00319759  0.01799906  0.11894148  1
  O  O340  1  0.00815316  0.00782421  0.61878957  1
  O  O341  1  -0.00243538  0.50852130  0.10840700  1
  O  O342  1  0.00928427  0.49971615  0.61440496  1
  O  O343  1  0.49815833  0.00339638  0.10755829  1
  O  O344  1  0.49627845  0.01109983  0.62112489  1
  O  O345  1  0.50936332  0.50616605  0.12940461  1
  O  O346  1  0.51241347  0.49194001  0.61583398  1
  O  O347  1  0.24396164  0.37912926  0.24449735  1
  O  O348  1  0.24113283  0.37888296  0.74227673  1
  O  O349  1  0.24177759  0.88318239  0.24777870  1
  O  O350  1  0.24324088  0.88090499  0.74072353  1
  O  O351  1  0.74189598  0.38094116  0.24069945  1
  O  O352  1  0.74201273  0.37147447  0.74104867  1
  O  O353  1  0.74086903  0.87623889  0.23929935  1
  O  O354  1  0.75119445  0.88364318  0.74069582  1
  O  O355  1  0.25592233  0.11865705  0.25856971  1
  O  O356  1  0.25207388  0.11665245  0.75888423  1
  O  O357  1  0.24536806  0.61436499  0.25485557  1
  O  O358  1  0.26060677  0.61666757  0.75656564  1
  O  O359  1  0.75477717  0.11805464  0.25248208  1
  O  O360  1  0.75795839  0.11998929  0.75625345  1
  O  O361  1  0.75485065  0.62075055  0.25513738  1
  O  O362  1  0.76222565  0.62146898  0.75388602  1
  O  O363  1  0.36793867  0.12112578  0.37119521  1
  O  O364  1  0.36154673  0.13331628  0.87346029  1
  O  O365  1  0.36089206  0.62138563  0.37391965  1
  O  O366  1  0.37094992  0.61826286  0.87064948  1
  O  O367  1  0.87055221  0.12109748  0.36866018  1
  O  O368  1  0.86787424  0.13578638  0.86433735  1
  O  O369  1  0.86765469  0.62431489  0.36742776  1
  O  O370  1  0.87418010  0.62838848  0.86435382  1
  O  O371  1  0.13408608  0.36356864  0.13929865  1
  O  O372  1  0.12969455  0.37926894  0.63125660  1
  O  O373  1  0.13897254  0.87679214  0.12983740  1
  O  O374  1  0.13520698  0.88577641  0.61114962  1
  O  O375  1  0.62766654  0.38110434  0.13219330  1
  O  O376  1  0.62919078  0.37795315  0.63021774  1
  O  O377  1  0.63811891  0.87081545  0.13282090  1
  O  O378  1  0.63689049  0.87338598  0.62489539  1
  O  O379  1  0.12666792  0.25960870  0.26291712  1
  O  O380  1  0.12618535  0.25944804  0.75850878  1
  O  O381  1  0.12970467  0.76118055  0.26076715  1
  O  O382  1  0.12793122  0.74600940  0.74415670  1
  O  O383  1  0.62691321  0.26732015  0.26185208  1
  O  O384  1  0.61580975  0.25347600  0.75576655  1
  O  O385  1  0.62197060  0.75582723  0.25717562  1
  O  O386  1  0.61847014  0.75076966  0.75481450  1
  O  O387  1  0.37358450  0.24018894  0.24309279  1
  O  O388  1  0.38793528  0.24954176  0.74417674  1
  O  O389  1  0.37589516  0.74638307  0.25219855  1
  O  O390  1  0.38574386  0.73815196  0.73997333  1
  O  O391  1  0.86668770  0.23812844  0.24129211  1
  O  O392  1  0.86932090  0.23808901  0.73534147  1
  O  O393  1  0.87212439  0.73740859  0.24310486  1
  O  O394  1  0.87788857  0.73580052  0.74772126  1
  O  O395  1  0.38784643  0.49718014  0.50094963  1
  O  O396  1  0.37263910  0.48880250  0.99013444  1
  O  O397  1  0.37794394  0.99383998  0.49621402  1
  O  O398  1  0.37261623  0.98820163  1.00032988  1
  O  O399  1  0.88016862  0.49019598  0.49926664  1
  O  O400  1  0.88393259  0.50524935  0.99962830  1
  O  O401  1  0.88093900  0.99153216  0.49152174  1
  O  O402  1  0.89119032  1.00494210  1.00185854  1
  O  O403  1  0.11966826  0.01708667  0.00773185  1
  O  O404  1  0.12106122  0.00901003  0.50588363  1
  O  O405  1  0.12928025  0.51203044  0.00296831  1
  O  O406  1  0.11639067  0.49514861  0.50618350  1
  O  O407  1  0.61822573  -0.00146472  0.00080186  1
  O  O408  1  0.60847056  -0.00667049  0.48897941  1
  O  O409  1  0.62368038  0.50775475  0.01029846  1
  O  O410  1  0.61710699  0.50476695  0.50533922  1
  O  O411  1  0.37261844  0.36855645  0.12061663  1
  O  O412  1  0.36637813  0.36521651  0.62466277  1
  O  O413  1  0.36421336  0.87998837  0.12142080  1
  O  O414  1  0.36580769  0.86332817  0.62244655  1
  O  O415  1  0.86574547  0.36742235  0.13347499  1
  O  O416  1  0.86979512  0.36695769  0.62035646  1
  O  O417  1  0.86922539  0.86681212  0.12693864  1
  O  O418  1  0.86605164  0.87723727  0.61381968  1
  O  O419  1  0.12959414  0.13429825  0.38013549  1
  O  O420  1  0.13104408  0.13367876  0.88230252  1
  O  O421  1  0.13148266  0.63286348  0.37184891  1
  O  O422  1  0.14007922  0.61472454  0.88199136  1
  O  O423  1  0.63111083  0.13756778  0.36955336  1
  O  O424  1  0.63689968  0.13760728  0.86882568  1
  O  O425  1  0.63097015  0.62940603  0.37971232  1
  O  O426  1  0.62088014  0.63380463  0.88407345  1
