# generated using pymatgen
data_V85Zn86O256
_symmetry_space_group_name_H-M   'P 1'
_cell_length_a   16.93358671
_cell_length_b   16.93251384
_cell_length_c   16.92542270
_cell_angle_alpha   89.95828785
_cell_angle_beta   89.99399198
_cell_angle_gamma   89.95718789
_symmetry_Int_Tables_number   1
_chemical_formula_structural   V85Zn86O256
_chemical_formula_sum   'V85 Zn86 O256'
_cell_volume   4852.99317209
_cell_formula_units_Z   1
loop_
 _symmetry_equiv_pos_site_id
 _symmetry_equiv_pos_as_xyz
  1  'x, y, z'
loop_
 _atom_site_type_symbol
 _atom_site_label
 _atom_site_symmetry_multiplicity
 _atom_site_fract_x
 _atom_site_fract_y
 _atom_site_fract_z
 _atom_site_occupancy
  V  V0  1  0.62560752  0.50377888  0.12074596  1
  V  V1  1  0.13659155  -0.00190624  0.63141888  1
  V  V2  1  0.37379153  0.87060881  0.50373350  1
  V  V3  1  0.50482419  0.00079044  0.49896765  1
  V  V4  1  0.87943867  0.62525527  0.24516958  1
  V  V5  1  0.62050664  0.87547085  0.76258025  1
  V  V6  1  0.60961326  0.25441722  0.86950961  1
  V  V7  1  0.25404879  0.62012200  0.37324995  1
  V  V8  1  0.37677600  0.61925277  0.25020344  1
  V  V9  1  0.88691173  0.12622287  0.75140231  1
  V  V10  1  0.24710023  0.49560446  0.24666921  1
  V  V11  1  0.12510630  0.62468707  0.49999395  1
  V  V12  1  -0.01127139  0.49836944  -0.00354842  1
  V  V13  1  0.50171089  -0.00064107  -0.00699846  1
  V  V14  1  0.49709010  0.75048705  0.73705191  1
  V  V15  1  0.50394194  0.12758313  0.62761627  1
  V  V16  1  0.62158002  -0.00364171  0.12899468  1
  V  V17  1  0.37597544  -0.00403826  0.86643312  1
  V  V18  1  0.87284328  0.12730755  0.25142744  1
  V  V19  1  0.62611792  0.12674942  -0.00038307  1
  V  V20  1  0.37236028  -0.00327882  0.36231505  1
  V  V21  1  0.50467655  0.87624031  0.36725279  1
  V  V22  1  0.74865165  0.49757312  0.25233732  1
  V  V23  1  0.25404612  0.24895853  0.00585905  1
  V  V24  1  0.38066869  0.25567723  0.63368468  1
  V  V25  1  0.87663098  0.87519218  0.50262293  1
  V  V26  1  0.87396712  0.00246521  0.37760929  1
  V  V27  1  0.49027660  0.51198910  0.49184124  1
  V  V28  1  0.13394493  0.88881989  0.24471509  1
  V  V29  1  0.50061168  0.75135982  0.24755554  1
  V  V30  1  0.12424080  0.49856689  0.62622716  1
  V  V31  1  0.25036819  0.50050221  0.75171192  1
  V  V32  1  0.74882793  0.62510738  0.37679435  1
  V  V33  1  0.12415518  0.24927588  0.87855472  1
  V  V34  1  0.13267439  0.87059374  0.75728532  1
  V  V35  1  0.87497040  -0.00617281  0.87895415  1
  V  V36  1  0.61256559  0.37357420  0.74924081  1
  V  V37  1  0.24747408  0.12152334  0.87322426  1
  V  V38  1  0.74256304  0.24952820  0.50114778  1
  V  V39  1  0.87056290  0.61794784  0.76186379  1
  V  V40  1  0.62683654  0.00175184  0.62353625  1
  V  V41  1  0.25353385  0.37557494  0.62106477  1
  V  V42  1  0.75043810  0.75074258  0.50058291  1
  V  V43  1  0.50147415  0.13931788  0.12842049  1
  V  V44  1  0.37203803  0.12333445  0.74693551  1
  V  V45  1  0.37736752  0.14202517  0.24516982  1
  V  V46  1  0.37794701  0.87385775  -0.00432990  1
  V  V47  1  0.00237056  0.87666510  0.37478726  1
  V  V48  1  0.75003042  0.87168430  0.12729019  1
  V  V49  1  0.00286959  0.00342505  0.50569909  1
  V  V50  1  0.75071344  0.12956778  0.87386960  1
  V  V51  1  0.88209029  0.25013715  0.62632696  1
  V  V52  1  0.37191353  0.75177683  0.12329359  1
  V  V53  1  0.75010700  -0.00054004  0.74974777  1
  V  V54  1  0.87429611  0.49988381  0.37647775  1
  V  V55  1  0.61109032  0.37028018  0.25585751  1
  V  V56  1  0.43420014  0.33081709  0.44276844  1
  V  V57  1  0.12451522  0.25178225  0.37230293  1
  V  V58  1  0.12081606  0.36915316  0.75162519  1
  V  V59  1  0.24437535  0.75154646  -0.00170416  1
  V  V60  1  0.12212014  0.62428725  0.00534778  1
  V  V61  1  0.87753366  0.74770870  0.62781535  1
  V  V62  1  0.87428295  0.25387368  0.11718947  1
  V  V63  1  0.11979709  0.49023113  0.12533009  1
  V  V64  1  0.00216359  0.74940472  0.76063605  1
  V  V65  1  0.00233955  0.12022938  0.11930918  1
  V  V66  1  0.61735296  0.73879199  0.88325514  1
  V  V67  1  0.37780118  0.49181894  0.87488942  1
  V  V68  1  0.50157019  0.49206798  -0.00471476  1
  V  V69  1  0.50159164  0.62660004  0.11259050  1
  V  V70  1  0.00298653  0.37596954  0.37259277  1
  V  V71  1  0.24864875  0.12024973  0.37024501  1
  V  V72  1  0.24604459  0.62595926  0.87585047  1
  V  V73  1  0.74521711  -0.00386328  0.25212741  1
  V  V74  1  0.73763661  0.12750880  0.37934403  1
  V  V75  1  0.75198808  0.37529311  0.12209022  1
  V  V76  1  0.37668217  0.62892972  0.73974410  1
  V  V77  1  0.00324984  0.74810080  0.24338499  1
  V  V78  1  -0.01439671  0.37160949  0.87605165  1
  V  V79  1  0.00088358  0.25539551  0.24769347  1
  V  V80  1  0.12714324  0.75053514  0.37561561  1
  V  V81  1  0.25129995  0.25346230  0.49832291  1
  V  V82  1  0.62049648  0.50948400  0.62548689  1
  V  V83  1  -0.00191242  0.50059471  0.50175045  1
  V  V84  1  0.62664484  0.75256115  0.36876331  1
  Zn  Zn85  1  0.00323543  0.86996324  0.88152478  1
  Zn  Zn86  1  0.74458539  0.61376157  0.89154807  1
  Zn  Zn87  1  0.75169299  0.25624677  -0.00446230  1
  Zn  Zn88  1  0.24937042  0.89808987  0.12516318  1
  Zn  Zn89  1  0.00804153  0.12766352  0.63299098  1
  Zn  Zn90  1  0.87689917  0.87122822  0.00262405  1
  Zn  Zn91  1  0.74885394  0.87447082  0.62738566  1
  Zn  Zn92  1  0.61902498  0.63114638  0.50554830  1
  Zn  Zn93  1  0.87183211  0.37425433  0.50207891  1
  Zn  Zn94  1  0.16396446  0.06362023  0.05173621  1
  Zn  Zn95  1  0.87927199  0.74882746  0.12264050  1
  Zn  Zn96  1  0.00038320  0.62441497  0.62996835  1
  Zn  Zn97  1  0.00409489  -0.00591145  0.00402330  1
  Zn  Zn98  1  0.25633015  0.86895770  0.63160892  1
  Zn  Zn99  1  0.74954446  0.49429454  0.75477060  1
  Zn  Zn100  1  0.74938749  0.37651258  0.62624281  1
  Zn  Zn101  1  0.12805907  0.12464409  0.50362183  1
  Zn  Zn102  1  0.25826098  0.74432501  0.50513781  1
  Zn  Zn103  1  0.38003787  0.36761324  0.00554094  1
  Zn  Zn104  1  0.25330412  0.36966247  0.12805828  1
  Zn  Zn105  1  0.61229633  0.25331617  0.37693911  1
  Zn  Zn106  1  0.75029693  0.74693672  -0.00208338  1
  Zn  Zn107  1  0.18692989  0.18518068  0.19196473  1
  Zn  Zn108  1  0.18996313  0.18791255  0.68955005  1
  Zn  Zn109  1  0.18625375  0.68627128  0.18357988  1
  Zn  Zn110  1  0.18974368  0.69030700  0.68430961  1
  Zn  Zn111  1  0.68507458  0.18937007  0.19064743  1
  Zn  Zn112  1  0.69011243  0.18868040  0.68954866  1
  Zn  Zn113  1  0.68645051  0.68404928  0.18857288  1
  Zn  Zn114  1  0.68849278  0.69014506  0.69139927  1
  Zn  Zn115  1  0.30860122  0.31487321  0.30911840  1
  Zn  Zn116  1  0.31150707  0.31153797  0.81221508  1
  Zn  Zn117  1  0.31222885  0.80950633  0.31286139  1
  Zn  Zn118  1  0.31389128  0.80910863  0.81467168  1
  Zn  Zn119  1  0.81136146  0.31351659  0.31177834  1
  Zn  Zn120  1  0.80603912  0.31126786  0.80459016  1
  Zn  Zn121  1  0.81492705  0.81432538  0.31102445  1
  Zn  Zn122  1  0.80674481  0.80835574  0.81389959  1
  Zn  Zn123  1  0.18771716  0.43793698  0.43549493  1
  Zn  Zn124  1  0.18677748  0.43564251  0.93845557  1
  Zn  Zn125  1  0.18807603  0.93885764  0.43746568  1
  Zn  Zn126  1  0.19021803  0.93600958  0.93400935  1
  Zn  Zn127  1  0.68254688  0.43664615  0.44191828  1
  Zn  Zn128  1  0.68891582  0.43819214  0.93527703  1
  Zn  Zn129  1  0.68709222  0.93596830  0.43829267  1
  Zn  Zn130  1  0.69106260  0.93626893  0.94030050  1
  Zn  Zn131  1  0.32503751  0.06682549  0.06047043  1
  Zn  Zn132  1  0.31501243  0.06010627  0.55705012  1
  Zn  Zn133  1  0.31353097  0.55910724  0.06259732  1
  Zn  Zn134  1  0.31253379  0.56146338  0.56097658  1
  Zn  Zn135  1  0.81306447  0.06296231  0.06278269  1
  Zn  Zn136  1  0.81316968  0.06719684  0.56402116  1
  Zn  Zn137  1  0.80961184  0.56760940  0.06230230  1
  Zn  Zn138  1  0.80877779  0.56363061  0.56740729  1
  Zn  Zn139  1  0.43370526  0.43548279  0.18333712  1
  Zn  Zn140  1  0.43996257  0.44282296  0.68365428  1
  Zn  Zn141  1  0.43678367  0.93870156  0.18299056  1
  Zn  Zn142  1  0.44237832  0.93503205  0.68774457  1
  Zn  Zn143  1  0.93736929  0.43801670  0.18542274  1
  Zn  Zn144  1  0.93779502  0.43436974  0.68918853  1
  Zn  Zn145  1  0.93678708  0.93691994  0.19046391  1
  Zn  Zn146  1  0.94161131  0.93633829  0.69088944  1
  Zn  Zn147  1  0.05959004  0.06645802  0.31268331  1
  Zn  Zn148  1  0.06962374  0.05214216  0.82536584  1
  Zn  Zn149  1  0.06452955  0.56259946  0.31075375  1
  Zn  Zn150  1  0.06054308  0.56021462  0.81697699  1
  Zn  Zn151  1  0.56034259  0.06497934  0.30945029  1
  Zn  Zn152  1  0.56147877  0.06649629  0.80993448  1
  Zn  Zn153  1  0.56262826  0.56230793  0.31173882  1
  Zn  Zn154  1  0.55915964  0.56332333  0.80801415  1
  Zn  Zn155  1  0.43490807  0.16969293  0.44103572  1
  Zn  Zn156  1  0.43552785  0.18340572  0.93828229  1
  Zn  Zn157  1  0.43882054  0.68660042  0.43519281  1
  Zn  Zn158  1  0.43650486  0.68680750  0.92836488  1
  Zn  Zn159  1  0.93355826  0.18716060  0.44046242  1
  Zn  Zn160  1  0.93713154  0.18964905  0.93582744  1
  Zn  Zn161  1  0.93853341  0.68746896  0.43462296  1
  Zn  Zn162  1  0.93614353  0.68639219  0.94325039  1
  Zn  Zn163  1  0.06406714  0.31216848  0.05727278  1
  Zn  Zn164  1  0.06214287  0.31259952  0.55977332  1
  Zn  Zn165  1  0.06484915  0.81459323  0.06285296  1
  Zn  Zn166  1  0.06553790  0.81281912  0.56737454  1
  Zn  Zn167  1  0.57014946  0.31700859  0.05940968  1
  Zn  Zn168  1  0.56771570  0.31359304  0.56793797  1
  Zn  Zn169  1  0.56132956  0.81723163  0.06283231  1
  Zn  Zn170  1  0.56460841  0.81768623  0.56084150  1
  O  O171  1  0.10671545  0.13071406  0.12913053  1
  O  O172  1  0.12584069  0.11678767  0.62590976  1
  O  O173  1  0.12709277  0.61403127  0.11162386  1
  O  O174  1  0.12239355  0.61652032  0.61783843  1
  O  O175  1  0.62122399  0.11662089  0.12120384  1
  O  O176  1  0.61757620  0.11289487  0.63380461  1
  O  O177  1  0.61329851  0.61562949  0.13255097  1
  O  O178  1  0.62868633  0.61369577  0.62668576  1
  O  O179  1  0.37461393  0.37918114  0.37984519  1
  O  O180  1  0.37092989  0.38859967  0.87473273  1
  O  O181  1  0.38405184  0.88048836  0.37796004  1
  O  O182  1  0.37010266  0.88492159  0.88245171  1
  O  O183  1  0.88633233  0.38094504  0.37616560  1
  O  O184  1  0.88723681  0.36450002  0.87011526  1
  O  O185  1  0.88145355  0.88258926  0.38153830  1
  O  O186  1  0.87041346  0.88275556  0.87559356  1
  O  O187  1  0.25869912  0.01048650  0.37870536  1
  O  O188  1  0.26248813  0.01313249  0.87803273  1
  O  O189  1  0.23940611  0.51258479  0.36412644  1
  O  O190  1  0.25636277  0.50435415  0.87038638  1
  O  O191  1  0.75103908  0.00728735  0.37053999  1
  O  O192  1  0.75633062  0.00969081  0.87160513  1
  O  O193  1  0.75416961  0.50426036  0.37258047  1
  O  O194  1  0.74589666  0.50295983  0.86833292  1
  O  O195  1  0.23782637  0.50072046  0.12997151  1
  O  O196  1  0.24452833  0.49216429  0.62953385  1
  O  O197  1  0.24361815  1.01035152  0.11125870  1
  O  O198  1  0.23965766  0.99555896  0.61814573  1
  O  O199  1  0.74293683  0.49477099  0.13187815  1
  O  O200  1  0.73628357  0.49807407  0.62788478  1
  O  O201  1  0.74331558  0.99442484  0.13307152  1
  O  O202  1  0.74223209  1.00043905  0.62921024  1
  O  O203  1  -0.00323958  0.36336455  0.25619622  1
  O  O204  1  0.00826127  0.38169866  0.76537355  1
  O  O205  1  0.00993160  0.86906108  0.25645612  1
  O  O206  1  0.00795634  0.86458435  0.75357721  1
  O  O207  1  0.51297499  0.38386606  0.24918141  1
  O  O208  1  0.51178133  0.37615407  0.74569515  1
  O  O209  1  0.49354566  0.86725526  0.25709716  1
  O  O210  1  0.50635738  0.86315385  0.74952020  1
  O  O211  1  0.48775720  0.12534334  0.24369334  1
  O  O212  1  0.48867064  0.12063598  0.73610826  1
  O  O213  1  0.49205612  0.63001801  0.24329667  1
  O  O214  1  0.49017901  0.63835413  0.75021792  1
  O  O215  1  0.99329411  0.13641439  0.24448788  1
  O  O216  1  0.98884975  0.11858294  0.75524339  1
  O  O217  1  0.99131068  0.63550494  0.26048844  1
  O  O218  1  0.99162483  0.63018570  0.75138777  1
  O  O219  1  0.35911363  0.24887983  -0.00741472  1
  O  O220  1  0.37512383  0.26036581  0.50166380  1
  O  O221  1  0.37181365  0.75824802  0.00161002  1
  O  O222  1  0.37885301  0.76746907  0.49239966  1
  O  O223  1  0.87155797  0.24717013  0.01333546  1
  O  O224  1  0.86568193  0.25017760  0.50887040  1
  O  O225  1  0.87109582  0.75183379  0.00682436  1
  O  O226  1  0.87194492  0.75424703  0.50648573  1
  O  O227  1  0.12907693  0.24643451  0.48921109  1
  O  O228  1  0.13436478  0.25032163  0.98638856  1
  O  O229  1  0.12111965  0.74578272  0.48734592  1
  O  O230  1  0.13311221  0.73963777  1.00545624  1
  O  O231  1  0.63740055  0.25304237  0.49696654  1
  O  O232  1  0.62813913  0.24500377  0.98644749  1
  O  O233  1  0.63146395  0.75221676  0.49028146  1
  O  O234  1  0.61894461  0.75686720  0.98492607  1
  O  O235  1  0.51061033  0.23781527  0.11790739  1
  O  O236  1  0.49152102  0.24051076  0.61615641  1
  O  O237  1  0.49523321  0.74488894  0.12816853  1
  O  O238  1  0.50633245  0.75329198  0.63755481  1
  O  O239  1  0.99435897  0.24725672  0.13069216  1
  O  O240  1  0.98775715  0.24577452  0.61770560  1
  O  O241  1  1.00204691  0.75199524  0.14035472  1
  O  O242  1  0.99232265  0.74742495  0.63302696  1
  O  O243  1  0.00369611  0.25526867  0.37043351  1
  O  O244  1  0.00865747  0.26195508  0.88146510  1
  O  O245  1  0.00771357  0.75778830  0.36905018  1
  O  O246  1  -0.00301288  0.74883513  0.86381268  1
  O  O247  1  0.49151601  0.26034276  0.39220638  1
  O  O248  1  0.51149463  0.24239089  0.87513404  1
  O  O249  1  0.50758347  0.75733268  0.36934934  1
  O  O250  1  0.51152986  0.74896867  0.86454004  1
  O  O251  1  0.25462559  0.13426388  0.48701554  1
  O  O252  1  0.25049573  0.13471404  0.98998726  1
  O  O253  1  0.24470060  0.62307351  0.48993545  1
  O  O254  1  0.24471839  0.62974758  0.99458821  1
  O  O255  1  0.75352661  0.13176876  0.48860410  1
  O  O256  1  0.74302919  0.12594072  0.99164428  1
  O  O257  1  0.74929759  0.63566976  0.49380420  1
  O  O258  1  0.74389348  0.63282454  1.00454272  1
  O  O259  1  0.25027796  0.35813751  -0.00346384  1
  O  O260  1  0.24361583  0.37147045  0.51292843  1
  O  O261  1  0.25715908  0.86697515  0.00037804  1
  O  O262  1  0.26783597  0.87557364  0.49286589  1
  O  O263  1  0.74160057  0.37351983  0.01733457  1
  O  O264  1  0.75270435  0.36518146  0.50224623  1
  O  O265  1  0.75119860  0.87109305  0.01335813  1
  O  O266  1  0.75826037  0.86781237  0.50135727  1
  O  O267  1  0.12912132  0.50770138  0.23266824  1
  O  O268  1  0.13046977  0.49096379  0.74669450  1
  O  O269  1  0.12198241  0.98669374  0.25708584  1
  O  O270  1  0.12038193  0.98299286  0.74371066  1
  O  O271  1  0.62985209  0.49434208  0.24193582  1
  O  O272  1  0.62082163  0.49432727  0.73958096  1
  O  O273  1  0.63255848  1.00554603  0.24137466  1
  O  O274  1  0.62826166  0.99347153  0.74607478  1
  O  O275  1  0.37988046  0.00557078  0.25981533  1
  O  O276  1  0.38131145  0.00436446  0.75911918  1
  O  O277  1  0.36502879  0.51348609  0.24311568  1
  O  O278  1  0.37051512  0.50738312  0.75526538  1
  O  O279  1  0.86750064  0.00682254  0.25818064  1
  O  O280  1  0.86752179  0.00563279  0.75423321  1
  O  O281  1  0.87155279  0.50626590  0.25679157  1
  O  O282  1  0.87532960  0.51618341  0.74205331  1
  O  O283  1  0.11169857  0.36798170  0.37832786  1
  O  O284  1  0.12113739  0.36724348  0.86805642  1
  O  O285  1  0.12356115  0.86794313  0.36818039  1
  O  O286  1  0.12430446  0.87310794  0.86054787  1
  O  O287  1  0.62844513  0.37465139  0.36004005  1
  O  O288  1  0.62519556  0.35988779  0.86891910  1
  O  O289  1  0.61275704  0.86967607  0.37741528  1
  O  O290  1  0.62623869  0.87311998  0.86541657  1
  O  O291  1  0.38510897  0.12686190  0.13801013  1
  O  O292  1  0.37923768  0.13062036  0.62917647  1
  O  O293  1  0.38233828  0.63100390  0.13000006  1
  O  O294  1  0.36538619  0.62339886  0.64074886  1
  O  O295  1  0.88082648  0.13304146  0.13309995  1
  O  O296  1  0.88013676  0.12954685  0.63508146  1
  O  O297  1  0.87282010  0.62660229  0.14212335  1
  O  O298  1  0.87746524  0.63711441  0.62988966  1
  O  O299  1  0.24013868  0.24675130  0.10910733  1
  O  O300  1  0.26038247  0.25524910  0.61787413  1
  O  O301  1  0.25756398  0.74726396  0.11283409  1
  O  O302  1  0.24644800  0.75643122  0.61593421  1
  O  O303  1  0.75747360  0.25669726  0.12694091  1
  O  O304  1  0.75829654  0.24608264  0.61562171  1
  O  O305  1  0.74569045  0.76575529  0.13574604  1
  O  O306  1  0.75712275  0.75246704  0.61829514  1
  O  O307  1  0.24167747  0.24705807  0.37836263  1
  O  O308  1  0.24435488  0.24164873  0.87991429  1
  O  O309  1  0.24265049  0.73928105  0.37789874  1
  O  O310  1  0.25463435  0.74007542  0.88865399  1
  O  O311  1  0.75192675  0.24203734  0.38273494  1
  O  O312  1  0.74604012  0.23855044  0.87531223  1
  O  O313  1  0.74382546  0.74863367  0.37883042  1
  O  O314  1  0.73000051  0.74736353  0.87350296  1
  O  O315  1  -0.00739393  0.12631590  0.01730443  1
  O  O316  1  0.00156927  0.11184980  0.49978500  1
  O  O317  1  0.00944970  0.60904112  -0.00931691  1
  O  O318  1  0.00504499  0.61322972  0.49793569  1
  O  O319  1  0.50457072  0.11739937  0.00761859  1
  O  O320  1  0.49736507  0.11124104  0.51302782  1
  O  O321  1  0.49384641  0.62033255  0.00957513  1
  O  O322  1  0.50096338  0.61801843  0.50082696  1
  O  O323  1  0.49962198  0.38494596  0.50099243  1
  O  O324  1  0.49930907  0.38755219  1.00157418  1
  O  O325  1  0.49180084  0.88212215  0.49132083  1
  O  O326  1  0.48662878  0.88505941  1.00450756  1
  O  O327  1  0.99759458  0.38611906  0.49265782  1
  O  O328  1  1.00279232  0.38454921  0.98763684  1
  O  O329  1  0.99696185  0.88488705  0.49617457  1
  O  O330  1  0.99690378  0.87682415  0.99857644  1
  O  O331  1  0.50588300  0.50402117  0.39232696  1
  O  O332  1  0.49165063  0.50950160  0.88510580  1
  O  O333  1  0.49670394  0.99442599  0.37936803  1
  O  O334  1  0.49385803  1.00779734  0.88561743  1
  O  O335  1  0.99780661  0.49292930  0.37957784  1
  O  O336  1  1.00073687  0.48694714  0.88711968  1
  O  O337  1  0.99536494  0.99584673  0.38285735  1
  O  O338  1  0.98167745  0.99570793  0.87138775  1
  O  O339  1  -0.00549170  0.01630505  0.12729566  1
  O  O340  1  0.00983071  0.00139259  0.61920185  1
  O  O341  1  0.01199097  0.49276392  0.11491311  1
  O  O342  1  0.00521159  0.49966809  0.61665021  1
  O  O343  1  0.50653738  0.00695591  0.11646119  1
  O  O344  1  0.50654834  0.00484433  0.61753683  1
  O  O345  1  0.50606730  0.50864893  0.11736199  1
  O  O346  1  0.51356220  0.49925128  0.61444754  1
  O  O347  1  0.24825803  0.39147713  0.25104083  1
  O  O348  1  0.24312301  0.37959481  0.74020006  1
  O  O349  1  0.23785975  0.87290998  0.24992974  1
  O  O350  1  0.23758610  0.86836871  0.75086572  1
  O  O351  1  0.74458193  0.38203629  0.24248730  1
  O  O352  1  0.73485431  0.37521386  0.74530454  1
  O  O353  1  0.75262966  0.89011118  0.24812676  1
  O  O354  1  0.74000416  0.88175923  0.74784738  1
  O  O355  1  0.26314952  0.13040467  0.25918268  1
  O  O356  1  0.26436184  0.12709908  0.75541877  1
  O  O357  1  0.25529405  0.61920833  0.25406042  1
  O  O358  1  0.25158431  0.62099786  0.75869958  1
  O  O359  1  0.75391223  0.11706067  0.25664509  1
  O  O360  1  0.75649550  0.11789927  0.75818596  1
  O  O361  1  0.75655088  0.61809777  0.25806172  1
  O  O362  1  0.76543472  0.62711917  0.75045455  1
  O  O363  1  0.37020652  0.11739428  0.36354783  1
  O  O364  1  0.37044319  0.11901415  0.86498381  1
  O  O365  1  0.36492792  0.63080438  0.36429223  1
  O  O366  1  0.36281551  0.61629013  0.86788203  1
  O  O367  1  0.86708633  0.11959464  0.36958955  1
  O  O368  1  0.86798018  0.12099466  0.86979983  1
  O  O369  1  0.86818042  0.61977525  0.36864510  1
  O  O370  1  0.87267855  0.62767853  0.86328412  1
  O  O371  1  0.13042306  0.38683222  0.12061149  1
  O  O372  1  0.12896884  0.37757958  0.63243183  1
  O  O373  1  0.12899874  0.87331282  0.14111855  1
  O  O374  1  0.12722040  0.88259129  0.63471637  1
  O  O375  1  0.63053646  0.38258269  0.13662553  1
  O  O376  1  0.62699017  0.38427609  0.63323573  1
  O  O377  1  0.62977110  0.88967198  0.12268631  1
  O  O378  1  0.62489356  0.88822356  0.63367843  1
  O  O379  1  0.11671046  0.24684657  0.26323462  1
  O  O380  1  0.13053485  0.26341767  0.75624762  1
  O  O381  1  0.12072137  0.75176627  0.26007812  1
  O  O382  1  0.11489902  0.76075894  0.74390556  1
  O  O383  1  0.62406045  0.26499583  0.25348864  1
  O  O384  1  0.62554625  0.25450640  0.76114676  1
  O  O385  1  0.61914420  0.74749777  0.26223186  1
  O  O386  1  0.61584430  0.75679875  0.75546368  1
  O  O387  1  0.37624703  0.24050569  0.25376520  1
  O  O388  1  0.37341509  0.24251758  0.73945058  1
  O  O389  1  0.37871924  0.74110953  0.24305281  1
  O  O390  1  0.38864726  0.74545912  0.75450560  1
  O  O391  1  0.88180499  0.24519768  0.24380289  1
  O  O392  1  0.86955711  0.23806964  0.73912734  1
  O  O393  1  0.88536524  0.74327349  0.25255122  1
  O  O394  1  0.88139959  0.74344116  0.74424204  1
  O  O395  1  0.39064523  0.50125378  0.50453594  1
  O  O396  1  0.38316446  0.50021770  0.99088543  1
  O  O397  1  0.38470251  0.99320520  0.48626955  1
  O  O398  1  0.38411330  0.99534952  0.98906517  1
  O  O399  1  0.88216742  0.50075396  0.49581453  1
  O  O400  1  0.89119648  0.50232757  1.01150631  1
  O  O401  1  0.88178463  0.99547191  0.49801019  1
  O  O402  1  0.87592113  0.99789742  0.99135368  1
  O  O403  1  0.11297157  0.01074630  -0.03151890  1
  O  O404  1  0.11863481  0.00055052  0.50829431  1
  O  O405  1  0.12062451  0.50331349  0.00963695  1
  O  O406  1  0.11709323  0.50357830  0.50458673  1
  O  O407  1  0.61859738  0.00568838  0.00450944  1
  O  O408  1  0.61487743  -0.00602355  0.50814701  1
  O  O409  1  0.61728212  0.49477541  0.01332783  1
  O  O410  1  0.61849230  0.50417204  0.51126925  1
  O  O411  1  0.36582483  0.37853781  0.11889188  1
  O  O412  1  0.36630432  0.36766004  0.63167960  1
  O  O413  1  0.36894046  0.87099668  0.11629958  1
  O  O414  1  0.37541843  0.88562422  0.60710560  1
  O  O415  1  0.86539848  0.36577699  0.13255179  1
  O  O416  1  0.87252548  0.36470606  0.62557212  1
  O  O417  1  0.86398417  0.87358844  0.12868607  1
  O  O418  1  0.87520965  0.86429752  0.62160066  1
  O  O419  1  0.13371960  0.13100489  0.37602756  1
  O  O420  1  0.13708877  0.13797187  0.85758965  1
  O  O421  1  0.13098404  0.63240191  0.37918718  1
  O  O422  1  0.13871639  0.61488234  0.88589664  1
  O  O423  1  0.63362308  0.13190794  0.36931780  1
  O  O424  1  0.63173877  0.13335898  0.87618078  1
  O  O425  1  0.63232542  0.63482472  0.37688123  1
  O  O426  1  0.62261850  0.63657475  0.87169176  1
