# generated using pymatgen
data_V85Zn86O256
_symmetry_space_group_name_H-M   'P 1'
_cell_length_a   16.93209886
_cell_length_b   16.93059190
_cell_length_c   16.93217984
_cell_angle_alpha   89.97144949
_cell_angle_beta   89.94248635
_cell_angle_gamma   89.98786102
_symmetry_Int_Tables_number   1
_chemical_formula_structural   V85Zn86O256
_chemical_formula_sum   'V85 Zn86 O256'
_cell_volume   4853.95255624
_cell_formula_units_Z   1
loop_
 _symmetry_equiv_pos_site_id
 _symmetry_equiv_pos_as_xyz
  1  'x, y, z'
loop_
 _atom_site_type_symbol
 _atom_site_label
 _atom_site_symmetry_multiplicity
 _atom_site_fract_x
 _atom_site_fract_y
 _atom_site_fract_z
 _atom_site_occupancy
  V  V0  1  0.87703002  0.75524894  0.12084655  1
  V  V1  1  0.24608997  0.24708023  0.00306686  1
  V  V2  1  0.86820623  0.36955752  0.49444396  1
  V  V3  1  0.12674413  0.49648105  0.62080549  1
  V  V4  1  0.37394519  -0.00030728  0.87098016  1
  V  V5  1  0.87471537  0.49901486  0.37192900  1
  V  V6  1  0.63209791  0.24535230  0.36773515  1
  V  V7  1  0.24362132  0.73898593  -0.00634861  1
  V  V8  1  0.50397059  0.61225185  0.62983219  1
  V  V9  1  0.62738070  0.61940566  0.50355269  1
  V  V10  1  0.24632876  0.87691754  0.62691547  1
  V  V11  1  0.87459464  0.38061823  -0.00051695  1
  V  V12  1  0.38131020  0.87301077  0.50127876  1
  V  V13  1  0.87588016  0.25006475  0.12978491  1
  V  V14  1  0.00238314  0.37632346  0.88325554  1
  V  V15  1  0.87895615  0.12422059  0.74815830  1
  V  V16  1  0.74750682  0.50234209  0.24736722  1
  V  V17  1  0.50180302  0.37151862  0.37183689  1
  V  V18  1  0.75038818  -0.00175606  0.74943378  1
  V  V19  1  0.74421220  0.38393115  0.62198293  1
  V  V20  1  0.37812037  0.00256232  0.37352739  1
  V  V21  1  0.00587013  0.12253484  0.12329705  1
  V  V22  1  0.36179311  0.75717939  0.12761666  1
  V  V23  1  0.00069148  0.62361781  0.62017079  1
  V  V24  1  0.25146004  -0.00149121  0.24702356  1
  V  V25  1  0.88827522  0.88265749  0.48176184  1
  V  V26  1  0.06198123  0.05624691  0.54247862  1
  V  V27  1  0.37071122  0.12534148  0.74396157  1
  V  V28  1  0.24483324  0.37144542  0.13626360  1
  V  V29  1  0.12088466  0.75320591  0.37515207  1
  V  V30  1  0.12501150  0.36975168  0.75104189  1
  V  V31  1  0.75024202  0.87590086  0.62073662  1
  V  V32  1  0.87495180  -0.00849330  0.88038952  1
  V  V33  1  0.12000526  0.88161859  0.25628342  1
  V  V34  1  0.49570660  0.62955032  0.12790662  1
  V  V35  1  0.37528984  0.37475913  0.49999690  1
  V  V36  1  0.38848893  0.25258617  0.11730105  1
  V  V37  1  0.13080411  -0.00350167  0.11974689  1
  V  V38  1  0.70004813  0.18984744  0.54572120  1
  V  V39  1  0.61968742  0.37158641  0.24677710  1
  V  V40  1  0.61762289  0.00513465  0.12488105  1
  V  V41  1  0.25017900  0.49939788  0.75225241  1
  V  V42  1  0.49756651  0.75004043  0.25146718  1
  V  V43  1  0.87301345  0.62321539  0.74576885  1
  V  V44  1  0.05818222  0.55823479  -0.04070437  1
  V  V45  1  0.87806805  0.75476709  0.62056985  1
  V  V46  1  0.49544908  0.37331128  0.87888880  1
  V  V47  1  0.74986194  0.25130262  -0.00118182  1
  V  V48  1  0.12288462  0.49342519  0.13989041  1
  V  V49  1  0.00528950  0.87393827  0.87431411  1
  V  V50  1  0.36683627  0.50147156  0.36728257  1
  V  V51  1  0.38891409  0.13168274  0.24306104  1
  V  V52  1  0.00130229  -0.00274255  -0.00034635  1
  V  V53  1  0.62116016  0.50362536  0.12371120  1
  V  V54  1  0.62045210  0.63349863  -0.00415620  1
  V  V55  1  0.75033293  0.11216448  0.36830818  1
  V  V56  1  0.74925592  0.12365219  0.88015090  1
  V  V57  1  0.00499064  0.62257998  0.12431521  1
  V  V58  1  0.74889928  0.37766712  0.12266580  1
  V  V59  1  0.62980074  0.87749554  0.25051932  1
  V  V60  1  0.12664563  0.25088007  0.36010394  1
  V  V61  1  0.37691842  0.74620409  0.62686193  1
  V  V62  1  0.87529904  0.10886457  0.25326060  1
  V  V63  1  -0.00287207  0.25006478  0.75224357  1
  V  V64  1  0.36565468  0.49896018  0.88193235  1
  V  V65  1  0.24373275  0.24190442  0.49896284  1
  V  V66  1  0.50238576  0.87419545  0.37929302  1
  V  V67  1  0.13139681  0.62009260  0.49127482  1
  V  V68  1  0.74687727  0.75719438  -0.00103683  1
  V  V69  1  -0.00043180  0.49323512  0.49841256  1
  V  V70  1  0.24756624  0.36960178  0.62550348  1
  V  V71  1  0.87405093  0.50327571  0.87788321  1
  V  V72  1  0.62455998  0.87403004  0.75393396  1
  V  V73  1  0.74377055  0.63146372  0.87281714  1
  V  V74  1  0.25556102  0.74282081  0.49209169  1
  V  V75  1  0.12404609  0.23765209  0.87982433  1
  V  V76  1  0.49981191  0.24559908  0.74482262  1
  V  V77  1  0.75330593  0.88293258  0.12541588  1
  V  V78  1  0.50368422  0.74865293  0.75902067  1
  V  V79  1  0.89156983  0.23847621  0.60292208  1
  V  V80  1  0.50485092  0.01751869  0.50716105  1
  V  V81  1  0.87447628  0.62661909  0.24890289  1
  V  V82  1  0.36746174  0.87803389  0.00180186  1
  V  V83  1  0.36811180  0.62429321  0.75703581  1
  V  V84  1  0.48611172  0.49971805  0.00215815  1
  Zn  Zn85  1  0.62124105  0.25183900  0.87796796  1
  Zn  Zn86  1  0.50313845  0.49607114  0.50268246  1
  Zn  Zn87  1  0.37841474  0.24364895  0.61998698  1
  Zn  Zn88  1  0.25517381  0.12552611  0.37521880  1
  Zn  Zn89  1  0.50153456  0.87340243  0.87878900  1
  Zn  Zn90  1  0.74930719  0.75164071  0.49471769  1
  Zn  Zn91  1  0.24033485  0.00507486  0.74625122  1
  Zn  Zn92  1  0.62493427  0.74808634  0.37773489  1
  Zn  Zn93  1  0.49412633  0.00540278  0.00125181  1
  Zn  Zn94  1  0.61640093  0.12918644  0.00682324  1
  Zn  Zn95  1  0.12335527  0.87542284  0.74776089  1
  Zn  Zn96  1  0.35248883  0.63188028  0.26631278  1
  Zn  Zn97  1  0.62372934  0.00942624  0.62282181  1
  Zn  Zn98  1  0.00785207  0.37683495  0.36528813  1
  Zn  Zn99  1  0.74607303  0.62662273  0.37340273  1
  Zn  Zn100  1  -0.00226492  0.75654476  0.25348085  1
  Zn  Zn101  1  0.00476917  0.75147548  0.74842135  1
  Zn  Zn102  1  0.61979698  0.38141618  0.74768987  1
  Zn  Zn103  1  0.24630470  0.12121259  0.87756230  1
  Zn  Zn104  1  0.12523273  0.73706727  0.87557699  1
  Zn  Zn105  1  0.00407608  0.25282325  0.24627919  1
  Zn  Zn106  1  0.73781784  0.50359315  0.74863040  1
  Zn  Zn107  1  0.19294777  0.17997122  0.18802564  1
  Zn  Zn108  1  0.17833764  0.17569779  0.67798789  1
  Zn  Zn109  1  0.18192955  0.69122017  0.18754634  1
  Zn  Zn110  1  0.18662105  0.68986014  0.68646962  1
  Zn  Zn111  1  0.69155361  0.18628779  0.19125307  1
  Zn  Zn112  1  0.69187980  0.19453226  0.70676742  1
  Zn  Zn113  1  0.68580195  0.69249776  0.18628827  1
  Zn  Zn114  1  0.68612090  0.69026244  0.68429891  1
  Zn  Zn115  1  0.31609409  0.31082670  0.31083022  1
  Zn  Zn116  1  0.31433683  0.30994790  0.81682488  1
  Zn  Zn117  1  0.30914609  0.81790689  0.31311532  1
  Zn  Zn118  1  0.31077151  0.81137989  0.81641926  1
  Zn  Zn119  1  0.81137335  0.31081235  0.31092028  1
  Zn  Zn120  1  0.81321393  0.31353001  0.80963457  1
  Zn  Zn121  1  0.80853703  0.80987826  0.31083498  1
  Zn  Zn122  1  0.81525236  0.81149236  0.80945414  1
  Zn  Zn123  1  0.18966478  0.43069078  0.43334610  1
  Zn  Zn124  1  0.19437518  0.42535512  0.94430211  1
  Zn  Zn125  1  0.19262884  0.93463738  0.43927380  1
  Zn  Zn126  1  0.18975003  0.93678602  0.93806919  1
  Zn  Zn127  1  0.68687551  0.44145265  0.43523098  1
  Zn  Zn128  1  0.68142328  0.44429322  0.93400836  1
  Zn  Zn129  1  0.68686557  0.93674598  0.44117230  1
  Zn  Zn130  1  0.68449988  0.93812508  0.93893324  1
  Zn  Zn131  1  0.31296225  0.06738634  0.06191705  1
  Zn  Zn132  1  0.31703719  0.06015933  0.56242663  1
  Zn  Zn133  1  0.29002209  0.57894804  0.10263244  1
  Zn  Zn134  1  0.31530195  0.55870302  0.56276580  1
  Zn  Zn135  1  0.81522490  0.06209709  0.06320901  1
  Zn  Zn136  1  0.82908879  0.05143656  0.56363153  1
  Zn  Zn137  1  0.81265956  0.56693567  0.06093761  1
  Zn  Zn138  1  0.81204799  0.56057085  0.55976847  1
  Zn  Zn139  1  0.43283722  0.43355499  0.18684058  1
  Zn  Zn140  1  0.43405723  0.43257623  0.69195518  1
  Zn  Zn141  1  0.43829624  0.93527923  0.18869136  1
  Zn  Zn142  1  0.43711391  0.93813328  0.68726483  1
  Zn  Zn143  1  0.94219179  0.43880940  0.18650784  1
  Zn  Zn144  1  0.93298307  0.43107723  0.68582786  1
  Zn  Zn145  1  0.94127081  0.93445941  0.18700886  1
  Zn  Zn146  1  0.94685945  0.94208281  0.68131220  1
  Zn  Zn147  1  0.06353445  0.07069990  0.32830521  1
  Zn  Zn148  1  0.06293748  0.05677797  0.80381369  1
  Zn  Zn149  1  0.06105009  0.56543034  0.31368246  1
  Zn  Zn150  1  0.06019351  0.55994214  0.79568125  1
  Zn  Zn151  1  0.56540842  0.05923405  0.31227527  1
  Zn  Zn152  1  0.56154617  0.06216543  0.81459074  1
  Zn  Zn153  1  0.55738135  0.56066607  0.31578492  1
  Zn  Zn154  1  0.56024175  0.55942040  0.81482823  1
  Zn  Zn155  1  0.43872617  0.19205761  0.43153919  1
  Zn  Zn156  1  0.43592591  0.18257126  0.93649700  1
  Zn  Zn157  1  0.44296684  0.68217352  0.43931571  1
  Zn  Zn158  1  0.42979974  0.68741388  0.93991954  1
  Zn  Zn159  1  0.95158939  0.16554947  0.43144909  1
  Zn  Zn160  1  0.93676893  0.18373865  0.94052459  1
  Zn  Zn161  1  0.93791097  0.68777789  0.43775982  1
  Zn  Zn162  1  0.92922794  0.69646450  0.93487695  1
  Zn  Zn163  1  0.06458590  0.31222469  0.06359763  1
  Zn  Zn164  1  0.05114893  0.29002879  0.54965778  1
  Zn  Zn165  1  0.06476604  0.81711460  0.06257060  1
  Zn  Zn166  1  0.06350161  0.81218691  0.55702665  1
  Zn  Zn167  1  0.56310079  0.31598408  0.05747126  1
  Zn  Zn168  1  0.56092343  0.31236229  0.56165479  1
  Zn  Zn169  1  0.55813547  0.81821031  0.06262781  1
  Zn  Zn170  1  0.56451576  0.80840876  0.56766053  1
  O  O171  1  0.11201517  0.11356201  0.13431607  1
  O  O172  1  0.11202892  0.12765488  0.59865867  1
  O  O173  1  0.11030367  0.61827064  0.12300978  1
  O  O174  1  0.12060140  0.61784457  0.61414565  1
  O  O175  1  0.63498989  0.10749516  0.12860259  1
  O  O176  1  0.64699152  0.13379992  0.61325317  1
  O  O177  1  0.61302995  0.62439386  0.11964441  1
  O  O178  1  0.61611061  0.62746983  0.61677261  1
  O  O179  1  0.38352780  0.37823842  0.37944213  1
  O  O180  1  0.38454960  0.38491819  0.87393364  1
  O  O181  1  0.38213517  0.88324789  0.38040828  1
  O  O182  1  0.37628678  0.88207242  0.88093260  1
  O  O183  1  0.86836999  0.38370125  0.37981143  1
  O  O184  1  0.88177088  0.38272889  0.87819614  1
  O  O185  1  0.87727699  0.86319302  0.38357483  1
  O  O186  1  0.88341421  0.88537038  0.86942260  1
  O  O187  1  0.26582983  0.00024086  0.37240527  1
  O  O188  1  0.26028498  0.00016093  0.87101009  1
  O  O189  1  0.26794030  0.49228800  0.37675080  1
  O  O190  1  0.25984328  0.49157718  0.87388987  1
  O  O191  1  0.74109808  0.01316425  0.37557663  1
  O  O192  1  0.75734991  0.00454991  0.87294646  1
  O  O193  1  0.75596060  0.50604229  0.36515323  1
  O  O194  1  0.75432318  0.51503628  0.87387255  1
  O  O195  1  0.23849160  0.47754171  0.11548812  1
  O  O196  1  0.24559313  0.48920707  0.62907327  1
  O  O197  1  0.24125042  1.00677303  0.13284482  1
  O  O198  1  0.26216062  0.97927623  0.62374627  1
  O  O199  1  0.74206297  0.49749282  0.12680876  1
  O  O200  1  0.75769955  0.48680420  0.63057755  1
  O  O201  1  0.74505324  0.98652044  0.11819709  1
  O  O202  1  0.75182873  0.98903930  0.62984644  1
  O  O203  1  -0.01346999  0.36457526  0.25417429  1
  O  O204  1  0.00204723  0.37484664  0.76740747  1
  O  O205  1  0.01415602  0.87561693  0.25290950  1
  O  O206  1  -0.00088965  0.87320203  0.75763159  1
  O  O207  1  0.51193416  0.37942588  0.25532866  1
  O  O208  1  0.49675851  0.36350212  0.75855483  1
  O  O209  1  0.50513738  0.86614394  0.25722933  1
  O  O210  1  0.50721163  0.86593109  0.74786485  1
  O  O211  1  0.48695039  0.11797718  0.24906564  1
  O  O212  1  0.49430131  0.14014026  0.75725284  1
  O  O213  1  0.49960116  0.63709555  0.24465488  1
  O  O214  1  0.49226600  0.63042629  0.74600205  1
  O  O215  1  0.98977429  0.12722181  0.24586703  1
  O  O216  1  0.98724567  0.13487462  0.75609381  1
  O  O217  1  0.99136212  0.62921605  0.24129988  1
  O  O218  1  0.98971932  0.62714667  0.73860975  1
  O  O219  1  0.36856657  0.24512253  0.01362678  1
  O  O220  1  0.36861732  0.26046914  0.49862909  1
  O  O221  1  0.36682443  0.75708368  0.00739727  1
  O  O222  1  0.37228223  0.74879088  0.50652086  1
  O  O223  1  0.86633320  0.25513311  0.00806649  1
  O  O224  1  0.85397692  0.26711755  0.49588943  1
  O  O225  1  0.86212908  0.74594785  0.01324341  1
  O  O226  1  0.87312463  0.75251396  0.51009719  1
  O  O227  1  0.14164639  0.25402042  0.49030162  1
  O  O228  1  0.13040817  0.25103122  0.99062996  1
  O  O229  1  0.13486466  0.74078637  0.49337966  1
  O  O230  1  0.13953044  0.75447905  0.99963978  1
  O  O231  1  0.63112674  0.24630528  0.49268209  1
  O  O232  1  0.63794759  0.24932991  0.99931025  1
  O  O233  1  0.62514953  0.73624134  0.50076408  1
  O  O234  1  0.62919094  0.74110990  1.00651820  1
  O  O235  1  0.48731244  0.25705379  0.12048139  1
  O  O236  1  0.49781813  0.25558601  0.64035468  1
  O  O237  1  0.49315573  0.74773566  0.13413689  1
  O  O238  1  0.48957071  0.74064897  0.63422065  1
  O  O239  1  0.99226937  0.23973683  0.12193020  1
  O  O240  1  0.99322897  0.28041539  0.65140124  1
  O  O241  1  0.99267689  0.74472546  0.12419152  1
  O  O242  1  0.99363293  0.74233393  0.62305597  1
  O  O243  1  0.01823562  0.24597788  0.37259819  1
  O  O244  1  0.00277201  0.25616756  0.87083638  1
  O  O245  1  0.01700943  0.74228541  0.37367031  1
  O  O246  1  0.00047462  0.76050185  0.87493340  1
  O  O247  1  0.51359190  0.26307419  0.37895958  1
  O  O248  1  0.49687172  0.25911325  0.86929813  1
  O  O249  1  0.49942447  0.75431374  0.36674332  1
  O  O250  1  0.49235309  0.75023508  0.86213915  1
  O  O251  1  0.26347944  0.13937458  0.49755630  1
  O  O252  1  0.25180951  0.13945940  0.99712977  1
  O  O253  1  0.24346281  0.63117001  0.50732479  1
  O  O254  1  0.25442986  0.64075727  1.00843140  1
  O  O255  1  0.75898420  0.12476815  0.49228652  1
  O  O256  1  0.75027279  0.13350526  0.99545592  1
  O  O257  1  0.73809911  0.62604186  0.50170784  1
  O  O258  1  0.74064536  0.63500095  0.99421674  1
  O  O259  1  0.25209898  0.35565379  0.01204364  1
  O  O260  1  0.25672453  0.36610569  0.50763743  1
  O  O261  1  0.26232916  0.86544476  -0.00366014  1
  O  O262  1  0.26152918  0.86300694  0.50871424  1
  O  O263  1  0.75250135  0.37016116  0.00206572  1
  O  O264  1  0.75443052  0.38665381  0.51145859  1
  O  O265  1  0.74297415  0.86277336  0.00524541  1
  O  O266  1  0.75723541  0.87225530  0.50732029  1
  O  O267  1  0.11996510  0.50143894  0.23929860  1
  O  O268  1  0.13169452  0.48990366  0.74188084  1
  O  O269  1  0.13093536  0.99859720  0.25352468  1
  O  O270  1  0.12761296  0.99140791  0.74411041  1
  O  O271  1  0.62720907  0.49599498  0.24279563  1
  O  O272  1  0.62452636  0.49549707  0.75179404  1
  O  O273  1  0.62105059  0.98657492  0.23938020  1
  O  O274  1  0.63170345  0.99688791  0.74280210  1
  O  O275  1  0.37172501  0.00517639  0.25459295  1
  O  O276  1  0.37168797  0.00695542  0.75439248  1
  O  O277  1  0.38170599  0.50138851  0.26458887  1
  O  O278  1  0.36902476  0.50505611  0.75979330  1
  O  O279  1  0.88027587  0.01031312  0.24900142  1
  O  O280  1  0.87159462  0.00730723  0.75599312  1
  O  O281  1  0.86877909  0.50964043  0.25048518  1
  O  O282  1  0.87442172  0.51185926  0.75483482  1
  O  O283  1  0.12570138  0.35829394  0.37609212  1
  O  O284  1  0.11784917  0.36711753  0.87056033  1
  O  O285  1  0.13183523  0.86557424  0.36986760  1
  O  O286  1  0.11231970  0.87557754  0.87554771  1
  O  O287  1  0.62182914  0.37077651  0.36630695  1
  O  O288  1  0.60923941  0.37524805  0.87663703  1
  O  O289  1  0.61977201  0.87408032  0.36741145  1
  O  O290  1  0.62330236  0.88131503  0.85903411  1
  O  O291  1  0.37368006  0.13747771  0.13481774  1
  O  O292  1  0.37387964  0.12566019  0.63833473  1
  O  O293  1  0.39010967  0.63934654  0.12036055  1
  O  O294  1  0.38185415  0.62830540  0.63357913  1
  O  O295  1  0.88238627  0.12904936  0.13394162  1
  O  O296  1  0.86360792  0.13355480  0.63637397  1
  O  O297  1  0.88211630  0.63008320  0.13194587  1
  O  O298  1  0.87810073  0.63023457  0.62851386  1
  O  O299  1  0.25144427  0.25462856  0.12114223  1
  O  O300  1  0.24974767  0.25313089  0.61387473  1
  O  O301  1  0.25895916  0.75578815  0.11715188  1
  O  O302  1  0.26307944  0.75175133  0.61671004  1
  O  O303  1  0.75636455  0.25498393  0.11734394  1
  O  O304  1  0.75376441  0.25020329  0.61483706  1
  O  O305  1  0.75552665  0.75805536  0.11751112  1
  O  O306  1  0.75864631  0.76151548  0.62411679  1
  O  O307  1  0.24782787  0.25313755  0.38441403  1
  O  O308  1  0.23942550  0.25050970  0.88276483  1
  O  O309  1  0.24637160  0.75069746  0.38635441  1
  O  O310  1  0.24851512  0.74518410  0.88823338  1
  O  O311  1  0.73816602  0.24211759  0.37024271  1
  O  O312  1  0.75211986  0.24322019  0.88258301  1
  O  O313  1  0.74356523  0.74318213  0.37654168  1
  O  O314  1  0.75746530  0.74034098  0.88317396  1
  O  O315  1  -0.00506198  0.11235282  0.01082660  1
  O  O316  1  -0.02950923  0.19804261  0.53973897  1
  O  O317  1  -0.00952227  0.62420411  0.00661928  1
  O  O318  1  0.00849133  0.61527753  0.50296319  1
  O  O319  1  0.50480280  0.11938711  -0.00401458  1
  O  O320  1  0.49613424  0.11602653  0.49798127  1
  O  O321  1  0.50486137  0.62346852  0.00596405  1
  O  O322  1  0.50862080  0.62097820  0.51224221  1
  O  O323  1  0.49267852  0.37532678  0.49448538  1
  O  O324  1  0.50081068  0.38905412  0.99405311  1
  O  O325  1  0.49662098  0.87467750  0.49618453  1
  O  O326  1  0.48618964  0.87832250  0.99658585  1
  O  O327  1  0.98789302  0.37732207  0.49423225  1
  O  O328  1  0.99220434  0.36873038  0.98996004  1
  O  O329  1  0.98759115  0.87080489  0.49853987  1
  O  O330  1  1.00083571  0.88795686  0.99315828  1
  O  O331  1  0.49408326  0.48583793  0.37974066  1
  O  O332  1  0.48734472  0.49575379  0.88362554  1
  O  O333  1  0.49349194  0.99617606  0.38358429  1
  O  O334  1  0.48600608  0.99616104  0.87229091  1
  O  O335  1  0.99274922  0.49824618  0.38061841  1
  O  O336  1  0.99962530  0.49733103  0.88398948  1
  O  O337  1  1.02084733  1.07232356  0.44180362  1
  O  O338  1  0.99336404  0.99642734  0.88146222  1
  O  O339  1  0.00511407  0.00409696  0.11748900  1
  O  O340  1  -0.00763902  0.01323490  0.60471211  1
  O  O341  1  0.00758491  0.50793739  0.12087724  1
  O  O342  1  0.00567471  0.50013942  0.61876010  1
  O  O343  1  0.51475800  -0.00535692  0.12488240  1
  O  O344  1  0.50001969  0.00072806  0.61103578  1
  O  O345  1  0.49938757  0.50891342  0.12005674  1
  O  O346  1  0.49137015  0.50943285  0.62641521  1
  O  O347  1  0.25247041  0.36975414  0.23558354  1
  O  O348  1  0.24676556  0.37647023  0.74310613  1
  O  O349  1  0.24156318  0.89085371  0.25382347  1
  O  O350  1  0.25401216  0.86955752  0.73415518  1
  O  O351  1  0.74056133  0.38197553  0.24181152  1
  O  O352  1  0.75082117  0.37285929  0.73443532  1
  O  O353  1  0.74003552  0.86911458  0.23901684  1
  O  O354  1  0.74499768  0.87894991  0.74393493  1
  O  O355  1  0.26361810  0.11254951  0.25206213  1
  O  O356  1  0.25485195  0.12595800  0.75029291  1
  O  O357  1  0.25849426  0.61499558  0.20963486  1
  O  O358  1  0.25957227  0.61566562  0.74266782  1
  O  O359  1  0.76565377  0.12274191  0.25332209  1
  O  O360  1  0.75985396  0.11991809  0.76095017  1
  O  O361  1  0.75718714  0.62081877  0.24544752  1
  O  O362  1  0.75516846  0.62768186  0.75581421  1
  O  O363  1  0.37697060  0.12020090  0.36257700  1
  O  O364  1  0.36991122  0.11768896  0.86254186  1
  O  O365  1  0.38017541  0.60772477  0.37738808  1
  O  O366  1  0.37749765  0.61539868  0.86485129  1
  O  O367  1  0.86792345  0.13160677  0.35903701  1
  O  O368  1  0.86624160  0.11767282  0.87029928  1
  O  O369  1  0.87589238  0.62046149  0.36256198  1
  O  O370  1  0.86840562  0.62272294  0.86534057  1
  O  O371  1  0.13334883  0.37797542  0.12667990  1
  O  O372  1  0.13560390  0.37488229  0.62826841  1
  O  O373  1  0.12146448  0.88996084  0.13651622  1
  O  O374  1  0.14461706  0.85986638  0.62329730  1
  O  O375  1  0.62861671  0.38192269  0.12952790  1
  O  O376  1  0.64117677  0.36851416  0.62312565  1
  O  O377  1  0.63189092  0.88160304  0.13096829  1
  O  O378  1  0.63472479  0.87647858  0.63368613  1
  O  O379  1  0.12796097  0.24872296  0.25652210  1
  O  O380  1  0.11622889  0.25186181  0.75541036  1
  O  O381  1  0.12667443  0.76114721  0.25792533  1
  O  O382  1  0.12327084  0.75159045  0.75758554  1
  O  O383  1  0.62826816  0.26061756  0.25327501  1
  O  O384  1  0.61263567  0.25636954  0.75756995  1
  O  O385  1  0.61479184  0.76007945  0.24949171  1
  O  O386  1  0.61454797  0.75844494  0.74516663  1
  O  O387  1  0.37556487  0.23771497  0.24125481  1
  O  O388  1  0.38302983  0.24365723  0.74866474  1
  O  O389  1  0.37800360  0.75047894  0.24538154  1
  O  O390  1  0.37759185  0.74064818  0.74486187  1
  O  O391  1  0.87065856  0.24324338  0.23546574  1
  O  O392  1  0.88005903  0.24145407  0.74471989  1
  O  O393  1  0.87572358  0.74213588  0.23890137  1
  O  O394  1  0.87659953  0.73979390  0.73753594  1
  O  O395  1  0.37670778  0.48700718  0.49316684  1
  O  O396  1  0.38297336  0.51076646  0.99633359  1
  O  O397  1  0.38650785  0.99567589  0.49222966  1
  O  O398  1  0.37174144  0.99428657  0.99306460  1
  O  O399  1  0.87943351  0.49312013  0.49259877  1
  O  O400  1  0.86835320  0.49258599  0.99223138  1
  O  O401  1  0.87350221  0.98233842  0.48847078  1
  O  O402  1  0.88257258  1.00286146  0.98916780  1
  O  O403  1  0.11923774  -0.00287283  0.01008387  1
  O  O404  1  0.13247009  -0.01156640  0.51734080  1
  O  O405  1  0.12366474  0.49518197  0.00731072  1
  O  O406  1  0.12321369  0.50263775  0.50134442  1
  O  O407  1  0.62366267  -0.00087599  0.01479628  1
  O  O408  1  0.60912121  -0.00078506  0.50282602  1
  O  O409  1  0.61534821  0.51406158  0.00605978  1
  O  O410  1  0.62237027  0.51338365  0.50020691  1
  O  O411  1  0.36502941  0.35927250  0.12985274  1
  O  O412  1  0.36376176  0.37214887  0.61798796  1
  O  O413  1  0.37923921  0.86703271  0.11774328  1
  O  O414  1  0.37272460  0.86263049  0.62042193  1
  O  O415  1  0.86853425  0.36820599  0.11824689  1
  O  O416  1  0.86469752  0.36251026  0.61549554  1
  O  O417  1  0.86736324  0.86659607  0.13025952  1
  O  O418  1  0.87050332  0.86854417  0.62078201  1
  O  O419  1  0.14173039  0.14442357  0.37019263  1
  O  O420  1  0.12197135  0.13536346  0.87068388  1
  O  O421  1  0.12773053  0.62858855  0.38567748  1
  O  O422  1  0.10835665  0.61505667  0.88683899  1
  O  O423  1  0.63468260  0.13316709  0.36358732  1
  O  O424  1  0.64056268  0.12518368  0.87544440  1
  O  O425  1  0.62065233  0.62520694  0.38943950  1
  O  O426  1  0.63126503  0.62524695  0.88413987  1
