# generated using pymatgen
data_V85Zn86O256
_symmetry_space_group_name_H-M   'P 1'
_cell_length_a   16.90915144
_cell_length_b   16.90956205
_cell_length_c   16.90698363
_cell_angle_alpha   90.00920630
_cell_angle_beta   89.94759658
_cell_angle_gamma   90.03369037
_symmetry_Int_Tables_number   1
_chemical_formula_structural   V85Zn86O256
_chemical_formula_sum   'V85 Zn86 O256'
_cell_volume   4834.14912483
_cell_formula_units_Z   1
loop_
 _symmetry_equiv_pos_site_id
 _symmetry_equiv_pos_as_xyz
  1  'x, y, z'
loop_
 _atom_site_type_symbol
 _atom_site_label
 _atom_site_symmetry_multiplicity
 _atom_site_fract_x
 _atom_site_fract_y
 _atom_site_fract_z
 _atom_site_occupancy
  V  V0  1  0.62693892  0.24926529  0.37509925  1
  V  V1  1  0.37907059  0.49591996  0.87202546  1
  V  V2  1  0.50376598  0.62328391  0.62294289  1
  V  V3  1  0.62583124  0.12208984  0.50187922  1
  V  V4  1  0.75482983  0.01331795  0.75658613  1
  V  V5  1  0.75164059  0.74810114  0.49524807  1
  V  V6  1  0.49919690  0.62438779  0.12546236  1
  V  V7  1  0.24872317  0.38027798  0.12854654  1
  V  V8  1  0.87988957  0.24636170  0.12467093  1
  V  V9  1  0.62511208  0.49851914  0.12464844  1
  V  V10  1  -0.00152616  0.01070954  0.00437177  1
  V  V11  1  0.62750079  -0.00412756  0.13189953  1
  V  V12  1  0.87366317  0.75099016  0.62571932  1
  V  V13  1  0.00246645  0.24898154  0.25092830  1
  V  V14  1  0.50287483  0.75694833  0.24775660  1
  V  V15  1  0.75254652  0.26097611  0.50399240  1
  V  V16  1  0.50014559  0.49993929  0.50005676  1
  V  V17  1  0.90419721  0.83917124  0.01947380  1
  V  V18  1  0.88003435  0.12136145  0.24849043  1
  V  V19  1  0.62824559  0.62074622  -0.00938151  1
  V  V20  1  0.36985368  0.49832597  0.37706515  1
  V  V21  1  0.24680466  -0.00895679  0.75343043  1
  V  V22  1  0.12540678  0.50314118  0.61604337  1
  V  V23  1  0.87266983  0.50110900  0.37856577  1
  V  V24  1  0.50863130  0.00184280  0.00059047  1
  V  V25  1  0.87743919  0.37386088  -0.00633027  1
  V  V26  1  0.74929134  0.74619591  -0.01112971  1
  V  V27  1  0.24832841  0.24979235  -0.00008927  1
  V  V28  1  0.12154316  -0.00724521  0.63299883  1
  V  V29  1  0.00487924  0.75490071  0.74975384  1
  V  V30  1  0.86006862  0.49885923  0.87398627  1
  V  V31  1  0.62900065  -0.00227985  0.62666023  1
  V  V32  1  0.37566560  0.75802441  0.61649631  1
  V  V33  1  0.74774854  0.86349370  0.12745032  1
  V  V34  1  0.75266085  0.50930405  0.25302070  1
  V  V35  1  0.86766779  0.62677411  0.75452801  1
  V  V36  1  0.50684847  0.12420254  0.12380127  1
  V  V37  1  0.74806385  0.23743402  -0.00697626  1
  V  V38  1  0.24838928  0.87698064  0.13178701  1
  V  V39  1  -0.01252300  0.12457170  0.62991727  1
  V  V40  1  0.36997793  0.62094983  0.25070946  1
  V  V41  1  0.11997771  0.74905859  0.35983637  1
  V  V42  1  0.63240512  0.87327770  0.75390189  1
  V  V43  1  0.24816287  0.49888994  0.74687622  1
  V  V44  1  0.12471341  0.62541999  -0.00115966  1
  V  V45  1  0.11922364  0.50426653  0.12726776  1
  V  V46  1  -0.00001857  0.49826507  -0.01012087  1
  V  V47  1  0.62777969  0.37519830  0.25105854  1
  V  V48  1  0.25057077  0.62607603  0.87331835  1
  V  V49  1  0.61832601  0.24898751  0.87773830  1
  V  V50  1  0.00384933  0.62637417  0.61834187  1
  V  V51  1  0.00322292  0.87316434  0.36110448  1
  V  V52  1  -0.00715218  0.25168046  0.75776653  1
  V  V53  1  0.37614803  0.24995276  0.12739522  1
  V  V54  1  0.37721009  0.12375020  0.25747797  1
  V  V55  1  0.75318263  0.12109833  0.37549149  1
  V  V56  1  0.12816908  0.76166811  0.87054719  1
  V  V57  1  0.49386056  0.37376180  0.37424463  1
  V  V58  1  0.12242361  0.00948541  0.12897047  1
  V  V59  1  0.37588477  0.87779941  0.00092836  1
  V  V60  1  0.87115882  0.26813478  0.62494926  1
  V  V61  1  0.87137404  0.00976699  0.88038262  1
  V  V62  1  0.24704726  0.12778278  0.87253659  1
  V  V63  1  0.12904065  0.13189582  0.50380058  1
  V  V64  1  0.25253459  0.75178387  -0.00027029  1
  V  V65  1  0.24341796  0.62165971  0.37835017  1
  V  V66  1  0.37987317  0.37376511  -0.00384084  1
  V  V67  1  0.37674317  0.62613758  0.74691407  1
  V  V68  1  0.24608964  -0.00064648  0.25550093  1
  V  V69  1  0.49982035  0.49758337  -0.00190109  1
  V  V70  1  0.49647836  0.87378285  0.38398799  1
  V  V71  1  0.62854504  0.62293066  0.49571321  1
  V  V72  1  0.11976707  0.37676968  0.75714872  1
  V  V73  1  0.63001650  0.75115105  0.36839623  1
  V  V74  1  0.50299663  0.87374379  0.87466538  1
  V  V75  1  0.24146311  0.75664004  0.49818037  1
  V  V76  1  -0.00414395  0.37517008  0.38476603  1
  V  V77  1  0.75154272  0.37348161  0.12488148  1
  V  V78  1  0.49907177  0.12635280  0.63442190  1
  V  V79  1  0.25188577  0.36809726  0.61308151  1
  V  V80  1  0.88545405  0.63484699  0.24513836  1
  V  V81  1  0.12661217  0.38032461  0.25129586  1
  V  V82  1  0.74466785  0.49534002  0.72890832  1
  V  V83  1  0.61966136  0.37337291  0.73498294  1
  V  V84  1  -0.00136748  -0.00397440  0.50075444  1
  Zn  Zn85  1  0.75056876  -0.00691637  0.25100764  1
  Zn  Zn86  1  0.75276233  0.87454297  0.62524149  1
  Zn  Zn87  1  0.50298803  0.24838305  0.24955752  1
  Zn  Zn88  1  0.50114819  0.75106067  0.74644270  1
  Zn  Zn89  1  0.49253759  -0.00590905  0.50760833  1
  Zn  Zn90  1  0.37686621  0.00406411  0.87259277  1
  Zn  Zn91  1  0.62578203  0.74172466  0.86862643  1
  Zn  Zn92  1  0.37439578  0.74932712  0.12637120  1
  Zn  Zn93  1  0.37141972  0.12925320  0.74901969  1
  Zn  Zn94  1  0.36715932  -0.00994598  0.38541862  1
  Zn  Zn95  1  0.25367583  0.12922231  0.38401231  1
  Zn  Zn96  1  -0.01188988  0.66062642  0.11577706  1
  Zn  Zn97  1  0.87532672  -0.00419235  0.37463253  1
  Zn  Zn98  1  -0.00447568  0.50065347  0.50063033  1
  Zn  Zn99  1  0.13055623  0.25511416  0.38474023  1
  Zn  Zn100  1  0.36695664  0.25012257  0.61824180  1
  Zn  Zn101  1  0.11783113  0.25526050  0.87848702  1
  Zn  Zn102  1  0.25177519  0.87854888  0.62293752  1
  Zn  Zn103  1  0.11943128  0.13285627  0.00583447  1
  Zn  Zn104  1  0.87622493  0.87241480  0.49738515  1
  Zn  Zn105  1  0.49161626  0.25779206  0.75884821  1
  Zn  Zn106  1  0.00073877  0.88316729  0.87140431  1
  Zn  Zn107  1  0.19094537  0.18870256  0.19307995  1
  Zn  Zn108  1  0.18088794  0.18702393  0.68809354  1
  Zn  Zn109  1  0.18899071  0.68424885  0.18714476  1
  Zn  Zn110  1  0.18826076  0.68821926  0.68512809  1
  Zn  Zn111  1  0.69075565  0.18530805  0.18642638  1
  Zn  Zn112  1  0.68719154  0.19130787  0.68922142  1
  Zn  Zn113  1  0.68743955  0.68514213  0.18417543  1
  Zn  Zn114  1  0.68778468  0.68483060  0.68572005  1
  Zn  Zn115  1  0.30911996  0.30886783  0.31632509  1
  Zn  Zn116  1  0.31030836  0.31233311  0.80742398  1
  Zn  Zn117  1  0.31376699  0.80897624  0.31228455  1
  Zn  Zn118  1  0.31752670  0.81385824  0.81031072  1
  Zn  Zn119  1  0.81337804  0.31300388  0.31447391  1
  Zn  Zn120  1  0.80746220  0.31480328  0.81019477  1
  Zn  Zn121  1  0.81510375  0.81163024  0.31249376  1
  Zn  Zn122  1  0.81825283  0.82061713  0.82215412  1
  Zn  Zn123  1  0.18445408  0.43865156  0.43654325  1
  Zn  Zn124  1  0.19098982  0.43726209  0.93737031  1
  Zn  Zn125  1  0.18200843  0.93799396  0.43814069  1
  Zn  Zn126  1  0.18650971  0.94287157  0.94192219  1
  Zn  Zn127  1  0.68597302  0.43990400  0.43668541  1
  Zn  Zn128  1  0.68629297  0.42847980  0.93389411  1
  Zn  Zn129  1  0.68518286  0.93193554  0.43648117  1
  Zn  Zn130  1  0.69184778  0.93418322  0.94322532  1
  Zn  Zn131  1  0.31577463  0.06370182  0.06526160  1
  Zn  Zn132  1  0.31383758  0.05842347  0.56512298  1
  Zn  Zn133  1  0.30977420  0.56076578  0.06336968  1
  Zn  Zn134  1  0.31285888  0.56541972  0.55834490  1
  Zn  Zn135  1  0.81346038  0.05945996  0.06500516  1
  Zn  Zn136  1  0.81141925  0.06193183  0.56310541  1
  Zn  Zn137  1  0.81203651  0.56384517  0.06403263  1
  Zn  Zn138  1  0.81467004  0.56710611  0.56048152  1
  Zn  Zn139  1  0.43647247  0.43807728  0.19033440  1
  Zn  Zn140  1  0.43787765  0.43611509  0.68415580  1
  Zn  Zn141  1  0.43476245  0.93839938  0.19117301  1
  Zn  Zn142  1  0.43787458  0.94103005  0.69130682  1
  Zn  Zn143  1  0.93895135  0.43878770  0.18721478  1
  Zn  Zn144  1  0.93801604  0.43935804  0.69031947  1
  Zn  Zn145  1  0.93596100  0.93709844  0.18444473  1
  Zn  Zn146  1  0.93533562  0.93671203  0.69045316  1
  Zn  Zn147  1  0.06339653  0.06286849  0.31590319  1
  Zn  Zn148  1  0.06192674  0.06813571  0.81437167  1
  Zn  Zn149  1  0.05651561  0.56560989  0.30976653  1
  Zn  Zn150  1  0.06025568  0.56674656  0.80957222  1
  Zn  Zn151  1  0.56352794  0.05873510  0.31240347  1
  Zn  Zn152  1  0.56842970  0.06492399  0.81600771  1
  Zn  Zn153  1  0.56159792  0.56543544  0.31300990  1
  Zn  Zn154  1  0.56257156  0.55438444  0.80768378  1
  Zn  Zn155  1  0.43769985  0.18733079  0.44460755  1
  Zn  Zn156  1  0.43743113  0.18518654  0.93752290  1
  Zn  Zn157  1  0.43449395  0.68928803  0.43700525  1
  Zn  Zn158  1  0.43947346  0.68779836  0.93677153  1
  Zn  Zn159  1  0.93857117  0.18767912  0.44085060  1
  Zn  Zn160  1  0.93369584  0.18505081  0.93659078  1
  Zn  Zn161  1  0.93666172  0.68493502  0.43252395  1
  Zn  Zn162  1  0.94240901  0.68141713  0.93162698  1
  Zn  Zn163  1  0.05954153  0.31579657  0.06383919  1
  Zn  Zn164  1  0.06010881  0.31465593  0.57113697  1
  Zn  Zn165  1  0.07436720  0.82230278  0.06054820  1
  Zn  Zn166  1  0.06399489  0.81213573  0.55807096  1
  Zn  Zn167  1  0.56356757  0.31024289  0.06035058  1
  Zn  Zn168  1  0.53507421  0.30038192  0.55255912  1
  Zn  Zn169  1  0.56624924  0.81018377  0.06195521  1
  Zn  Zn170  1  0.56699405  0.80942602  0.56335024  1
  O  O171  1  0.13257378  0.11403836  0.12471461  1
  O  O172  1  0.11329880  0.11672891  0.61831169  1
  O  O173  1  0.12081265  0.62106780  0.11745393  1
  O  O174  1  0.11541753  0.61588291  0.63238176  1
  O  O175  1  0.61395007  0.11764481  0.12826820  1
  O  O176  1  0.62724127  0.11364253  0.62005805  1
  O  O177  1  0.61843939  0.61624656  0.11544430  1
  O  O178  1  0.61091993  0.63180792  0.61394681  1
  O  O179  1  0.38523125  0.38298270  0.36637838  1
  O  O180  1  0.36694703  0.38388464  0.88405701  1
  O  O181  1  0.39201707  0.87072304  0.37173185  1
  O  O182  1  0.38413048  0.87901654  0.88257166  1
  O  O183  1  0.88572830  0.38486774  0.36736619  1
  O  O184  1  0.87053636  0.38380422  0.88264131  1
  O  O185  1  0.88893429  0.87369068  0.37691588  1
  O  O186  1  0.88375565  0.87479224  0.90033399  1
  O  O187  1  0.24815743  0.00488640  0.36991706  1
  O  O188  1  0.24878255  0.00868525  0.87011712  1
  O  O189  1  0.25674382  0.50764199  0.37927860  1
  O  O190  1  0.25944963  0.50631146  0.86968767  1
  O  O191  1  0.75052444  0.00823801  0.37420670  1
  O  O192  1  0.76226853  -0.00654356  0.87352737  1
  O  O193  1  0.75819249  0.49445008  0.36364448  1
  O  O194  1  0.75811341  0.50034399  0.87261292  1
  O  O195  1  0.23275693  0.49283874  0.11691593  1
  O  O196  1  0.24232027  0.49856526  0.62780809  1
  O  O197  1  0.24751519  0.99568064  0.13320872  1
  O  O198  1  0.23952392  0.99984135  0.63562046  1
  O  O199  1  0.74435128  0.49172461  0.13114567  1
  O  O200  1  0.75211472  0.49857756  0.63040731  1
  O  O201  1  0.74201913  0.98855484  0.12198082  1
  O  O202  1  0.74587312  0.99521624  0.63442299  1
  O  O203  1  0.00818010  0.36838248  0.25554246  1
  O  O204  1  0.00781862  0.36650732  0.74424901  1
  O  O205  1  -0.00126719  0.87775240  0.26171855  1
  O  O206  1  -0.00445221  0.85931672  0.75286125  1
  O  O207  1  0.50852156  0.37562004  0.25843525  1
  O  O208  1  0.51393384  0.37830307  0.74929998  1
  O  O209  1  0.49680085  0.86101639  0.25418249  1
  O  O210  1  0.51157283  0.87708609  0.75905641  1
  O  O211  1  0.49409652  0.12361811  0.24364515  1
  O  O212  1  0.49463443  0.12030487  0.74711331  1
  O  O213  1  0.49300083  0.63196675  0.24365608  1
  O  O214  1  0.49634317  0.62379607  0.73947615  1
  O  O215  1  0.98954257  0.13365855  0.25802429  1
  O  O216  1  1.00457750  0.13724759  0.74048504  1
  O  O217  1  0.99094739  0.62942620  0.23736142  1
  O  O218  1  0.98985297  0.63467657  0.74177570  1
  O  O219  1  0.36983954  0.25747281  0.00551407  1
  O  O220  1  0.42513501  0.26598296  0.52139940  1
  O  O221  1  0.37155491  0.76138360  0.00123164  1
  O  O222  1  0.36039074  0.74584410  0.50563312  1
  O  O223  1  0.86828032  0.25485851  0.00510531  1
  O  O224  1  0.86712079  0.24498889  0.51422433  1
  O  O225  1  0.86264720  0.74073723  -0.00911610  1
  O  O226  1  0.86847161  0.74622865  0.50685586  1
  O  O227  1  0.11456576  0.23480584  0.50622805  1
  O  O228  1  0.13309040  0.25351373  1.00020439  1
  O  O229  1  0.13727007  0.74724791  0.49357547  1
  O  O230  1  0.13452169  0.74589961  0.99089006  1
  O  O231  1  0.63060663  0.23964566  0.49459883  1
  O  O232  1  0.63770897  0.25624695  0.99101021  1
  O  O233  1  0.63239797  0.74291580  0.49271639  1
  O  O234  1  0.63023759  0.73777486  0.99655796  1
  O  O235  1  0.49587874  0.24089117  0.12509743  1
  O  O236  1  0.52312348  0.22841445  0.64315264  1
  O  O237  1  0.49891240  0.74415193  0.13124708  1
  O  O238  1  0.49196357  0.74274132  0.62229869  1
  O  O239  1  0.98762003  0.25451525  0.13228274  1
  O  O240  1  0.98666706  0.24468724  0.63113027  1
  O  O241  1  0.97615354  0.77208923  0.08086582  1
  O  O242  1  0.99621609  0.74531766  0.63045739  1
  O  O243  1  0.00121875  0.25807957  0.36819446  1
  O  O244  1  -0.00369572  0.24693510  0.86262952  1
  O  O245  1  0.01255136  0.75702231  0.37862333  1
  O  O246  1  0.01210769  0.74868154  0.86710894  1
  O  O247  1  0.50836738  0.25931165  0.37180163  1
  O  O248  1  0.51207920  0.25006212  0.87812966  1
  O  O249  1  0.50484082  0.75663847  0.36841237  1
  O  O250  1  0.50191106  0.76257302  0.87281365  1
  O  O251  1  0.23205165  0.12103756  0.50698132  1
  O  O252  1  0.25242972  0.13892989  0.99800113  1
  O  O253  1  0.25154014  0.63527677  0.48524838  1
  O  O254  1  0.24658302  0.63199879  0.99406095  1
  O  O255  1  0.74229978  0.12849413  0.49418416  1
  O  O256  1  0.75171205  0.13942216  1.00600545  1
  O  O257  1  0.74110428  0.63649896  0.50428881  1
  O  O258  1  0.73887985  0.63146237  1.00579560  1
  O  O259  1  0.25835362  0.36662797  0.00570920  1
  O  O260  1  0.24246951  0.37674988  0.51419559  1
  O  O261  1  0.25922709  0.87351155  0.00568178  1
  O  O262  1  0.24648696  0.86162695  0.50021627  1
  O  O263  1  0.76079005  0.36957162  0.00705989  1
  O  O264  1  0.74448910  0.35978074  0.49332680  1
  O  O265  1  0.75358431  0.86006796  0.00952819  1
  O  O266  1  0.75301027  0.86214397  0.50239305  1
  O  O267  1  0.11682722  0.49300186  0.23981062  1
  O  O268  1  0.12774375  0.49565549  0.74345519  1
  O  O269  1  0.13694613  1.00622682  0.24573565  1
  O  O270  1  0.13079625  1.00496278  0.74384351  1
  O  O271  1  0.63304299  0.49678958  0.24685885  1
  O  O272  1  0.63613258  0.48927614  0.74838514  1
  O  O273  1  0.62957898  1.00087499  0.23664001  1
  O  O274  1  0.63516481  0.99310569  0.74718883  1
  O  O275  1  0.36633175  0.00699502  0.25695076  1
  O  O276  1  0.36244723  0.00446841  0.75253705  1
  O  O277  1  0.37927442  0.51176112  0.26071817  1
  O  O278  1  0.37032757  0.50446562  0.75593297  1
  O  O279  1  0.87306136  0.00849046  0.25192426  1
  O  O280  1  0.86778853  -0.01362258  0.76952111  1
  O  O281  1  0.86945056  0.50434999  0.25564329  1
  O  O282  1  0.86346443  0.50419026  0.75361133  1
  O  O283  1  0.11605859  0.37597726  0.36709739  1
  O  O284  1  0.12813802  0.37641674  0.86206953  1
  O  O285  1  0.11371797  0.86300475  0.37768834  1
  O  O286  1  0.12507086  0.86462712  0.87922745  1
  O  O287  1  0.61985805  0.37102213  0.36591870  1
  O  O288  1  0.63111777  0.35960007  0.86360382  1
  O  O289  1  0.61535793  0.86015130  0.37447480  1
  O  O290  1  0.61937347  0.87370973  0.87002293  1
  O  O291  1  0.38575986  0.12759803  0.13594753  1
  O  O292  1  0.38671695  0.12809052  0.62562626  1
  O  O293  1  0.37851230  0.62366446  0.13268268  1
  O  O294  1  0.38301728  0.63349267  0.62679993  1
  O  O295  1  0.86968637  0.13454257  0.13570226  1
  O  O296  1  0.88519820  0.12604383  0.62513965  1
  O  O297  1  0.87913668  0.61709995  0.13849505  1
  O  O298  1  0.88016485  0.63409156  0.63456946  1
  O  O299  1  0.25608445  0.25734411  0.11945624  1
  O  O300  1  0.24587051  0.26349329  0.62595509  1
  O  O301  1  0.25092403  0.75900939  0.11947880  1
  O  O302  1  0.25378634  0.75107346  0.61284821  1
  O  O303  1  0.75747083  0.25503423  0.11672947  1
  O  O304  1  0.76372239  0.24632279  0.61960830  1
  O  O305  1  0.74527302  0.75884817  0.11608102  1
  O  O306  1  0.75858574  0.75049637  0.61859158  1
  O  O307  1  0.24274222  0.24255422  0.37415061  1
  O  O308  1  0.24711712  0.24631078  0.88345164  1
  O  O309  1  0.23945336  0.74736153  0.38099690  1
  O  O310  1  0.24632094  0.74655652  0.87734323  1
  O  O311  1  0.74795541  0.23879890  0.38138591  1
  O  O312  1  0.74887540  0.25196877  0.88928123  1
  O  O313  1  0.74250460  0.75306086  0.38134917  1
  O  O314  1  0.74453263  0.75218907  0.88454263  1
  O  O315  1  0.00053212  0.11698320  0.00063269  1
  O  O316  1  0.00453856  0.11637193  0.50919945  1
  O  O317  1  0.00661324  0.61641000  0.00325432  1
  O  O318  1  -0.00543766  0.62555932  0.51490284  1
  O  O319  1  0.49356832  0.11297466  0.01012609  1
  O  O320  1  0.51684354  0.11806214  0.50778585  1
  O  O321  1  0.50392222  0.61807790  0.00678869  1
  O  O322  1  0.50519090  0.61927209  0.50261413  1
  O  O323  1  0.51750950  0.39349768  0.48430698  1
  O  O324  1  0.48686119  0.37980612  1.00545801  1
  O  O325  1  0.50501346  0.87211418  0.48747750  1
  O  O326  1  0.49504950  0.87943228  0.99570926  1
  O  O327  1  1.00404561  0.37554912  0.48834924  1
  O  O328  1  0.98606043  0.38097618  1.00077211  1
  O  O329  1  0.99869655  0.88187489  0.49320648  1
  O  O330  1  1.00172926  0.89244823  0.99600342  1
  O  O331  1  0.49188087  0.49570588  0.37817954  1
  O  O332  1  0.48608078  0.50319387  0.88039860  1
  O  O333  1  0.50567446  0.98010178  0.37339549  1
  O  O334  1  0.50235898  0.99138349  0.88377627  1
  O  O335  1  0.99297998  0.49281714  0.37591334  1
  O  O336  1  0.99047225  0.50635853  0.88496431  1
  O  O337  1  1.00205771  0.98796850  0.38248790  1
  O  O338  1  0.99064914  1.00250106  0.88076682  1
  O  O339  1  0.01055108  -0.00343622  0.11875409  1
  O  O340  1  0.00232563  0.00485585  0.62295963  1
  O  O341  1  0.01056628  0.49480696  0.11097139  1
  O  O342  1  0.00561760  0.50861414  0.62549167  1
  O  O343  1  0.50642095  0.00283303  0.12122489  1
  O  O344  1  0.51290940  0.00644253  0.62846148  1
  O  O345  1  0.50518631  0.50363424  0.11935673  1
  O  O346  1  0.49225097  0.50893308  0.61126549  1
  O  O347  1  0.23456803  0.37137190  0.24463994  1
  O  O348  1  0.23958425  0.38347423  0.74280989  1
  O  O349  1  0.25820862  0.88423488  0.24308186  1
  O  O350  1  0.25046057  0.88718236  0.75033641  1
  O  O351  1  0.74529867  0.38021611  0.24398288  1
  O  O352  1  0.74266560  0.38925655  0.74736886  1
  O  O353  1  0.75912855  0.87383797  0.23220990  1
  O  O354  1  0.74123708  0.87841367  0.75228002  1
  O  O355  1  0.26151509  0.11711546  0.25152091  1
  O  O356  1  0.24740211  0.11974789  0.75842002  1
  O  O357  1  0.25901713  0.63026257  0.26220949  1
  O  O358  1  0.25665879  0.61862883  0.75291214  1
  O  O359  1  0.76105882  0.12474440  0.25918986  1
  O  O360  1  0.74971307  0.11198846  0.74720616  1
  O  O361  1  0.75717413  0.61274236  0.24316652  1
  O  O362  1  0.75445870  0.60979855  0.74450195  1
  O  O363  1  0.37993105  0.12574923  0.36658249  1
  O  O364  1  0.36061277  0.12415773  0.87638785  1
  O  O365  1  0.36730894  0.61869151  0.36901663  1
  O  O366  1  0.37042699  0.61956956  0.86879543  1
  O  O367  1  0.86828659  0.12311870  0.36998657  1
  O  O368  1  0.87117241  0.10907289  0.87598353  1
  O  O369  1  0.88332644  0.61465027  0.35799634  1
  O  O370  1  0.87673371  0.61669676  0.86035392  1
  O  O371  1  0.12783926  0.38296531  0.13154960  1
  O  O372  1  0.13135189  0.38444661  0.63377992  1
  O  O373  1  0.14190989  0.88934613  0.12198495  1
  O  O374  1  0.12449794  0.88906322  0.62187031  1
  O  O375  1  0.62907579  0.37870003  0.13192128  1
  O  O376  1  0.61944402  0.36296285  0.63713264  1
  O  O377  1  0.63844709  0.87929606  0.12196211  1
  O  O378  1  0.62644668  0.88240478  0.63416664  1
  O  O379  1  0.11205710  0.25589443  0.24688146  1
  O  O380  1  0.11337993  0.26000949  0.75060597  1
  O  O381  1  0.12813013  0.75176775  0.26091938  1
  O  O382  1  0.11784918  0.74428397  0.75817805  1
  O  O383  1  0.62689243  0.25596027  0.25594073  1
  O  O384  1  0.62983937  0.26165791  0.75992833  1
  O  O385  1  0.61630754  0.74073519  0.25650726  1
  O  O386  1  0.62305566  0.75771821  0.74977752  1
  O  O387  1  0.37823650  0.24241536  0.24320890  1
  O  O388  1  0.37735828  0.24952957  0.74101930  1
  O  O389  1  0.38309262  0.73759500  0.24898327  1
  O  O390  1  0.37734019  0.74179931  0.74092527  1
  O  O391  1  0.88331073  0.24620648  0.24351908  1
  O  O392  1  0.87836594  0.25766140  0.73725193  1
  O  O393  1  0.87002530  0.73289714  0.25010931  1
  O  O394  1  0.87719984  0.74364842  0.74615404  1
  O  O395  1  0.38421211  0.50509289  0.48587067  1
  O  O396  1  0.37711076  0.49295063  0.99278696  1
  O  O397  1  0.38011390  1.00182050  0.49679600  1
  O  O398  1  0.38474588  0.99008404  1.00064479  1
  O  O399  1  0.87437150  0.50691472  0.48400244  1
  O  O400  1  0.87840520  0.49450505  0.99256782  1
  O  O401  1  0.88663609  0.99804940  0.49905518  1
  O  O402  1  0.88204913  1.00167549  0.99291851  1
  O  O403  1  0.11756005  0.00637566  0.00919008  1
  O  O404  1  0.11346628  0.00672493  0.50864789  1
  O  O405  1  0.11724023  0.50387862  0.00068168  1
  O  O406  1  0.11963019  0.49964948  0.51266124  1
  O  O407  1  0.61486397  -0.00572497  0.01037485  1
  O  O408  1  0.62720832  0.00263905  0.51135189  1
  O  O409  1  0.62080947  0.50134457  0.00281263  1
  O  O410  1  0.61903412  0.51585499  0.49142657  1
  O  O411  1  0.36842641  0.37284364  0.12028891  1
  O  O412  1  0.35416185  0.37990604  0.62821150  1
  O  O413  1  0.36688959  0.87490584  0.11802935  1
  O  O414  1  0.37496139  0.86155456  0.63140387  1
  O  O415  1  0.87016923  0.36782017  0.11929314  1
  O  O416  1  0.87821188  0.36661785  0.62000712  1
  O  O417  1  0.86285143  0.88125716  0.11144074  1
  O  O418  1  0.87575029  0.86103839  0.62354149  1
  O  O419  1  0.12039509  0.12536842  0.39541224  1
  O  O420  1  0.13573836  0.13114646  0.88220470  1
  O  O421  1  0.12903988  0.63677010  0.36916447  1
  O  O422  1  0.13212314  0.63158108  0.87993201  1
  O  O423  1  0.63177947  0.12691341  0.38130903  1
  O  O424  1  0.62960602  0.14750837  0.86804669  1
  O  O425  1  0.61864838  0.63888158  0.38328879  1
  O  O426  1  0.61595593  0.62154023  0.88657100  1
