# generated using pymatgen
data_V85Zn86O256
_symmetry_space_group_name_H-M   'P 1'
_cell_length_a   16.93499336
_cell_length_b   16.93682321
_cell_length_c   16.93452764
_cell_angle_alpha   89.99244448
_cell_angle_beta   89.92802362
_cell_angle_gamma   90.02436193
_symmetry_Int_Tables_number   1
_chemical_formula_structural   V85Zn86O256
_chemical_formula_sum   'V85 Zn86 O256'
_cell_volume   4857.24138395
_cell_formula_units_Z   1
loop_
 _symmetry_equiv_pos_site_id
 _symmetry_equiv_pos_as_xyz
  1  'x, y, z'
loop_
 _atom_site_type_symbol
 _atom_site_label
 _atom_site_symmetry_multiplicity
 _atom_site_fract_x
 _atom_site_fract_y
 _atom_site_fract_z
 _atom_site_occupancy
  V  V0  1  0.74307511  0.37530803  0.13266263  1
  V  V1  1  0.74822969  0.37448751  0.62481837  1
  V  V2  1  0.13407329  0.62280698  -0.00367944  1
  V  V3  1  0.87453283  0.75128333  0.62228703  1
  V  V4  1  -0.01144723  -0.00497052  0.00220209  1
  V  V5  1  0.61926564  0.75084605  0.37194016  1
  V  V6  1  0.12543614  0.24888865  0.37331277  1
  V  V7  1  0.38260152  0.13245114  0.75493676  1
  V  V8  1  0.12201268  0.87025792  0.24663571  1
  V  V9  1  0.74641520  0.62242536  0.88220901  1
  V  V10  1  0.24705785  0.25842851  0.00636560  1
  V  V11  1  0.39395706  0.63067394  0.75014356  1
  V  V12  1  0.74798021  0.50003824  0.75119165  1
  V  V13  1  0.61931786  0.62456095  0.50389781  1
  V  V14  1  0.61994402  0.36387544  0.75679565  1
  V  V15  1  0.38631580  0.74811745  0.62547063  1
  V  V16  1  0.62524164  0.01178191  0.12665402  1
  V  V17  1  0.61867561  0.74694258  0.87374378  1
  V  V18  1  -0.00850559  0.87117070  0.87953279  1
  V  V19  1  0.62066508  0.13205324  -0.01008677  1
  V  V20  1  0.87881638  0.24887369  0.63810525  1
  V  V21  1  -0.00039095  0.62284821  0.62505779  1
  V  V22  1  0.49299301  0.49952953  0.49784132  1
  V  V23  1  0.13107011  0.49607107  0.12359215  1
  V  V24  1  0.13217749  0.74437153  0.87362578  1
  V  V25  1  0.75192605  0.75200270  0.50048369  1
  V  V26  1  0.12751983  0.00109114  0.11481914  1
  V  V27  1  0.37320387  0.87324756  -0.00002668  1
  V  V28  1  0.87622359  0.75512944  0.11895135  1
  V  V29  1  0.74832651  0.62635444  0.37273387  1
  V  V30  1  0.37424970  0.50439946  0.87781930  1
  V  V31  1  -0.00359052  0.12625698  0.64068873  1
  V  V32  1  0.75967044  0.13177796  0.87093033  1
  V  V33  1  0.86475721  0.10822617  0.25934507  1
  V  V34  1  -0.00093357  0.87256280  0.37561684  1
  V  V35  1  0.11981876  0.12571130  0.50051115  1
  V  V36  1  0.50454739  0.13751402  0.63140907  1
  V  V37  1  0.25254935  -0.00327819  0.24867317  1
  V  V38  1  0.87520245  0.63583388  0.24877772  1
  V  V39  1  0.00229715  0.12294535  0.12198665  1
  V  V40  1  0.50043502  0.00037112  0.00296778  1
  V  V41  1  0.00098512  0.49884222  -0.00053333  1
  V  V42  1  0.13402543  0.36820064  0.74894497  1
  V  V43  1  0.61926618  0.87255097  0.75079673  1
  V  V44  1  0.87553327  0.24698765  0.12877948  1
  V  V45  1  0.25447503  0.49817826  0.25409645  1
  V  V46  1  0.12295560  -0.00321721  0.62618453  1
  V  V47  1  0.12542020  0.62513033  0.50011289  1
  V  V48  1  -0.00013424  0.74901411  0.75029916  1
  V  V49  1  0.62062069  0.88238449  0.24557223  1
  V  V50  1  0.75457890  0.87746247  0.62720619  1
  V  V51  1  0.50405927  0.62618624  0.11544926  1
  V  V52  1  0.25453222  0.74988862  0.50832428  1
  V  V53  1  -0.00116333  0.36972120  0.86702499  1
  V  V54  1  0.12870220  0.37285253  0.24387598  1
  V  V55  1  0.37863831  0.62340187  0.25648834  1
  V  V56  1  0.87323368  0.37317903  0.49877381  1
  V  V57  1  0.62798062  0.25535054  0.37112669  1
  V  V58  1  0.12782549  0.87366519  0.74743112  1
  V  V59  1  0.75145622  0.24249361  0.49669990  1
  V  V60  1  0.25038191  0.51161676  0.75235409  1
  V  V61  1  0.49298274  0.88446256  0.38606113  1
  V  V62  1  0.12169010  0.24276990  0.87731696  1
  V  V63  1  0.87451146  0.50185134  0.37175820  1
  V  V64  1  0.49703071  0.36201091  0.87607490  1
  V  V65  1  0.00019886  0.37521998  0.37222496  1
  V  V66  1  -0.00519806  -0.00355737  0.49761640  1
  V  V67  1  0.25066241  0.12474897  0.37122847  1
  V  V68  1  0.25404188  -0.00289432  0.75603027  1
  V  V69  1  0.74533420  0.75154574  -0.00073641  1
  V  V70  1  0.24958310  0.12425566  0.88531207  1
  V  V71  1  0.49261249  0.37968803  0.36786171  1
  V  V72  1  0.12591672  0.74742194  0.37204955  1
  V  V73  1  0.50406627  0.24412901  0.24724270  1
  V  V74  1  0.37496151  0.25217691  0.12866344  1
  V  V75  1  0.87514877  0.37338573  0.00230710  1
  V  V76  1  -0.00091189  0.49966506  0.49998846  1
  V  V77  1  0.61860240  0.12419770  0.49487701  1
  V  V78  1  0.13226074  0.49250979  0.62361554  1
  V  V79  1  0.61774459  0.50273656  0.62766189  1
  V  V80  1  0.74904014  0.88065697  0.11903924  1
  V  V81  1  0.62061598  0.00044801  0.62309596  1
  V  V82  1  0.30667151  0.93365657  0.56875036  1
  V  V83  1  0.00140575  0.62876339  0.12840176  1
  V  V84  1  0.87371092  0.62304848  0.75126209  1
  Zn  Zn85  1  0.74482756  0.25163898  -0.00067659  1
  Zn  Zn86  1  0.49541981  0.75267002  0.24761596  1
  Zn  Zn87  1  0.74569219  0.49728629  0.25182739  1
  Zn  Zn88  1  0.37988014  0.12089889  0.24784270  1
  Zn  Zn89  1  0.36764743  0.38193821  0.50560440  1
  Zn  Zn90  1  0.49922884  0.87272509  0.87351091  1
  Zn  Zn91  1  0.25645003  0.62319981  0.37903222  1
  Zn  Zn92  1  0.37158625  0.74882554  0.12516253  1
  Zn  Zn93  1  0.87470182  0.00097455  0.86987762  1
  Zn  Zn94  1  0.50977793  0.50177737  -0.00340384  1
  Zn  Zn95  1  0.37937836  -0.00065375  0.87797843  1
  Zn  Zn96  1  0.37468103  -0.00029716  0.38923280  1
  Zn  Zn97  1  0.24420790  0.26748573  0.51310323  1
  Zn  Zn98  1  0.00052056  0.24390765  0.24987238  1
  Zn  Zn99  1  0.25114383  0.87118026  0.12378321  1
  Zn  Zn100  1  0.25255695  0.74678773  -0.00122162  1
  Zn  Zn101  1  0.36901442  0.26439634  0.63170203  1
  Zn  Zn102  1  0.62375520  0.50294642  0.12612786  1
  Zn  Zn103  1  0.83769152  0.92568613  0.44779673  1
  Zn  Zn104  1  0.37403922  0.38111860  0.00842229  1
  Zn  Zn105  1  0.75513502  0.00520223  0.75089486  1
  Zn  Zn106  1  0.87478934  0.49799942  0.87546620  1
  Zn  Zn107  1  0.18833019  0.18538518  0.18432922  1
  Zn  Zn108  1  0.18627754  0.18206165  0.69445932  1
  Zn  Zn109  1  0.19221482  0.68619210  0.18609142  1
  Zn  Zn110  1  0.19027922  0.68794707  0.68345421  1
  Zn  Zn111  1  0.68979569  0.18823318  0.18904096  1
  Zn  Zn112  1  0.69051331  0.18831597  0.68671721  1
  Zn  Zn113  1  0.68635903  0.68996371  0.18891943  1
  Zn  Zn114  1  0.68436337  0.68704243  0.69025744  1
  Zn  Zn115  1  0.31263326  0.31320865  0.31364913  1
  Zn  Zn116  1  0.31030675  0.31399906  0.81524645  1
  Zn  Zn117  1  0.31177480  0.81085124  0.31495835  1
  Zn  Zn118  1  0.31558429  0.81200588  0.81305957  1
  Zn  Zn119  1  0.81461559  0.30594557  0.31166720  1
  Zn  Zn120  1  0.80722712  0.31210265  0.81613432  1
  Zn  Zn121  1  0.79742518  0.83586802  0.31506566  1
  Zn  Zn122  1  0.80968294  0.81172842  0.81037855  1
  Zn  Zn123  1  0.18889754  0.43752060  0.43368600  1
  Zn  Zn124  1  0.18929944  0.43585708  0.93304070  1
  Zn  Zn125  1  0.18082138  0.94098443  0.43186963  1
  Zn  Zn126  1  0.18473356  0.93343528  0.93581832  1
  Zn  Zn127  1  0.68456601  0.43597817  0.43551205  1
  Zn  Zn128  1  0.68426371  0.43878244  0.94291836  1
  Zn  Zn129  1  0.67461079  0.94199252  0.43287757  1
  Zn  Zn130  1  0.68901595  0.94080386  0.93711389  1
  Zn  Zn131  1  0.31629498  0.06563790  0.06529032  1
  Zn  Zn132  1  0.31696657  0.12566742  0.55759540  1
  Zn  Zn133  1  0.31662403  0.56214826  0.06783324  1
  Zn  Zn134  1  0.31360649  0.56503278  0.56782180  1
  Zn  Zn135  1  0.80936165  0.06511941  0.06132923  1
  Zn  Zn136  1  0.81113798  0.06787381  0.56978926  1
  Zn  Zn137  1  0.81200645  0.56081943  0.06161410  1
  Zn  Zn138  1  0.80852793  0.56256017  0.56157570  1
  Zn  Zn139  1  0.43779712  0.43752288  0.18662993  1
  Zn  Zn140  1  0.43833138  0.43864457  0.68985371  1
  Zn  Zn141  1  0.43900094  0.93761939  0.18373771  1
  Zn  Zn142  1  0.44291490  0.94575611  0.69102542  1
  Zn  Zn143  1  0.93788234  0.44033371  0.18837713  1
  Zn  Zn144  1  0.93864405  0.43496945  0.68792177  1
  Zn  Zn145  1  0.93816768  0.93353430  0.18848292  1
  Zn  Zn146  1  0.93596109  0.93826465  0.68937051  1
  Zn  Zn147  1  0.05818852  0.05794414  0.30695715  1
  Zn  Zn148  1  0.06344304  0.05870632  0.81840943  1
  Zn  Zn149  1  0.06355849  0.56398904  0.30991904  1
  Zn  Zn150  1  0.06233945  0.55871683  0.81248922  1
  Zn  Zn151  1  0.56421464  0.06459065  0.31426263  1
  Zn  Zn152  1  0.56617780  0.05894341  0.81403812  1
  Zn  Zn153  1  0.56524173  0.55864243  0.30568236  1
  Zn  Zn154  1  0.56325760  0.55864394  0.81784738  1
  Zn  Zn155  1  0.43854193  0.19066257  0.43680002  1
  Zn  Zn156  1  0.43424017  0.18632217  0.94435675  1
  Zn  Zn157  1  0.43806027  0.68904236  0.43849172  1
  Zn  Zn158  1  0.43441849  0.68771079  0.93489159  1
  Zn  Zn159  1  0.93690743  0.18549535  0.43687598  1
  Zn  Zn160  1  0.93970057  0.18699475  0.94262387  1
  Zn  Zn161  1  0.93841159  0.69063805  0.43527523  1
  Zn  Zn162  1  0.93769167  0.68656350  0.94013330  1
  Zn  Zn163  1  0.06182399  0.31026164  0.05979411  1
  Zn  Zn164  1  0.06017821  0.31096287  0.56310161  1
  Zn  Zn165  1  0.06377482  0.81081376  0.06121991  1
  Zn  Zn166  1  0.06362463  0.81245072  0.56173063  1
  Zn  Zn167  1  0.55761708  0.31315105  0.06209971  1
  Zn  Zn168  1  0.55990579  0.31613227  0.56098224  1
  Zn  Zn169  1  0.56032621  0.81111363  0.06131025  1
  Zn  Zn170  1  0.56418094  0.81525857  0.56170631  1
  O  O171  1  0.11571508  0.11283596  0.13089033  1
  O  O172  1  0.11653978  0.11784566  0.61683996  1
  O  O173  1  0.11756675  0.61864962  0.11919667  1
  O  O174  1  0.11885102  0.61690440  0.61925694  1
  O  O175  1  0.63326796  0.11558029  0.11501555  1
  O  O176  1  0.62269221  0.11963678  0.62115011  1
  O  O177  1  0.60697285  0.63008034  0.13102385  1
  O  O178  1  0.63181284  0.61618988  0.61561574  1
  O  O179  1  0.38969690  0.36952484  0.38182687  1
  O  O180  1  0.38657040  0.38297999  0.87083504  1
  O  O181  1  0.38822516  0.87756506  0.37256181  1
  O  O182  1  0.37947045  0.87767415  0.88219274  1
  O  O183  1  0.88115680  0.37904546  0.37840010  1
  O  O184  1  0.88214667  0.37311331  0.88269845  1
  O  O185  1  0.89756354  0.85111624  0.37369937  1
  O  O186  1  0.88864451  0.86890388  0.87223040  1
  O  O187  1  0.25125655  0.00490292  0.36564487  1
  O  O188  1  0.24840901  0.00748245  0.87128185  1
  O  O189  1  0.24066764  0.50654587  0.35811185  1
  O  O190  1  0.26365465  0.49479285  0.86588572  1
  O  O191  1  0.76310513  -0.06268901  0.36688130  1
  O  O192  1  0.75315929  0.01464652  0.87694131  1
  O  O193  1  0.75705153  0.50722130  0.37650351  1
  O  O194  1  0.75123035  0.50646004  0.87014069  1
  O  O195  1  0.23686872  0.50418721  0.13420934  1
  O  O196  1  0.23707883  0.50370976  0.63193400  1
  O  O197  1  0.24222719  0.99920599  0.12984939  1
  O  O198  1  0.24586966  0.99431863  0.63177271  1
  O  O199  1  0.75697878  0.48321318  0.12563420  1
  O  O200  1  0.74098864  0.49305156  0.62939455  1
  O  O201  1  0.74062671  0.99020556  0.11628262  1
  O  O202  1  0.74274751  0.99218042  0.62532322  1
  O  O203  1  0.01023518  0.37463116  0.25597391  1
  O  O204  1  0.00954110  0.38046030  0.76282995  1
  O  O205  1  0.01460223  0.87821862  0.25735825  1
  O  O206  1  0.00799332  0.86648874  0.75642402  1
  O  O207  1  0.49592930  0.36801259  0.26321237  1
  O  O208  1  0.51217797  0.38085876  0.76187967  1
  O  O209  1  0.50784365  0.87320278  0.25344130  1
  O  O210  1  0.51479264  0.87919967  0.75180156  1
  O  O211  1  0.49750400  0.13980758  0.25653638  1
  O  O212  1  0.49473428  0.12069432  0.74711748  1
  O  O213  1  0.48853555  0.62591112  0.24613990  1
  O  O214  1  0.49211647  0.62409402  0.74909215  1
  O  O215  1  0.99183173  0.12238650  0.23656069  1
  O  O216  1  1.00690460  0.12011518  0.73941709  1
  O  O217  1  0.99364144  0.62211234  0.23632408  1
  O  O218  1  0.99472641  0.62849471  0.74469257  1
  O  O219  1  0.36810229  0.25283828  0.01213581  1
  O  O220  1  0.36323350  0.23133116  0.50984216  1
  O  O221  1  0.37177472  0.75901562  -0.00170806  1
  O  O222  1  0.36710800  0.74385738  0.51032556  1
  O  O223  1  0.87562748  0.25661557  0.01274418  1
  O  O224  1  0.86783331  0.25479442  0.50312424  1
  O  O225  1  0.86417511  0.74495761  0.01089571  1
  O  O226  1  0.85930629  0.74082008  0.50457434  1
  O  O227  1  0.12464005  0.24199672  0.49210156  1
  O  O228  1  0.13373976  0.25307067  0.99045896  1
  O  O229  1  0.13357090  0.74387636  0.49800045  1
  O  O230  1  0.12465809  0.73960429  0.99076268  1
  O  O231  1  0.63237584  0.24509572  0.49530592  1
  O  O232  1  0.62301784  0.23445195  1.00612201  1
  O  O233  1  0.63239305  0.74394880  0.49608802  1
  O  O234  1  0.63735716  0.75278741  0.99166097  1
  O  O235  1  0.48959284  0.25501499  0.13525176  1
  O  O236  1  0.50232856  0.23968516  0.62708880  1
  O  O237  1  0.49539734  0.73946551  0.12692574  1
  O  O238  1  0.48572531  0.75726935  0.62014535  1
  O  O239  1  0.99513406  0.23954450  0.12448308  1
  O  O240  1  0.99084942  0.23859517  0.62003439  1
  O  O241  1  0.98997136  0.74124059  0.11807298  1
  O  O242  1  0.99441389  0.74283937  0.62834244  1
  O  O243  1  0.01076276  0.25482301  0.37353513  1
  O  O244  1  0.00927124  0.25672381  0.88207977  1
  O  O245  1  0.01922015  0.75430254  0.38405126  1
  O  O246  1  0.00769713  0.75367379  0.87076628  1
  O  O247  1  0.50613274  0.25969096  0.36925836  1
  O  O248  1  0.49224588  0.26331988  0.87629521  1
  O  O249  1  0.50821506  0.75899125  0.37561412  1
  O  O250  1  0.51551798  0.75076390  0.88082656  1
  O  O251  1  0.22995519  0.11572613  0.48198281  1
  O  O252  1  0.25475480  0.13291000  0.98944064  1
  O  O253  1  0.24414245  0.63229916  0.50006779  1
  O  O254  1  0.23659951  0.62126314  1.00310340  1
  O  O255  1  0.74141567  0.13747600  0.50594428  1
  O  O256  1  0.73877377  0.12775485  0.99137989  1
  O  O257  1  0.73962027  0.63080499  0.49282293  1
  O  O258  1  0.75556089  0.63074569  0.98796792  1
  O  O259  1  0.25436011  0.36199031  -0.00719920  1
  O  O260  1  0.25332393  0.37766375  0.49800433  1
  O  O261  1  0.26236880  0.87707056  -0.00122052  1
  O  O262  1  0.24907727  0.87489966  0.50492856  1
  O  O263  1  0.76302473  0.37220355  0.00584002  1
  O  O264  1  0.75326759  0.36738277  0.50660496  1
  O  O265  1  0.74689139  0.86621064  0.00890564  1
  O  O266  1  0.74799609  0.86627886  0.51435756  1
  O  O267  1  0.12884087  0.49319745  0.24134982  1
  O  O268  1  0.13175841  0.49338778  0.74383586  1
  O  O269  1  0.13394575  0.99125201  0.24159137  1
  O  O270  1  0.13239177  0.99246969  0.74678074  1
  O  O271  1  0.63323971  0.50102795  0.24060634  1
  O  O272  1  0.62999406  0.49559071  0.74322623  1
  O  O273  1  0.61980415  0.99503230  0.24005128  1
  O  O274  1  0.63338091  0.99115919  0.74272555  1
  O  O275  1  0.36089095  0.00067777  0.24473703  1
  O  O276  1  0.36796740  0.00642306  0.75600556  1
  O  O277  1  0.36605238  0.50939409  0.24587337  1
  O  O278  1  0.36955217  0.51333687  0.75292994  1
  O  O279  1  0.87654804  0.00900033  0.24681910  1
  O  O280  1  0.86866931  -0.00497577  0.75535143  1
  O  O281  1  0.87282605  0.51234597  0.25609855  1
  O  O282  1  0.86671833  0.50405091  0.75029596  1
  O  O283  1  0.11866439  0.36724536  0.36714897  1
  O  O284  1  0.11831336  0.36663653  0.86780203  1
  O  O285  1  0.11980544  0.86691321  0.36746724  1
  O  O286  1  0.11601402  0.86675076  0.86487944  1
  O  O287  1  0.61374662  0.36200180  0.38069058  1
  O  O288  1  0.61441985  0.37801108  0.86522493  1
  O  O289  1  0.61017495  0.86962045  0.36522174  1
  O  O290  1  0.62886903  0.86709982  0.86629034  1
  O  O291  1  0.37016299  0.14326361  0.13036037  1
  O  O292  1  0.39420005  0.11543495  0.64056173  1
  O  O293  1  0.38399248  0.62711190  0.13625961  1
  O  O294  1  0.37292427  0.63400910  0.64068076  1
  O  O295  1  0.88041293  0.13103579  0.12928225  1
  O  O296  1  0.88389198  0.13644547  0.62479676  1
  O  O297  1  0.88152236  0.62979615  0.12959719  1
  O  O298  1  0.87802982  0.62947637  0.63106931  1
  O  O299  1  0.25573507  0.24873968  0.11665499  1
  O  O300  1  0.25833015  0.21647189  0.61694127  1
  O  O301  1  0.25147446  0.75288899  0.11726176  1
  O  O302  1  0.25651892  0.75245250  0.61483977  1
  O  O303  1  0.75891746  0.25943846  0.12248022  1
  O  O304  1  0.75781572  0.25610768  0.61791570  1
  O  O305  1  0.75416289  0.75295656  0.11477281  1
  O  O306  1  0.75317577  0.75459916  0.61851913  1
  O  O307  1  0.23734164  0.24207983  0.37273873  1
  O  O308  1  0.24328650  0.24296550  0.88249983  1
  O  O309  1  0.24231834  0.75081743  0.38956342  1
  O  O310  1  0.23513646  0.75293813  0.87550751  1
  O  O311  1  0.74200380  0.25717933  0.38510939  1
  O  O312  1  0.75043652  0.23769402  0.88118033  1
  O  O313  1  0.73733763  0.75006752  0.38244526  1
  O  O314  1  0.74555952  0.74307118  0.88171405  1
  O  O315  1  -0.00235332  0.11350298  0.01319178  1
  O  O316  1  0.00833749  0.11745473  0.50219459  1
  O  O317  1  0.00657337  0.61778463  0.00931695  1
  O  O318  1  0.00418078  0.61897130  0.50527040  1
  O  O319  1  0.51263353  0.11824522  -0.00408047  1
  O  O320  1  0.51308362  0.12968163  0.51046482  1
  O  O321  1  0.49333851  0.62485205  0.01269804  1
  O  O322  1  0.51364299  0.61805399  0.49215529  1
  O  O323  1  0.49885279  0.38371435  0.48941746  1
  O  O324  1  0.49705304  0.37700157  0.98669790  1
  O  O325  1  0.50495622  0.87773081  0.48469484  1
  O  O326  1  0.49008826  0.88143109  0.99913696  1
  O  O327  1  0.99484082  0.38082116  0.49265804  1
  O  O328  1  0.99135674  0.37836132  0.99286545  1
  O  O329  1  1.00587089  0.88422067  0.49214490  1
  O  O330  1  1.00492248  0.88138912  0.99088710  1
  O  O331  1  0.50792219  0.48590275  0.38101973  1
  O  O332  1  0.48820681  0.49441174  0.87653724  1
  O  O333  1  0.49557695  0.98931354  0.37308370  1
  O  O334  1  0.50295686  0.99544933  0.88898900  1
  O  O335  1  0.99489447  0.49631975  0.37936952  1
  O  O336  1  0.99916216  0.48948653  0.88237556  1
  O  O337  1  1.00632924  0.98760157  0.38461455  1
  O  O338  1  1.00038719  0.98984243  0.88498764  1
  O  O339  1  0.00607439  0.00155604  0.11882731  1
  O  O340  1  0.00601300  0.00502751  0.61895631  1
  O  O341  1  0.00986171  0.50643818  0.11932796  1
  O  O342  1  0.00858905  0.50409893  0.62094628  1
  O  O343  1  0.51018069  -0.00079367  0.11311687  1
  O  O344  1  0.51672093  0.00797074  0.62733419  1
  O  O345  1  0.49730679  0.51362326  0.12329085  1
  O  O346  1  0.51314066  0.49806366  0.61635790  1
  O  O347  1  0.23727550  0.38159006  0.25495912  1
  O  O348  1  0.23800090  0.38467433  0.75418390  1
  O  O349  1  0.24041164  0.88085169  0.25061093  1
  O  O350  1  0.24299668  0.88744659  0.75841963  1
  O  O351  1  0.75925976  0.37398154  0.23507637  1
  O  O352  1  0.73835642  0.38162414  0.74875427  1
  O  O353  1  0.72922017  0.86373632  0.22807525  1
  O  O354  1  0.74158449  0.87186803  0.73755012  1
  O  O355  1  0.24586045  0.11651134  0.26006334  1
  O  O356  1  0.25599593  0.11204584  0.76244786  1
  O  O357  1  0.26125037  0.61765621  0.25128540  1
  O  O358  1  0.24787921  0.61359584  0.75050213  1
  O  O359  1  0.76586181  0.12585680  0.24619518  1
  O  O360  1  0.74329677  0.12697700  0.76744038  1
  O  O361  1  0.75811949  0.62660346  0.25689265  1
  O  O362  1  0.75520206  0.61922360  0.75822112  1
  O  O363  1  0.36440799  0.11931377  0.37269587  1
  O  O364  1  0.36837061  0.12196782  0.87188022  1
  O  O365  1  0.37559219  0.62680597  0.36183798  1
  O  O366  1  0.37750107  0.61981733  0.86053171  1
  O  O367  1  0.88098984  0.12668287  0.35826497  1
  O  O368  1  0.86306962  0.12584427  0.88162186  1
  O  O369  1  0.87129589  0.62464543  0.36631421  1
  O  O370  1  0.86880483  0.62325941  0.86727755  1
  O  O371  1  0.11827297  0.38329007  0.13230680  1
  O  O372  1  0.11675168  0.38160176  0.63552451  1
  O  O373  1  0.12591663  0.88048897  0.13189242  1
  O  O374  1  0.11964924  0.87860755  0.63996613  1
  O  O375  1  0.64221147  0.36855746  0.12085947  1
  O  O376  1  0.62758203  0.38190148  0.63537275  1
  O  O377  1  0.62661579  0.88498507  0.12749267  1
  O  O378  1  0.63140906  0.88133036  0.62994566  1
  O  O379  1  0.12320412  0.25655495  0.25452253  1
  O  O380  1  0.13028472  0.25746557  0.76122501  1
  O  O381  1  0.13286320  0.75627094  0.26019314  1
  O  O382  1  0.12106096  0.75389719  0.75376834  1
  O  O383  1  0.61856916  0.24716513  0.25843119  1
  O  O384  1  0.62815759  0.26622951  0.74669333  1
  O  O385  1  0.61977758  0.75669097  0.25922302  1
  O  O386  1  0.63068735  0.75908605  0.76011812  1
  O  O387  1  0.38002152  0.24906750  0.24335645  1
  O  O388  1  0.36689891  0.23538450  0.75086082  1
  O  O389  1  0.37395439  0.73734403  0.24951733  1
  O  O390  1  0.37083564  0.73766754  0.74432918  1
  O  O391  1  0.88057959  0.24555278  0.23840671  1
  O  O392  1  0.87267138  0.26124912  0.73681802  1
  O  O393  1  0.86842369  0.73945622  0.23726061  1
  O  O394  1  0.88026813  0.74227491  0.74358802  1
  O  O395  1  0.39057728  0.50841655  0.50366927  1
  O  O396  1  0.37462823  0.49917568  0.99089462  1
  O  O397  1  0.35611800  1.00113707  0.51235976  1
  O  O398  1  0.38390933  0.99533834  1.00158222  1
  O  O399  1  0.87934376  0.49528668  0.49377853  1
  O  O400  1  0.88281153  0.49069520  0.99900020  1
  O  O401  1  0.88851075  1.00403509  0.50884692  1
  O  O402  1  0.88592429  0.99942038  0.99897638  1
  O  O403  1  0.11811849  -0.00614436  0.01161660  1
  O  O404  1  0.11539492  0.00519718  0.50629282  1
  O  O405  1  0.12214679  0.50255321  0.00467736  1
  O  O406  1  0.11914368  0.50399333  0.50686614  1
  O  O407  1  0.61944072  0.00895240  0.00594219  1
  O  O408  1  0.63124322  0.01249484  0.50741899  1
  O  O409  1  0.62325068  0.49978777  0.01126604  1
  O  O410  1  0.61971404  0.50653476  0.50694870  1
  O  O411  1  0.37473209  0.36100912  0.12593409  1
  O  O412  1  0.38391081  0.37454359  0.61965314  1
  O  O413  1  0.37305857  0.87185798  0.11539435  1
  O  O414  1  0.37178509  0.87667190  0.62520664  1
  O  O415  1  0.87431102  0.36750428  0.11918917  1
  O  O416  1  0.87090929  0.37036299  0.61688307  1
  O  O417  1  0.86440886  0.86475815  0.13115850  1
  O  O418  1  0.86774679  0.86350856  0.62728785  1
  O  O419  1  0.12391173  0.13165163  0.37728584  1
  O  O420  1  0.13236650  0.13482003  0.87184369  1
  O  O421  1  0.12670648  0.63131272  0.38166218  1
  O  O422  1  0.11692808  0.63158030  0.88416334  1
  O  O423  1  0.62067984  0.13771109  0.38477792  1
  O  O424  1  0.63274647  0.12288930  0.88690438  1
  O  O425  1  0.62841281  0.63433558  0.37942439  1
  O  O426  1  0.63588080  0.63302577  0.86783488  1
