# generated using pymatgen
data_V85Zn86O256
_symmetry_space_group_name_H-M   'P 1'
_cell_length_a   16.98167805
_cell_length_b   16.95449848
_cell_length_c   16.97220085
_cell_angle_alpha   89.99434800
_cell_angle_beta   90.01361958
_cell_angle_gamma   89.93235242
_symmetry_Int_Tables_number   1
_chemical_formula_structural   V85Zn86O256
_chemical_formula_sum   'V85 Zn86 O256'
_cell_volume   4886.56180727
_cell_formula_units_Z   1
loop_
 _symmetry_equiv_pos_site_id
 _symmetry_equiv_pos_as_xyz
  1  'x, y, z'
loop_
 _atom_site_type_symbol
 _atom_site_label
 _atom_site_symmetry_multiplicity
 _atom_site_fract_x
 _atom_site_fract_y
 _atom_site_fract_z
 _atom_site_occupancy
  V  V0  1  0.36201116  0.00979585  0.37658137  1
  V  V1  1  0.12722090  0.75475761  0.37641619  1
  V  V2  1  0.49979397  0.87412377  0.87479438  1
  V  V3  1  -0.00183162  0.75262519  0.24976881  1
  V  V4  1  0.11751151  0.62925681  0.50764476  1
  V  V5  1  0.36666206  0.13189079  0.22858815  1
  V  V6  1  0.00470694  0.24245969  0.24969265  1
  V  V7  1  0.74394971  0.49286907  0.25052402  1
  V  V8  1  0.25460133  0.87823293  0.12936107  1
  V  V9  1  0.00039692  0.25200590  0.74447596  1
  V  V10  1  0.50067241  0.62192819  0.62032737  1
  V  V11  1  0.50002442  0.48700450  0.49734975  1
  V  V12  1  0.87151416  0.87258514  -0.00114174  1
  V  V13  1  -0.00566371  0.00188580  0.49775473  1
  V  V14  1  0.62286152  0.88029937  0.25189103  1
  V  V15  1  0.12064914  0.11796025  0.01089292  1
  V  V16  1  -0.00027932  0.50157989  -0.00507937  1
  V  V17  1  0.12373746  0.24830845  0.87490105  1
  V  V18  1  0.50389657  0.63077674  0.12298679  1
  V  V19  1  0.37809365  0.87119372  0.00794395  1
  V  V20  1  0.24421669  0.37451844  0.12735332  1
  V  V21  1  0.74995615  0.62190749  0.37580269  1
  V  V22  1  0.87410436  -0.00175605  0.87622312  1
  V  V23  1  0.50635469  0.36838473  0.87662274  1
  V  V24  1  0.12479888  -0.00259848  0.62988760  1
  V  V25  1  0.87498167  0.12766396  0.74884929  1
  V  V26  1  0.74815514  0.13724180  0.87825844  1
  V  V27  1  0.06885662  0.42272832  0.30792514  1
  V  V28  1  -0.00273490  0.12648066  0.62506865  1
  V  V29  1  0.37491931  0.62967091  0.24491474  1
  V  V30  1  0.50327081  0.00344765  0.00026941  1
  V  V31  1  0.61984239  0.00033384  0.62266814  1
  V  V32  1  0.37373922  0.37874273  0.00341155  1
  V  V33  1  0.87988967  0.11762500  0.24711679  1
  V  V34  1  0.76265286  0.12224522  0.37794730  1
  V  V35  1  0.24794376  0.75297100  0.00116364  1
  V  V36  1  0.75883747  0.24796716  0.51133649  1
  V  V37  1  0.62974362  0.13648941  -0.00294699  1
  V  V38  1  0.62181312  0.75280658  0.37616045  1
  V  V39  1  0.25328315  0.50027613  0.25269804  1
  V  V40  1  0.25339002  0.75008380  0.50183892  1
  V  V41  1  0.49261343  0.75440330  0.24608653  1
  V  V42  1  0.37384172  0.50348737  0.87591136  1
  V  V43  1  0.12514501  0.88284066  0.24762528  1
  V  V44  1  0.12881920  0.24390436  0.37387205  1
  V  V45  1  0.25099366  0.50084713  0.74778976  1
  V  V46  1  0.87914614  0.24496557  0.12136728  1
  V  V47  1  -0.00888989  0.87758595  0.37562390  1
  V  V48  1  0.38115639  0.87926656  0.50055847  1
  V  V49  1  0.25272361  0.12230304  0.87390271  1
  V  V50  1  0.87275690  0.62415777  0.25150998  1
  V  V51  1  -0.00692871  0.74435745  0.73366190  1
  V  V52  1  0.75042360  0.37233622  0.12536932  1
  V  V53  1  0.37767611  0.49086418  0.37409602  1
  V  V54  1  0.75139007  0.61677836  0.87105848  1
  V  V55  1  0.49761187  0.12979029  0.62338638  1
  V  V56  1  0.50138625  0.74911171  0.74869213  1
  V  V57  1  0.12340349  0.50124367  0.12351478  1
  V  V58  1  0.50823131  0.50844721  -0.00215473  1
  V  V59  1  0.87382917  0.87480189  0.50117229  1
  V  V60  1  0.37740243  0.75123758  0.62361025  1
  V  V61  1  0.13229013  0.12525080  0.49732274  1
  V  V62  1  -0.00261627  0.86271495  0.87274106  1
  V  V63  1  0.87227356  0.37287706  -0.00331916  1
  V  V64  1  0.12805328  0.37642599  0.75047265  1
  V  V65  1  0.62451229  0.74235983  0.87757927  1
  V  V66  1  0.63677999  0.37196396  0.74717837  1
  V  V67  1  0.75437186  0.74792701  0.50427176  1
  V  V68  1  0.37529972  0.62633223  0.74849788  1
  V  V69  1  0.74481482  0.73966160  0.00178531  1
  V  V70  1  0.12405944  0.86748945  0.75551030  1
  V  V71  1  0.00001690  0.63046938  0.12232718  1
  V  V72  1  0.11966201  0.50612113  0.62417837  1
  V  V73  1  0.87201714  0.62011446  0.73374200  1
  V  V74  1  0.74735865  0.87345263  0.12496681  1
  V  V75  1  0.62216531  0.12484570  0.49411289  1
  V  V76  1  0.25736183  0.36535580  0.61529129  1
  V  V77  1  0.50129748  0.89227252  0.37726704  1
  V  V78  1  0.62590338  0.87427284  0.74887242  1
  V  V79  1  0.75527394  0.87372697  0.62659745  1
  V  V80  1  0.37351670  0.12988946  0.74799231  1
  V  V81  1  0.24905626  0.25220484  0.00238005  1
  V  V82  1  0.62586689  0.61811797  0.49584812  1
  V  V83  1  0.62437698  0.00373006  0.12606205  1
  V  V84  1  0.12210390  0.63934253  -0.00721839  1
  Zn  Zn85  1  0.89553314  0.36256544  0.49922186  1
  Zn  Zn86  1  0.57051434  0.29749384  0.29955517  1
  Zn  Zn87  1  0.49965820  0.24942702  0.75199120  1
  Zn  Zn88  1  0.37425449  -0.00125368  0.87498870  1
  Zn  Zn89  1  0.24190688  0.00620832  0.24866986  1
  Zn  Zn90  1  0.76408779  0.38157010  0.62593016  1
  Zn  Zn91  1  0.29440626  0.19250409  0.44354535  1
  Zn  Zn92  1  0.62797689  0.50603661  0.12186532  1
  Zn  Zn93  1  -0.00067184  0.37703686  0.87274193  1
  Zn  Zn94  1  0.37618056  0.36099160  0.50172778  1
  Zn  Zn95  1  0.75258242  -0.00238555  0.25710841  1
  Zn  Zn96  1  0.24453436  0.63289613  0.87253838  1
  Zn  Zn97  1  0.25400677  0.62742385  0.37498357  1
  Zn  Zn98  1  0.74834826  0.00170157  0.75165475  1
  Zn  Zn99  1  0.63435892  0.49995520  0.63039721  1
  Zn  Zn100  1  0.25184197  0.87409299  0.63020782  1
  Zn  Zn101  1  -0.00276398  0.00752949  0.01037875  1
  Zn  Zn102  1  0.87159852  0.74841427  0.12500802  1
  Zn  Zn103  1  0.51882070  0.17516820  0.16186375  1
  Zn  Zn104  1  0.87501681  0.48370108  0.37610563  1
  Zn  Zn105  1  0.25047747  -0.00401189  0.75327891  1
  Zn  Zn106  1  0.87185342  0.49900180  0.86791562  1
  Zn  Zn107  1  0.19072980  0.18795703  0.18796698  1
  Zn  Zn108  1  0.18687184  0.18593229  0.68676171  1
  Zn  Zn109  1  0.18929147  0.69455128  0.18154514  1
  Zn  Zn110  1  0.18772961  0.69097535  0.68986746  1
  Zn  Zn111  1  0.69832441  0.18649273  0.18726812  1
  Zn  Zn112  1  0.68267540  0.19071800  0.69186199  1
  Zn  Zn113  1  0.68117749  0.68710077  0.19164827  1
  Zn  Zn114  1  0.68965054  0.68468771  0.68533857  1
  Zn  Zn115  1  0.31550875  0.31144145  0.30619000  1
  Zn  Zn116  1  0.31365083  0.31297463  0.81372912  1
  Zn  Zn117  1  0.31423729  0.81722483  0.31512190  1
  Zn  Zn118  1  0.31270814  0.81223820  0.81739316  1
  Zn  Zn119  1  0.81054715  0.30527495  0.31670574  1
  Zn  Zn120  1  0.81698852  0.31106349  0.81279088  1
  Zn  Zn121  1  0.81038186  0.81050530  0.31289702  1
  Zn  Zn122  1  0.81256400  0.80523282  0.80991928  1
  Zn  Zn123  1  0.00847470  0.48637772  0.49478028  1
  Zn  Zn124  1  0.18449715  0.44158648  0.93601052  1
  Zn  Zn125  1  0.18590226  0.93546432  0.44318141  1
  Zn  Zn126  1  0.18538434  0.93589365  0.93680561  1
  Zn  Zn127  1  0.68853061  0.42620122  0.43568802  1
  Zn  Zn128  1  0.68605906  0.43402888  0.94008795  1
  Zn  Zn129  1  0.69067700  0.94450951  0.43782193  1
  Zn  Zn130  1  0.68762078  0.93638905  0.93644126  1
  Zn  Zn131  1  0.30662431  0.05599247  0.05706815  1
  Zn  Zn132  1  0.31511116  0.05612738  0.56923191  1
  Zn  Zn133  1  0.31172600  0.56716111  0.06526150  1
  Zn  Zn134  1  0.31094963  0.55909214  0.55976009  1
  Zn  Zn135  1  0.81106075  0.06142103  0.06253424  1
  Zn  Zn136  1  0.81193384  0.06023968  0.56616055  1
  Zn  Zn137  1  0.81446853  0.56104733  0.06165761  1
  Zn  Zn138  1  0.82131087  0.54815603  0.55725648  1
  Zn  Zn139  1  0.43732757  0.43683146  0.18172342  1
  Zn  Zn140  1  0.43896213  0.43607403  0.68787117  1
  Zn  Zn141  1  0.43757855  0.95176136  0.19099443  1
  Zn  Zn142  1  0.43827266  0.94369050  0.68953579  1
  Zn  Zn143  1  0.93076833  0.44113244  0.18280681  1
  Zn  Zn144  1  0.93526852  0.43557562  0.68113847  1
  Zn  Zn145  1  0.93705523  0.93982960  0.18368148  1
  Zn  Zn146  1  0.93670233  0.93859085  0.68844551  1
  Zn  Zn147  1  0.05948321  0.06364738  0.31515014  1
  Zn  Zn148  1  0.06109427  0.05900411  0.81779833  1
  Zn  Zn149  1  0.06879024  0.58502086  0.31222354  1
  Zn  Zn150  1  0.06024884  0.56865095  0.81125075  1
  Zn  Zn151  1  0.54861010  0.09142459  0.32024596  1
  Zn  Zn152  1  0.56269338  0.06295143  0.81201473  1
  Zn  Zn153  1  0.56138860  0.45864777  0.30997498  1
  Zn  Zn154  1  0.56387914  0.55819671  0.81013359  1
  Zn  Zn155  1  0.46117240  0.20517617  0.42900856  1
  Zn  Zn156  1  0.45578699  0.20886608  0.98225290  1
  Zn  Zn157  1  0.43965362  0.68512730  0.43019135  1
  Zn  Zn158  1  0.43312547  0.69001756  0.93853658  1
  Zn  Zn159  1  0.94121411  0.19234376  0.43330465  1
  Zn  Zn160  1  0.93907366  0.18799045  0.93642952  1
  Zn  Zn161  1  0.93468640  0.68600344  0.43864881  1
  Zn  Zn162  1  0.93274405  0.68914264  0.93278341  1
  Zn  Zn163  1  0.06041317  0.31314745  0.06356312  1
  Zn  Zn164  1  0.07319988  0.31281896  0.56209246  1
  Zn  Zn165  1  0.05106575  0.83927847  0.07417348  1
  Zn  Zn166  1  0.06300530  0.81510554  0.56384825  1
  Zn  Zn167  1  0.57063651  0.30898618  0.09968811  1
  Zn  Zn168  1  0.56938858  0.30623229  0.56399355  1
  Zn  Zn169  1  0.56327070  0.81230043  0.06247077  1
  Zn  Zn170  1  0.56533937  0.81243381  0.56023579  1
  O  O171  1  0.12924850  0.12772944  0.10875219  1
  O  O172  1  0.11529938  0.11609026  0.62156101  1
  O  O173  1  0.11714877  0.62173981  0.11868633  1
  O  O174  1  0.13242932  0.61634374  0.62133176  1
  O  O175  1  0.63099026  0.11167783  0.11459282  1
  O  O176  1  0.62156756  0.11646201  0.62117658  1
  O  O177  1  0.60883108  0.62605325  0.12667055  1
  O  O178  1  0.61810210  0.62449364  0.61363653  1
  O  O179  1  0.36759435  0.38851135  0.37574700  1
  O  O180  1  0.37806508  0.38806910  0.88108340  1
  O  O181  1  0.38287142  0.88351615  0.38264984  1
  O  O182  1  0.38539860  0.87614558  0.88271152  1
  O  O183  1  0.86551524  0.37155070  0.38676986  1
  O  O184  1  0.87914646  0.37910675  0.88056526  1
  O  O185  1  0.88588868  0.87008504  0.37957143  1
  O  O186  1  0.87773428  0.87963802  0.87521726  1
  O  O187  1  0.26001452  -0.00836509  0.37563546  1
  O  O188  1  0.24984919  0.00800991  0.87374570  1
  O  O189  1  0.25556191  0.50644703  0.35737980  1
  O  O190  1  0.25562971  0.50363747  0.86388242  1
  O  O191  1  0.75777518  0.01271255  0.37547983  1
  O  O192  1  0.76270734  0.00038264  0.87191247  1
  O  O193  1  0.75061741  0.51172610  0.37089469  1
  O  O194  1  0.74708416  0.51427602  0.87993485  1
  O  O195  1  0.24227581  0.49915752  0.13438624  1
  O  O196  1  0.24587732  0.49767354  0.63666578  1
  O  O197  1  0.24797941  0.98329659  0.12552139  1
  O  O198  1  0.23576905  0.99482979  0.62936122  1
  O  O199  1  0.75441104  0.49451149  0.13383229  1
  O  O200  1  0.74551659  0.49469923  0.61585203  1
  O  O201  1  0.74182839  0.98934769  0.12582251  1
  O  O202  1  0.74185383  0.99117232  0.63064346  1
  O  O203  1  0.00286098  0.37158355  0.24782989  1
  O  O204  1  0.00811099  0.36630518  0.75025407  1
  O  O205  1  0.00587930  0.87083171  0.25987195  1
  O  O206  1  0.00145471  0.86463396  0.75296718  1
  O  O207  1  0.50336806  0.38218168  0.24854533  1
  O  O208  1  0.49683688  0.37199352  0.76600287  1
  O  O209  1  0.50291075  0.87369611  0.25783843  1
  O  O210  1  0.50474533  0.86841744  0.75509487  1
  O  O211  1  0.47448216  0.09879392  0.23132959  1
  O  O212  1  0.49280569  0.12699584  0.74541420  1
  O  O213  1  0.48999815  0.63988634  0.24072346  1
  O  O214  1  0.49586003  0.62894921  0.74008895  1
  O  O215  1  0.99260012  0.12992350  0.24901420  1
  O  O216  1  0.99534261  0.12900401  0.74506360  1
  O  O217  1  0.99166432  0.63229782  0.24446495  1
  O  O218  1  0.98991084  0.63760607  0.75026031  1
  O  O219  1  0.35363375  0.26508306  -0.01329573  1
  O  O220  1  0.38010487  0.24870745  0.48566158  1
  O  O221  1  0.36963892  0.76491354  -0.00041299  1
  O  O222  1  0.37070681  0.75684905  0.50144519  1
  O  O223  1  0.88547461  0.25999814  0.00769944  1
  O  O224  1  0.86193130  0.24047352  0.50069261  1
  O  O225  1  0.86156834  0.75399542  0.00175352  1
  O  O226  1  0.86095241  0.75558914  0.49496319  1
  O  O227  1  0.12403609  0.23548055  0.48947739  1
  O  O228  1  0.12964610  0.24442602  0.99248118  1
  O  O229  1  0.13435344  0.75078529  0.49727456  1
  O  O230  1  0.13022958  0.74366903  1.00842535  1
  O  O231  1  0.63605649  0.22974602  0.50413491  1
  O  O232  1  0.62531360  0.23436997  1.00619918  1
  O  O233  1  0.63463365  0.74390358  0.49438621  1
  O  O234  1  0.63165433  0.75345434  0.98832913  1
  O  O235  1  0.47899215  0.24907974  0.08627569  1
  O  O236  1  0.50505501  0.23359781  0.62796181  1
  O  O237  1  0.50304815  0.74810509  0.13596805  1
  O  O238  1  0.49716357  0.74001211  0.62659473  1
  O  O239  1  0.98923939  0.25672869  0.13494521  1
  O  O240  1  1.01308997  0.23955600  0.63766687  1
  O  O241  1  0.99605564  0.74791118  0.13315743  1
  O  O242  1  0.99679022  0.75439422  0.63504495  1
  O  O243  1  0.01241003  0.24599703  0.36164207  1
  O  O244  1  0.01087630  0.24871540  0.86471907  1
  O  O245  1  0.00764343  0.75696950  0.37160981  1
  O  O246  1  -0.00637315  0.75876121  0.86006696  1
  O  O247  1  0.53063447  0.20343385  0.34819419  1
  O  O248  1  0.49311634  0.26840953  0.88456048  1
  O  O249  1  0.50541148  0.75982441  0.36664782  1
  O  O250  1  0.50679173  0.75360255  0.87075075  1
  O  O251  1  0.23689447  0.11654201  0.50806843  1
  O  O252  1  0.24095774  0.13342899  0.99291480  1
  O  O253  1  0.24520101  0.63810298  0.50007539  1
  O  O254  1  0.24066928  0.63496280  1.00239329  1
  O  O255  1  0.74822763  0.12703412  0.49617407  1
  O  O256  1  0.74470247  0.11768517  0.98554671  1
  O  O257  1  0.74625681  0.63054696  0.49323207  1
  O  O258  1  0.75312290  0.63454817  0.99280955  1
  O  O259  1  0.25187380  0.37261104  0.00411713  1
  O  O260  1  0.25426440  0.37752664  0.51748512  1
  O  O261  1  0.25661985  0.87223114  0.00602880  1
  O  O262  1  0.25816727  0.86401357  0.50422836  1
  O  O263  1  0.76636563  0.38167195  0.00381957  1
  O  O264  1  0.74113648  0.35170289  0.50460648  1
  O  O265  1  0.75189786  0.86485172  0.00653352  1
  O  O266  1  0.75429544  0.86876442  0.50530260  1
  O  O267  1  0.12711297  0.49544662  0.25001593  1
  O  O268  1  0.13302812  0.50113501  0.74432873  1
  O  O269  1  0.12457211  0.98680182  0.25777440  1
  O  O270  1  0.12182032  0.99036218  0.74424945  1
  O  O271  1  0.64272627  0.51166275  0.24418314  1
  O  O272  1  0.61581370  0.47866140  0.74788701  1
  O  O273  1  0.62596053  0.99602741  0.23987137  1
  O  O274  1  0.62734832  0.99116501  0.74327129  1
  O  O275  1  0.36423075  0.00456793  0.26452076  1
  O  O276  1  0.37196531  0.01094421  0.75564434  1
  O  O277  1  0.36914490  0.50947422  0.25372150  1
  O  O278  1  0.36932316  0.50630522  0.75589118  1
  O  O279  1  0.87411901  0.01262652  0.24190316  1
  O  O280  1  0.87543918  0.01175774  0.75764456  1
  O  O281  1  0.86772130  0.50870255  0.25572921  1
  O  O282  1  0.88648367  0.51658182  0.75118550  1
  O  O283  1  0.12534055  0.36492416  0.36358086  1
  O  O284  1  0.12328167  0.36702130  0.86898498  1
  O  O285  1  0.11738765  0.86708649  0.37310992  1
  O  O286  1  0.11238407  0.87880156  0.86409874  1
  O  O287  1  0.62620555  0.37828480  0.35861140  1
  O  O288  1  0.61135486  0.37929423  0.86941926  1
  O  O289  1  0.61771684  0.87631341  0.37329733  1
  O  O290  1  0.62055466  0.86417067  0.86845348  1
  O  O291  1  0.36234166  0.12627952  0.12777947  1
  O  O292  1  0.38557309  0.11657834  0.63397197  1
  O  O293  1  0.38345454  0.62251266  0.13776273  1
  O  O294  1  0.38273737  0.63048226  0.62690878  1
  O  O295  1  0.86945856  0.13375283  0.13086018  1
  O  O296  1  0.88884108  0.11808938  0.63465157  1
  O  O297  1  0.87964886  0.62639397  0.13607021  1
  O  O298  1  0.86894160  0.62513907  0.63592229  1
  O  O299  1  0.24234577  0.26313612  0.11482844  1
  O  O300  1  0.24280039  0.26616504  0.62973246  1
  O  O301  1  0.25393437  0.76121221  0.11259220  1
  O  O302  1  0.25955050  0.75251138  0.61903474  1
  O  O303  1  0.76884005  0.26048278  0.12945976  1
  O  O304  1  0.74998425  0.24265721  0.61331264  1
  O  O305  1  0.74422359  0.75397614  0.11748661  1
  O  O306  1  0.74183321  0.76037601  0.61417989  1
  O  O307  1  0.23464029  0.25100676  0.36464748  1
  O  O308  1  0.23782620  0.24559989  0.87888828  1
  O  O309  1  0.24331745  0.75306818  0.38362056  1
  O  O310  1  0.25346312  0.74997157  0.89332888  1
  O  O311  1  0.74832982  0.22869859  0.38572563  1
  O  O312  1  0.75591466  0.23534647  0.87710746  1
  O  O313  1  0.74275312  0.74035904  0.37976611  1
  O  O314  1  0.74219860  0.74169607  0.88162135  1
  O  O315  1  0.01521451  0.12414414  -0.00430013  1
  O  O316  1  0.00485609  0.11840289  0.50761593  1
  O  O317  1  0.00436097  0.62433388  0.00238306  1
  O  O318  1  0.01686725  0.63318456  0.49743700  1
  O  O319  1  0.51359823  0.10936356  -0.01382097  1
  O  O320  1  0.51714683  0.12256863  0.50685610  1
  O  O321  1  0.48893851  0.62027070  0.00958746  1
  O  O322  1  0.50848723  0.62148233  0.50439801  1
  O  O323  1  0.49971212  0.38412756  0.51005024  1
  O  O324  1  0.48851454  0.39054192  0.98839249  1
  O  O325  1  0.49176995  0.86946365  0.49002832  1
  O  O326  1  0.49496170  0.87938330  0.99454400  1
  O  O327  1  1.01004367  0.37267289  0.49571172  1
  O  O328  1  0.99287158  0.38561688  0.99845483  1
  O  O329  1  0.99462050  0.88028324  0.49481380  1
  O  O330  1  0.98494230  0.85745328  0.98216651  1
  O  O331  1  0.48952150  0.50609194  0.38732245  1
  O  O332  1  0.49020750  0.49853999  0.87981574  1
  O  O333  1  0.48882937  0.99421926  0.37171161  1
  O  O334  1  0.50326581  0.98838165  0.88171879  1
  O  O335  1  1.01707721  0.49277488  0.36474820  1
  O  O336  1  1.00127438  0.50121901  0.88621781  1
  O  O337  1  1.00434583  0.98929031  0.38648144  1
  O  O338  1  0.98689123  0.98948986  0.87798532  1
  O  O339  1  0.01121061  -0.05149975  0.10449089  1
  O  O340  1  0.00859021  0.00498910  0.62083267  1
  O  O341  1  0.00309785  0.50863541  0.11434425  1
  O  O342  1  0.01933294  0.49915935  0.62970728  1
  O  O343  1  0.51275053  -0.01054341  0.11110890  1
  O  O344  1  0.51259600  0.00926844  0.62975051  1
  O  O345  1  0.50116026  0.51105585  0.11314732  1
  O  O346  1  0.49993900  0.51134408  0.61749209  1
  O  O347  1  0.25830335  0.38469683  0.23514453  1
  O  O348  1  0.24606454  0.38505139  0.74915143  1
  O  O349  1  0.24288470  0.87445787  0.24549740  1
  O  O350  1  0.23876866  0.87239359  0.75152427  1
  O  O351  1  0.75995586  0.38274396  0.23883229  1
  O  O352  1  0.73981925  0.36955610  0.75137774  1
  O  O353  1  0.74212911  0.87504468  0.24357177  1
  O  O354  1  0.74436552  0.87183374  0.74179029  1
  O  O355  1  0.26020147  0.12022701  0.24726402  1
  O  O356  1  0.25430824  0.12195999  0.75558493  1
  O  O357  1  0.25680505  0.62189067  0.24621334  1
  O  O358  1  0.25765646  0.62074566  0.75184743  1
  O  O359  1  0.75869252  0.12350030  0.26215848  1
  O  O360  1  0.75763596  0.12555721  0.75997928  1
  O  O361  1  0.75621298  0.62291065  0.25710726  1
  O  O362  1  0.76398412  0.63259925  0.75633460  1
  O  O363  1  0.37006338  0.11086968  0.38294383  1
  O  O364  1  0.35814795  0.12390730  0.87203822  1
  O  O365  1  0.37316357  0.61869446  0.36212729  1
  O  O366  1  0.37285859  0.61633522  0.86912056  1
  O  O367  1  0.87012605  0.12608023  0.36546603  1
  O  O368  1  0.86786346  0.11755083  0.87151516  1
  O  O369  1  0.86734899  0.62745941  0.36327637  1
  O  O370  1  0.86485604  0.62321815  0.86664238  1
  O  O371  1  0.13400712  0.38670202  0.11675824  1
  O  O372  1  0.13804647  0.38891471  0.63227639  1
  O  O373  1  0.13963938  0.86018403  0.14301149  1
  O  O374  1  0.12432475  0.88141446  0.63675523  1
  O  O375  1  0.64753464  0.38816376  0.10785613  1
  O  O376  1  0.62616271  0.37330197  0.63989568  1
  O  O377  1  0.63349781  0.88012091  0.12911147  1
  O  O378  1  0.63093279  0.88165707  0.62816539  1
  O  O379  1  0.11265639  0.24093310  0.25365699  1
  O  O380  1  0.11974278  0.25338357  0.75780780  1
  O  O381  1  0.11992342  0.75438629  0.26106705  1
  O  O382  1  0.11048540  0.75662697  0.74591842  1
  O  O383  1  0.60476630  0.24606478  0.19994459  1
  O  O384  1  0.61823705  0.26530065  0.75410373  1
  O  O385  1  0.61540248  0.75951145  0.25769645  1
  O  O386  1  0.61882088  0.75490849  0.75390788  1
  O  O387  1  0.37538473  0.22932982  0.25280871  1
  O  O388  1  0.37655629  0.23451688  0.75790422  1
  O  O389  1  0.38446133  0.74617909  0.25686820  1
  O  O390  1  0.38188999  0.74588657  0.74496043  1
  O  O391  1  0.88473070  0.23895526  0.24412945  1
  O  O392  1  0.88672881  0.23659550  0.75624957  1
  O  O393  1  0.87954218  0.74227132  0.24893411  1
  O  O394  1  0.88535838  0.73963033  0.74832939  1
  O  O395  1  0.38279805  0.50082435  0.49032478  1
  O  O396  1  0.37556019  0.49863280  0.99089350  1
  O  O397  1  0.36942178  0.98692157  0.49162681  1
  O  O398  1  0.38509702  0.99117013  0.99689996  1
  O  O399  1  0.89656167  0.51016749  0.48581234  1
  O  O400  1  0.88499271  0.49478712  0.99636314  1
  O  O401  1  0.88819064  0.99347255  0.50721858  1
  O  O402  1  0.87613222  0.99173877  0.99323448  1
  O  O403  1  0.12469507  0.01563813  -0.00560609  1
  O  O404  1  0.11442373  0.00171409  0.50948379  1
  O  O405  1  0.11736686  0.51073793  0.00452585  1
  O  O406  1  0.12495154  0.51407275  0.51553917  1
  O  O407  1  0.62002934  0.00065952  0.00586023  1
  O  O408  1  0.63278269  0.00907251  0.51472477  1
  O  O409  1  0.61057789  0.50435310  -0.00476713  1
  O  O410  1  0.61668218  0.50550100  0.49842696  1
  O  O411  1  0.36177328  0.38793815  0.10784045  1
  O  O412  1  0.36245499  0.37919597  0.62559463  1
  O  O413  1  0.37074991  0.88170266  0.11851222  1
  O  O414  1  0.37820608  0.87100920  0.61724213  1
  O  O415  1  0.86983916  0.37084481  0.11540451  1
  O  O416  1  0.87635955  0.37324625  0.61359208  1
  O  O417  1  0.85746606  0.87028838  0.12252639  1
  O  O418  1  0.86187268  0.87991697  0.62098129  1
  O  O419  1  0.12316733  0.12857723  0.38618068  1
  O  O420  1  0.13319090  0.13191818  0.87795754  1
  O  O421  1  0.13271688  0.64095930  0.38546142  1
  O  O422  1  0.12643251  0.62406363  0.88824559  1
  O  O423  1  0.64005236  0.10397606  0.39379135  1
  O  O424  1  0.64184362  0.11874444  0.87880191  1
  O  O425  1  0.63324253  0.63171457  0.38814408  1
  O  O426  1  0.63150968  0.63675722  0.86291310  1
