# generated using pymatgen
data_V85Zn86O256
_symmetry_space_group_name_H-M   'P 1'
_cell_length_a   16.91599905
_cell_length_b   16.92783208
_cell_length_c   16.92712310
_cell_angle_alpha   89.99810420
_cell_angle_beta   90.01797156
_cell_angle_gamma   90.01052141
_symmetry_Int_Tables_number   1
_chemical_formula_structural   V85Zn86O256
_chemical_formula_sum   'V85 Zn86 O256'
_cell_volume   4847.10154116
_cell_formula_units_Z   1
loop_
 _symmetry_equiv_pos_site_id
 _symmetry_equiv_pos_as_xyz
  1  'x, y, z'
loop_
 _atom_site_type_symbol
 _atom_site_label
 _atom_site_symmetry_multiplicity
 _atom_site_fract_x
 _atom_site_fract_y
 _atom_site_fract_z
 _atom_site_occupancy
  V  V0  1  0.37142977  0.62547873  0.25077589  1
  V  V1  1  0.75275293  0.37915543  0.62572050  1
  V  V2  1  0.38820582  0.25135596  0.62584119  1
  V  V3  1  0.38315704  0.87647054  0.50077832  1
  V  V4  1  -0.00027715  0.62680756  0.11764315  1
  V  V5  1  0.37931583  0.37424902  0.49305638  1
  V  V6  1  0.50035509  0.75293704  0.76217470  1
  V  V7  1  0.62444380  0.26412757  0.37398175  1
  V  V8  1  0.73406842  0.87383600  0.11836331  1
  V  V9  1  0.76015892  0.74763349  0.50389660  1
  V  V10  1  0.50369290  0.26380874  0.25513270  1
  V  V11  1  0.88082095  0.00157272  0.88263099  1
  V  V12  1  0.12159115  0.27881198  0.35393902  1
  V  V13  1  0.75060850  0.24970924  0.00108034  1
  V  V14  1  0.01227261  0.11392691  0.12425357  1
  V  V15  1  0.23460347  0.62534326  0.87892353  1
  V  V16  1  0.00490998  0.86996746  0.88042820  1
  V  V17  1  0.12543046  0.74979079  0.37122713  1
  V  V18  1  0.74935796  0.24372867  0.49677416  1
  V  V19  1  -0.00609303  0.87651818  0.37534455  1
  V  V20  1  0.50319818  0.62353916  0.62549519  1
  V  V21  1  0.37395521  0.62343149  0.75132910  1
  V  V22  1  0.75480660  0.87066632  0.62869607  1
  V  V23  1  0.63138723  0.38185719  0.75112634  1
  V  V24  1  0.37583078  0.88099614  -0.00509014  1
  V  V25  1  0.62521026  0.12005865  0.00542268  1
  V  V26  1  0.89776583  0.48247493  0.35267187  1
  V  V27  1  0.13026772  0.12463171  0.48307922  1
  V  V28  1  0.86844299  0.00511259  0.37539121  1
  V  V29  1  0.12197319  0.49248124  0.12592063  1
  V  V30  1  0.37322668  0.75283982  0.12466448  1
  V  V31  1  0.25193598  0.74988787  0.49926026  1
  V  V32  1  0.73970307  0.49754115  0.25260756  1
  V  V33  1  0.24738505  0.00467947  0.25846842  1
  V  V34  1  0.50564284  0.88243060  0.37530617  1
  V  V35  1  0.24818406  0.87880707  0.12634462  1
  V  V36  1  0.24790364  0.36888411  0.62374014  1
  V  V37  1  0.00183892  0.49436749  0.49809789  1
  V  V38  1  0.37681342  0.00643071  0.38331048  1
  V  V39  1  0.74895128  0.63095307  0.86914725  1
  V  V40  1  0.75205002  0.12573062  0.87460726  1
  V  V41  1  0.24649897  0.49482899  0.24994380  1
  V  V42  1  0.87553683  0.37650698  -0.00394748  1
  V  V43  1  0.12469438  0.24769707  0.85973722  1
  V  V44  1  0.12491961  0.62585436  0.50035305  1
  V  V45  1  0.37299540  0.49855263  0.87490682  1
  V  V46  1  0.24004510  0.24504276  0.00149881  1
  V  V47  1  0.49875161  0.62434882  0.12469719  1
  V  V48  1  0.25271567  -0.00049916  0.74881299  1
  V  V49  1  -0.00758962  0.63171288  0.62372967  1
  V  V50  1  0.87337666  0.12656556  0.25163330  1
  V  V51  1  0.62105347  0.87999589  0.75300521  1
  V  V52  1  0.74632951  0.00244255  0.74470254  1
  V  V53  1  0.86850358  0.50056996  0.86337412  1
  V  V54  1  0.62237170  0.24802947  0.86941535  1
  V  V55  1  0.62892317  0.75175167  0.37831358  1
  V  V56  1  0.37679424  0.74909451  0.62467145  1
  V  V57  1  0.50443179  0.49763361  0.49322337  1
  V  V58  1  0.37968087  0.12912927  0.75149075  1
  V  V59  1  0.88511600  0.24770678  0.12789373  1
  V  V60  1  0.88179661  0.12687014  0.74810896  1
  V  V61  1  0.37380861  0.12809991  0.25693483  1
  V  V62  1  0.86788858  0.62700927  0.24755652  1
  V  V63  1  0.62266243  0.11435049  0.49472405  1
  V  V64  1  0.63125575  0.63161593  0.00102693  1
  V  V65  1  0.37652504  0.24667680  0.12641243  1
  V  V66  1  0.49958396  0.49857778  -0.00067863  1
  V  V67  1  0.62288163  0.49620139  0.12533591  1
  V  V68  1  0.73811541  -0.00262063  0.24510822  1
  V  V69  1  0.37510898  0.37070589  0.00138428  1
  V  V70  1  0.74330311  0.37253031  0.12818495  1
  V  V71  1  0.25140877  0.62470670  0.37318467  1
  V  V72  1  0.87858626  0.36917861  0.49286196  1
  V  V73  1  -0.01152046  0.75175957  0.74943616  1
  V  V74  1  0.50312597  0.11777786  0.12856660  1
  V  V75  1  0.49871091  0.36983164  0.86597843  1
  V  V76  1  0.00400953  0.50322105  -0.00460658  1
  V  V77  1  0.50425745  0.75674049  0.25298771  1
  V  V78  1  -0.00384711  0.74965265  0.24744585  1
  V  V79  1  0.12346458  0.00203452  0.62487373  1
  V  V80  1  0.24636317  0.49307976  0.75014222  1
  V  V81  1  0.12303453  0.49501778  0.62856513  1
  V  V82  1  0.12631642  0.86546856  0.75011966  1
  V  V83  1  0.12237986  0.88212765  0.24699046  1
  V  V84  1  0.50941288  0.11076644  0.62761804  1
  Zn  Zn85  1  0.87788531  0.87446218  0.50855140  1
  Zn  Zn86  1  0.23786244  0.74750030  -0.00983290  1
  Zn  Zn87  1  0.75142248  0.62095817  0.37652712  1
  Zn  Zn88  1  0.50626289  -0.00555774  -0.00104390  1
  Zn  Zn89  1  0.00375720  0.25806844  0.74112632  1
  Zn  Zn90  1  0.86406945  0.75349795  0.11682181  1
  Zn  Zn91  1  0.87737943  0.24689445  0.62141088  1
  Zn  Zn92  1  0.38216300  -0.00719555  0.86918772  1
  Zn  Zn93  1  0.25082711  0.87324950  0.62308653  1
  Zn  Zn94  1  0.03564967  0.00416957  0.00106696  1
  Zn  Zn95  1  0.24153875  0.36956287  0.13021887  1
  Zn  Zn96  1  0.37975646  0.49529043  0.37156978  1
  Zn  Zn97  1  0.24904828  0.12005793  0.87841041  1
  Zn  Zn98  1  0.86356571  0.62555502  0.73902012  1
  Zn  Zn99  1  0.00221953  0.12619525  0.62225517  1
  Zn  Zn100  1  0.63183056  0.50286853  0.62763890  1
  Zn  Zn101  1  0.62946526  0.62413804  0.50230039  1
  Zn  Zn102  1  -0.00252617  0.00048652  0.50114241  1
  Zn  Zn103  1  0.87267429  0.87409309  0.00358246  1
  Zn  Zn104  1  0.62681522  0.75917636  0.88272648  1
  Zn  Zn105  1  0.25307227  0.24115788  0.49163554  1
  Zn  Zn106  1  0.01023948  0.37875207  0.86797284  1
  Zn  Zn107  1  0.18831165  0.19078622  0.19528718  1
  Zn  Zn108  1  0.19344679  0.18453870  0.68277830  1
  Zn  Zn109  1  0.16850076  0.70249596  0.15521270  1
  Zn  Zn110  1  0.18646166  0.68382321  0.68711410  1
  Zn  Zn111  1  0.68967048  0.18588316  0.19246930  1
  Zn  Zn112  1  0.68897251  0.19171696  0.68643741  1
  Zn  Zn113  1  0.68390259  0.69044607  0.18770469  1
  Zn  Zn114  1  0.68469519  0.69297188  0.68857382  1
  Zn  Zn115  1  0.30691254  0.30967871  0.31575528  1
  Zn  Zn116  1  0.30992836  0.30892558  0.81132492  1
  Zn  Zn117  1  0.31472893  0.81517578  0.31327914  1
  Zn  Zn118  1  0.30946240  0.80795168  0.81223039  1
  Zn  Zn119  1  0.80654304  0.30697775  0.31080086  1
  Zn  Zn120  1  0.81376719  0.31207486  0.81095787  1
  Zn  Zn121  1  0.80815021  0.81787071  0.30752803  1
  Zn  Zn122  1  0.81279960  0.81435289  0.81823178  1
  Zn  Zn123  1  0.19118446  0.43714830  0.43963248  1
  Zn  Zn124  1  0.18627727  0.43250931  0.93964644  1
  Zn  Zn125  1  0.18872390  0.93753884  0.43771315  1
  Zn  Zn126  1  0.19229403  0.92990281  0.93019272  1
  Zn  Zn127  1  0.69248307  0.43780627  0.43917079  1
  Zn  Zn128  1  0.68839075  0.44128546  0.93815723  1
  Zn  Zn129  1  0.69197975  0.93423181  0.43760044  1
  Zn  Zn130  1  0.68848951  0.94048945  0.93375226  1
  Zn  Zn131  1  0.24206121  0.04607901  0.04828810  1
  Zn  Zn132  1  0.31286636  0.06325564  0.56541072  1
  Zn  Zn133  1  0.30905628  0.56094348  0.06276803  1
  Zn  Zn134  1  0.31471198  0.55987059  0.56203820  1
  Zn  Zn135  1  0.81153607  0.06027186  0.06689736  1
  Zn  Zn136  1  0.81042810  0.06105563  0.56294525  1
  Zn  Zn137  1  0.81206369  0.56276986  0.05991802  1
  Zn  Zn138  1  0.81631920  0.55633538  0.55318631  1
  Zn  Zn139  1  0.43443186  0.43681075  0.18723296  1
  Zn  Zn140  1  0.43809362  0.43737249  0.68477475  1
  Zn  Zn141  1  0.43590767  0.94030804  0.18993961  1
  Zn  Zn142  1  0.43983770  0.93703253  0.68664290  1
  Zn  Zn143  1  0.93011217  0.43919494  0.18149989  1
  Zn  Zn144  1  0.93769449  0.43385620  0.68458791  1
  Zn  Zn145  1  0.93045921  0.93961596  0.18428936  1
  Zn  Zn146  1  0.93716403  0.94063738  0.69124055  1
  Zn  Zn147  1  0.05457657  0.06436284  0.30861254  1
  Zn  Zn148  1  0.06616782  0.06357848  0.81441384  1
  Zn  Zn149  1  0.06388056  0.56000056  0.30576166  1
  Zn  Zn150  1  0.05682021  0.56111108  0.80746110  1
  Zn  Zn151  1  0.55993067  0.06903644  0.31756219  1
  Zn  Zn152  1  0.55966079  0.05991292  0.81593528  1
  Zn  Zn153  1  0.56239108  0.56722653  0.31386946  1
  Zn  Zn154  1  0.56331387  0.56301628  0.81397093  1
  Zn  Zn155  1  0.44482610  0.18924965  0.44122253  1
  Zn  Zn156  1  0.43854561  0.18302953  0.93820401  1
  Zn  Zn157  1  0.44094308  0.68698616  0.43754620  1
  Zn  Zn158  1  0.43053172  0.68598129  0.94096144  1
  Zn  Zn159  1  0.94804348  0.18708411  0.43323352  1
  Zn  Zn160  1  0.94483190  0.18522935  0.94080257  1
  Zn  Zn161  1  0.93607494  0.68119223  0.43194434  1
  Zn  Zn162  1  0.93331386  0.69037591  0.93533985  1
  Zn  Zn163  1  0.05963929  0.31306820  0.05942389  1
  Zn  Zn164  1  0.06333961  0.30731694  0.55859396  1
  Zn  Zn165  1  0.06211352  0.81235388  0.05853579  1
  Zn  Zn166  1  0.06220607  0.81361091  0.56302014  1
  Zn  Zn167  1  0.56129802  0.30721002  0.06037117  1
  Zn  Zn168  1  0.56559646  0.31312282  0.56239448  1
  Zn  Zn169  1  0.55984840  0.81434394  0.06464324  1
  Zn  Zn170  1  0.56879630  0.81417297  0.56628803  1
  O  O171  1  0.11086647  0.12911827  0.13522117  1
  O  O172  1  0.12640487  0.11097305  0.62403402  1
  O  O173  1  0.10419527  0.60808182  0.13568987  1
  O  O174  1  0.11669406  0.61629750  0.61954674  1
  O  O175  1  0.61602344  0.13575564  0.11733807  1
  O  O176  1  0.61401960  0.13222232  0.61920552  1
  O  O177  1  0.61881537  0.61944261  0.11840586  1
  O  O178  1  0.61672663  0.62266242  0.62556007  1
  O  O179  1  0.37236132  0.37439728  0.38939306  1
  O  O180  1  0.38081192  0.37627038  0.88018643  1
  O  O181  1  0.38430977  0.88188610  0.38263387  1
  O  O182  1  0.36779325  0.86928066  0.89152575  1
  O  O183  1  0.86490217  0.37511432  0.38545568  1
  O  O184  1  0.86733763  0.38319937  0.88607940  1
  O  O185  1  0.88471914  0.88053009  0.37223750  1
  O  O186  1  0.88635109  0.88498503  0.87506317  1
  O  O187  1  0.26180835  -0.00549547  0.36580228  1
  O  O188  1  0.25877645  -0.00005599  0.85963403  1
  O  O189  1  0.25307995  0.50778588  0.36734170  1
  O  O190  1  0.25226359  0.50151792  0.86766046  1
  O  O191  1  0.76199145  -0.00906081  0.36426426  1
  O  O192  1  0.75917815  0.00740762  0.86568037  1
  O  O193  1  0.75990132  0.49732083  0.36382077  1
  O  O194  1  0.75845553  0.51270509  0.88040835  1
  O  O195  1  0.23869141  0.49939375  0.13010122  1
  O  O196  1  0.24351324  0.49427221  0.63154784  1
  O  O197  1  0.25905605  0.98566918  0.14383344  1
  O  O198  1  0.24568713  0.99528594  0.63450116  1
  O  O199  1  0.74174944  0.49237849  0.12795807  1
  O  O200  1  0.75017982  0.48476796  0.61589630  1
  O  O201  1  0.74860729  0.99271691  0.13730045  1
  O  O202  1  0.75238134  0.99420793  0.63954203  1
  O  O203  1  -0.03333175  0.43830154  0.28863516  1
  O  O204  1  -0.00927692  0.37008521  0.75737444  1
  O  O205  1  0.00413785  0.86970861  0.25318826  1
  O  O206  1  0.00618597  0.86867334  0.75525263  1
  O  O207  1  0.49651149  0.36307759  0.24850338  1
  O  O208  1  0.50472973  0.37726410  0.76147076  1
  O  O209  1  0.49359020  0.86778639  0.26115381  1
  O  O210  1  0.50737563  0.86504719  0.74471487  1
  O  O211  1  0.49127020  0.13295023  0.24618359  1
  O  O212  1  0.49579152  0.12329698  0.73649036  1
  O  O213  1  0.48959526  0.63111494  0.24463461  1
  O  O214  1  0.49498382  0.62966430  0.74428297  1
  O  O215  1  0.98563164  0.12104946  0.23643314  1
  O  O216  1  0.99267170  0.12731133  0.74877915  1
  O  O217  1  0.98973273  0.63169766  0.24385870  1
  O  O218  1  0.99789559  0.63491751  0.74120369  1
  O  O219  1  0.37380751  0.25786090  0.00701109  1
  O  O220  1  0.37399815  0.25601433  0.50612626  1
  O  O221  1  0.36766757  0.75514046  0.01143705  1
  O  O222  1  0.37231425  0.75600687  0.50430557  1
  O  O223  1  0.87047545  0.25760759  0.00423206  1
  O  O224  1  0.86821273  0.25170393  0.49450290  1
  O  O225  1  0.88315923  0.75982760  0.00463629  1
  O  O226  1  0.86379527  0.75124555  0.49013787  1
  O  O227  1  0.12993837  0.23222333  0.49905641  1
  O  O228  1  0.13838555  0.24878658  1.00255286  1
  O  O229  1  0.13109921  0.74601442  0.49267885  1
  O  O230  1  0.14119860  0.73612254  1.04573768  1
  O  O231  1  0.63051997  0.24665742  0.49134572  1
  O  O232  1  0.63147139  0.24341569  0.99002779  1
  O  O233  1  0.63651362  0.74879134  0.49407941  1
  O  O234  1  0.61244002  0.73573978  0.99853706  1
  O  O235  1  0.49460113  0.24529097  0.13420940  1
  O  O236  1  0.49081615  0.24515235  0.62246201  1
  O  O237  1  0.49016503  0.74694221  0.13408158  1
  O  O238  1  0.49604835  0.73919242  0.63052154  1
  O  O239  1  0.98833023  0.24457073  0.12016617  1
  O  O240  1  0.99579338  0.24467072  0.62462193  1
  O  O241  1  0.99746534  0.74299973  0.13684318  1
  O  O242  1  1.00317838  0.74148912  0.63224773  1
  O  O243  1  0.02627053  0.24563915  0.37474346  1
  O  O244  1  0.01688264  0.24784918  0.87523973  1
  O  O245  1  0.00188584  0.75430957  0.36382759  1
  O  O246  1  -0.00017204  0.76063669  0.86524456  1
  O  O247  1  0.51292064  0.24968468  0.36923056  1
  O  O248  1  0.50962042  0.25865042  0.88103064  1
  O  O249  1  0.50571858  0.75871683  0.37069102  1
  O  O250  1  0.49813626  0.74242724  0.86429697  1
  O  O251  1  0.23614155  0.12241177  0.50408615  1
  O  O252  1  0.26762422  0.14280341  0.99637711  1
  O  O253  1  0.24551446  0.62929070  0.49515494  1
  O  O254  1  0.25468947  0.62039458  0.98153723  1
  O  O255  1  0.73655762  0.13664204  0.51054842  1
  O  O256  1  0.74479215  0.13087140  0.99705032  1
  O  O257  1  0.75072649  0.63104612  0.49585551  1
  O  O258  1  0.73949199  0.62202867  0.99214266  1
  O  O259  1  0.25918729  0.36349396  0.00386005  1
  O  O260  1  0.26160720  0.37714080  0.51095850  1
  O  O261  1  0.25694106  0.86593498  0.01211491  1
  O  O262  1  0.26242788  0.86711107  0.49856128  1
  O  O263  1  0.75565321  0.37197606  0.00863252  1
  O  O264  1  0.75626999  0.36318956  0.50500180  1
  O  O265  1  0.74736139  0.88380602  0.01438416  1
  O  O266  1  0.75204551  0.86714622  0.51120121  1
  O  O267  1  0.13586881  0.50016590  0.24179452  1
  O  O268  1  0.13016431  0.50155259  0.73676914  1
  O  O269  1  0.13401676  0.99327799  0.25925452  1
  O  O270  1  0.13299686  0.99187987  0.74398984  1
  O  O271  1  0.63226744  0.50556359  0.24463566  1
  O  O272  1  0.62162086  0.48598572  0.75026417  1
  O  O273  1  0.64051834  1.01173371  0.25868112  1
  O  O274  1  0.63456681  0.99424541  0.75491196  1
  O  O275  1  0.37101585  0.00911997  0.26208707  1
  O  O276  1  0.36956382  0.00663504  0.74670289  1
  O  O277  1  0.37153872  0.51021713  0.25045507  1
  O  O278  1  0.36651831  0.50347783  0.75349652  1
  O  O279  1  0.86684352  0.00732593  0.25670038  1
  O  O280  1  0.87058976  0.01062585  0.76092891  1
  O  O281  1  0.85271930  0.51103632  0.24018008  1
  O  O282  1  0.87664178  0.50338023  0.76090415  1
  O  O283  1  0.12012287  0.37782638  0.37496876  1
  O  O284  1  0.12661897  0.35469938  0.88155370  1
  O  O285  1  0.11426146  0.87024843  0.36710944  1
  O  O286  1  0.11760698  0.87463123  0.86277620  1
  O  O287  1  0.62696431  0.36332522  0.37781522  1
  O  O288  1  0.61934689  0.37041265  0.87156645  1
  O  O289  1  0.61583412  0.86523971  0.38152544  1
  O  O290  1  0.63031039  0.87339333  0.86142434  1
  O  O291  1  0.38490728  0.13905602  0.13579807  1
  O  O292  1  0.38758971  0.13040450  0.62923208  1
  O  O293  1  0.37715500  0.63251690  0.13055003  1
  O  O294  1  0.38119213  0.62850637  0.63182949  1
  O  O295  1  0.87920873  0.13231209  0.13027528  1
  O  O296  1  0.87687976  0.12343370  0.63461229  1
  O  O297  1  0.88038674  0.62689142  0.13295664  1
  O  O298  1  0.88812850  0.61551114  0.62330343  1
  O  O299  1  0.25795740  0.25046322  0.11786580  1
  O  O300  1  0.25980131  0.25768068  0.62025099  1
  O  O301  1  0.26690044  0.76463650  0.14571810  1
  O  O302  1  0.25823840  0.74866663  0.61882734  1
  O  O303  1  0.75591782  0.25694563  0.12029262  1
  O  O304  1  0.75331332  0.26016864  0.61558216  1
  O  O305  1  0.74593776  0.76848003  0.13343678  1
  O  O306  1  0.75020122  0.75597301  0.61686328  1
  O  O307  1  0.22890693  0.25631161  0.37782014  1
  O  O308  1  0.24190937  0.24941358  0.88456732  1
  O  O309  1  0.24626429  0.74500538  0.37815553  1
  O  O310  1  0.24795520  0.73085826  0.87241061  1
  O  O311  1  0.73562999  0.24863102  0.38195243  1
  O  O312  1  0.74436955  0.24482555  0.88199759  1
  O  O313  1  0.74280199  0.75168778  0.37973158  1
  O  O314  1  0.74824507  0.73606384  0.87613174  1
  O  O315  1  -0.00188113  0.11931296  0.01810647  1
  O  O316  1  0.01639700  0.11885923  0.50098004  1
  O  O317  1  -0.00734514  0.61670207  0.00762952  1
  O  O318  1  0.00612394  0.62406430  0.50822800  1
  O  O319  1  0.50811710  0.12901126  0.01249962  1
  O  O320  1  0.51377468  0.12755366  0.51265527  1
  O  O321  1  0.50116827  0.61718983  0.00677897  1
  O  O322  1  0.50137158  0.61833394  0.50958815  1
  O  O323  1  0.49230638  0.38615326  0.50988025  1
  O  O324  1  0.49337985  0.37832052  0.99103505  1
  O  O325  1  0.49078343  0.86895682  0.49370799  1
  O  O326  1  0.48096512  0.87709042  1.00876342  1
  O  O327  1  0.99222577  0.38288538  0.50244348  1
  O  O328  1  0.99019447  0.38216422  0.99358017  1
  O  O329  1  0.99736202  0.87534145  0.48925534  1
  O  O330  1  1.00670664  0.88396105  0.99152381  1
  O  O331  1  0.49872913  0.50637371  0.38875671  1
  O  O332  1  0.49262610  0.49267481  0.88024424  1
  O  O333  1  0.49272968  0.99053976  0.37204284  1
  O  O334  1  0.49196782  1.00805922  0.88676934  1
  O  O335  1  1.00454388  0.52081854  0.39679083  1
  O  O336  1  0.99034092  0.50123101  0.88090897  1
  O  O337  1  0.98879665  0.99095392  0.37399030  1
  O  O338  1  0.99704424  0.99322754  0.87847985  1
  O  O339  1  0.00130088  0.00985288  0.12340170  1
  O  O340  1  0.00954122  0.00018498  0.62316575  1
  O  O341  1  0.00093336  0.50480986  0.11561644  1
  O  O342  1  0.00647462  0.50504001  0.61670093  1
  O  O343  1  0.49465505  0.01434746  0.12309585  1
  O  O344  1  0.50204199  0.01222724  0.62303145  1
  O  O345  1  0.50372061  0.50387220  0.12047627  1
  O  O346  1  0.50052813  0.51181719  0.61940716  1
  O  O347  1  0.26425139  0.39149572  0.24564415  1
  O  O348  1  0.25560438  0.38564182  0.74025368  1
  O  O349  1  0.24226762  0.88294342  0.25010926  1
  O  O350  1  0.24345239  0.87877157  0.74780641  1
  O  O351  1  0.75324882  0.38242950  0.23619050  1
  O  O352  1  0.74375814  0.37185641  0.74057025  1
  O  O353  1  0.74761992  0.89013672  0.24127927  1
  O  O354  1  0.74627435  0.88186564  0.74768716  1
  O  O355  1  0.26424851  0.11900218  0.24683309  1
  O  O356  1  0.26179068  0.11554467  0.74751388  1
  O  O357  1  0.26178740  0.61759519  0.25121116  1
  O  O358  1  0.25283485  0.61286176  0.75673892  1
  O  O359  1  0.76313999  0.11317464  0.24341785  1
  O  O360  1  0.75458423  0.11950284  0.75458575  1
  O  O361  1  0.75283671  0.62058665  0.25189052  1
  O  O362  1  0.74679797  0.62656165  0.76326036  1
  O  O363  1  0.38301518  0.11814224  0.37123064  1
  O  O364  1  0.37427686  0.13009976  0.85901117  1
  O  O365  1  0.37019851  0.62515916  0.36678391  1
  O  O366  1  0.36900876  0.61520577  0.86808013  1
  O  O367  1  0.88158131  0.11664731  0.36599441  1
  O  O368  1  0.87249307  0.12078127  0.87095888  1
  O  O369  1  0.87707842  0.60893255  0.35835857  1
  O  O370  1  0.86257150  0.61893067  0.87227662  1
  O  O371  1  0.12176892  0.38690744  0.12226540  1
  O  O372  1  0.13679914  0.38210861  0.61592457  1
  O  O373  1  0.13286425  0.87440666  0.14051211  1
  O  O374  1  0.12781932  0.88526263  0.62975200  1
  O  O375  1  0.63335252  0.37988625  0.11682187  1
  O  O376  1  0.63274875  0.37421480  0.63519480  1
  O  O377  1  0.63320461  0.87793306  0.12377850  1
  O  O378  1  0.63832980  0.87070510  0.64043077  1
  O  O379  1  0.12962468  0.26827849  0.25303352  1
  O  O380  1  0.12986076  0.24964986  0.75708281  1
  O  O381  1  0.11542014  0.75691522  0.25286695  1
  O  O382  1  0.11890405  0.76206731  0.74054964  1
  O  O383  1  0.61923486  0.24468525  0.26530609  1
  O  O384  1  0.63013375  0.26008832  0.76370895  1
  O  O385  1  0.61040108  0.74579718  0.25867086  1
  O  O386  1  0.61497132  0.75732360  0.75564387  1
  O  O387  1  0.37983825  0.24607787  0.24761140  1
  O  O388  1  0.37007705  0.24147583  0.73848529  1
  O  O389  1  0.38526033  0.74420603  0.24858859  1
  O  O390  1  0.38089024  0.74484558  0.74390002  1
  O  O391  1  0.86848164  0.24166710  0.23974990  1
  O  O392  1  0.87242956  0.23523792  0.75004029  1
  O  O393  1  0.87927258  0.74302031  0.24905172  1
  O  O394  1  0.88503156  0.74825252  0.75151138  1
  O  O395  1  0.38384742  0.49165966  0.49937360  1
  O  O396  1  0.37700592  0.48695311  0.99739465  1
  O  O397  1  0.37095668  0.99266418  0.49134174  1
  O  O398  1  0.36151892  0.98258653  1.00098643  1
  O  O399  1  0.88479805  0.48913421  0.48313883  1
  O  O400  1  0.88270903  0.49301997  0.99512255  1
  O  O401  1  0.87433561  0.99784731  0.49028461  1
  O  O402  1  0.87164048  0.99993763  0.98690149  1
  O  O403  1  0.14927179  0.00377216  0.00126197  1
  O  O404  1  0.12575406  0.00526141  0.50711597  1
  O  O405  1  0.11122926  0.49592284  0.00469905  1
  O  O406  1  0.12194078  0.50548761  0.51057014  1
  O  O407  1  0.62640187  0.01666964  -0.00355315  1
  O  O408  1  0.63295124  0.01554258  0.49556539  1
  O  O409  1  0.61746946  0.50903021  0.00472983  1
  O  O410  1  0.61878117  0.50133742  0.50340708  1
  O  O411  1  0.37579018  0.36397507  0.11677092  1
  O  O412  1  0.37010095  0.36774480  0.61913532  1
  O  O413  1  0.36920195  0.86964191  0.12138949  1
  O  O414  1  0.37576515  0.86877425  0.61619011  1
  O  O415  1  0.86886831  0.36844643  0.11441343  1
  O  O416  1  0.86895516  0.37379966  0.60998457  1
  O  O417  1  0.85995696  0.87568724  0.12408991  1
  O  O418  1  0.86148548  0.87978478  0.62808220  1
  O  O419  1  0.12778940  0.11461781  0.38364545  1
  O  O420  1  0.13227297  0.13992871  0.87259702  1
  O  O421  1  0.13173450  0.63179708  0.37819470  1
  O  O422  1  0.13617063  0.61666181  0.87128026  1
  O  O423  1  0.61979234  0.13421233  0.39209427  1
  O  O424  1  0.63113590  0.13354971  0.87993837  1
  O  O425  1  0.62633209  0.63927602  0.37883431  1
  O  O426  1  0.63527162  0.62404986  0.88232352  1
