# generated using pymatgen
data_V85Zn86O256
_symmetry_space_group_name_H-M   'P 1'
_cell_length_a   16.93618141
_cell_length_b   16.95448012
_cell_length_c   16.94600180
_cell_angle_alpha   90.09222259
_cell_angle_beta   90.06222316
_cell_angle_gamma   90.06725889
_symmetry_Int_Tables_number   1
_chemical_formula_structural   V85Zn86O256
_chemical_formula_sum   'V85 Zn86 O256'
_cell_volume   4865.93276572
_cell_formula_units_Z   1
loop_
 _symmetry_equiv_pos_site_id
 _symmetry_equiv_pos_as_xyz
  1  'x, y, z'
loop_
 _atom_site_type_symbol
 _atom_site_label
 _atom_site_symmetry_multiplicity
 _atom_site_fract_x
 _atom_site_fract_y
 _atom_site_fract_z
 _atom_site_occupancy
  V  V0  1  0.11217752  0.12147581  0.00190203  1
  V  V1  1  0.86769643  -0.00303895  0.36911893  1
  V  V2  1  0.62330411  0.37025263  0.24950267  1
  V  V3  1  0.00004713  0.62511032  0.62597238  1
  V  V4  1  0.38601296  0.50261483  0.37963147  1
  V  V5  1  0.49819610  0.13961988  0.13268705  1
  V  V6  1  0.25274806  0.37544289  0.62386162  1
  V  V7  1  0.12215111  0.62239215  0.01304978  1
  V  V8  1  0.13580608  -0.00228861  0.62935935  1
  V  V9  1  0.12814804  0.88102073  0.25097782  1
  V  V10  1  0.87328051  0.74794932  0.62396949  1
  V  V11  1  0.11816143  0.37429942  0.75304523  1
  V  V12  1  0.36803561  0.12868386  0.24377989  1
  V  V13  1  0.73968305  0.62684973  0.37194097  1
  V  V14  1  0.50287343  0.87043348  0.37455928  1
  V  V15  1  0.49816949  0.00162960  0.49752933  1
  V  V16  1  0.75466039  0.37191438  0.12733043  1
  V  V17  1  0.12910036  0.49929752  0.62560199  1
  V  V18  1  0.62163558  0.50756383  0.60817272  1
  V  V19  1  0.00121851  0.75210324  0.75247016  1
  V  V20  1  0.36912062  0.87869289  0.50521634  1
  V  V21  1  0.49841159  0.74978478  0.74734355  1
  V  V22  1  0.10757307  0.00081928  0.12098968  1
  V  V23  1  0.62417814  -0.00018697  0.62405741  1
  V  V24  1  0.37971908  0.25151821  0.62952523  1
  V  V25  1  0.24644284  0.62392009  0.87832660  1
  V  V26  1  0.62466693  0.39864162  0.75393580  1
  V  V27  1  0.11808361  0.25307383  0.87478299  1
  V  V28  1  0.49768035  0.00084641  0.00511449  1
  V  V29  1  0.25487885  0.25357667  0.49675301  1
  V  V30  1  0.00118529  0.37631894  0.37596031  1
  V  V31  1  0.74968297  0.75128322  -0.00157277  1
  V  V32  1  0.12635117  0.38053556  0.23432969  1
  V  V33  1  0.75344862  -0.00108088  0.74938876  1
  V  V34  1  0.74767346  0.24810886  0.00020172  1
  V  V35  1  0.75074505  0.87396560  0.62292525  1
  V  V36  1  0.24894576  0.75081610  0.00468174  1
  V  V37  1  0.88095565  0.24006306  0.12227276  1
  V  V38  1  0.36945278  0.00135020  0.87248396  1
  V  V39  1  0.24665929  0.75371191  0.50666752  1
  V  V40  1  0.62627569  -0.00048216  0.13079764  1
  V  V41  1  0.39483939  0.38102487  0.50412413  1
  V  V42  1  0.00266164  0.88274449  0.87674664  1
  V  V43  1  0.62245137  0.87564604  0.74988820  1
  V  V44  1  0.24998647  0.49961700  0.75092524  1
  V  V45  1  0.37306993  0.87623177  0.00334330  1
  V  V46  1  0.50166367  0.13068449  0.62882061  1
  V  V47  1  0.12740429  0.25306002  0.37495291  1
  V  V48  1  0.74223182  0.74669803  0.49602169  1
  V  V49  1  0.87406160  0.48959498  0.86919209  1
  V  V50  1  0.49876754  0.36540745  0.37242271  1
  V  V51  1  0.25363935  0.62140500  0.37310402  1
  V  V52  1  0.24721778  0.12660032  0.87396772  1
  V  V53  1  0.00175249  0.24138723  0.24650221  1
  V  V54  1  -0.00099292  0.87439849  0.37542433  1
  V  V55  1  0.12724422  0.62277250  0.50046147  1
  V  V56  1  0.86646708  0.36354034  0.50249477  1
  V  V57  1  0.12445498  0.74976177  0.37456679  1
  V  V58  1  0.88143096  0.88107650  0.00130420  1
  V  V59  1  -0.00339861  0.74167160  0.24893324  1
  V  V60  1  0.62363029  0.75166044  0.87736788  1
  V  V61  1  0.00123076  0.49163680  -0.00011141  1
  V  V62  1  0.75030134  0.12273167  0.87548349  1
  V  V63  1  0.61738019  0.24664785  0.86353650  1
  V  V64  1  -0.00647652  0.13240581  0.62866762  1
  V  V65  1  0.37591494  0.62345385  0.74548102  1
  V  V66  1  0.75705395  0.50315830  0.24826964  1
  V  V67  1  0.37575218  0.74559709  0.13838546  1
  V  V68  1  0.86726427  0.62285897  0.75190388  1
  V  V69  1  0.12625727  0.12723188  0.50287520  1
  V  V70  1  0.25099233  0.88831673  0.13006421  1
  V  V71  1  0.25080792  0.11868513  0.37257028  1
  V  V72  1  0.75171088  0.87829701  0.13127691  1
  V  V73  1  0.37938429  0.49429481  0.88441074  1
  V  V74  1  0.25351014  0.25933257  0.01096942  1
  V  V75  1  0.37688611  0.12893079  0.75354321  1
  V  V76  1  0.13931565  0.87668847  0.74814061  1
  V  V77  1  -0.00180143  -0.00045861  0.50293370  1
  V  V78  1  0.63136185  0.12897659  0.49698318  1
  V  V79  1  0.37429308  0.75117571  0.62562320  1
  V  V80  1  0.62623427  0.86879971  0.25339846  1
  V  V81  1  0.87718405  0.50942338  0.37567601  1
  V  V82  1  0.75305988  0.13154671  0.36828882  1
  V  V83  1  0.87344963  0.73824514  0.12555244  1
  V  V84  1  0.25418818  0.49762875  0.24233915  1
  Zn  Zn85  1  0.62262199  0.12468474  0.00259561  1
  Zn  Zn86  1  0.39084741  0.37860393  0.02973322  1
  Zn  Zn87  1  0.62101066  0.49821867  0.11519283  1
  Zn  Zn88  1  -0.00540524  0.61615634  0.12867486  1
  Zn  Zn89  1  0.74650774  0.61969399  0.87146836  1
  Zn  Zn90  1  0.49773560  0.87811749  0.87616669  1
  Zn  Zn91  1  0.50080934  0.61421355  0.12569046  1
  Zn  Zn92  1  0.50380727  0.73939444  0.25484967  1
  Zn  Zn93  1  0.87042479  0.13340162  0.74502189  1
  Zn  Zn94  1  0.60662090  0.62980804  0.49341091  1
  Zn  Zn95  1  0.88002861  0.36919568  -0.00685383  1
  Zn  Zn96  1  0.37058941  -0.00169365  0.36771366  1
  Zn  Zn97  1  0.61199893  0.61472728  -0.00231306  1
  Zn  Zn98  1  0.12446869  0.75102884  0.87806838  1
  Zn  Zn99  1  0.75398530  0.37051424  0.63258203  1
  Zn  Zn100  1  0.87700821  0.11607887  0.24260826  1
  Zn  Zn101  1  0.87379030  0.87204669  0.49892639  1
  Zn  Zn102  1  0.62529256  0.24941330  0.37026063  1
  Zn  Zn103  1  -0.01418229  0.26028058  0.75127252  1
  Zn  Zn104  1  0.49704850  0.36962644  0.87899476  1
  Zn  Zn105  1  -0.00211682  0.49860559  0.50178442  1
  Zn  Zn106  1  0.87913535  0.00215880  0.87712494  1
  Zn  Zn107  1  0.18057419  0.18037859  0.18809600  1
  Zn  Zn108  1  0.18766666  0.18724581  0.68904324  1
  Zn  Zn109  1  0.19081553  0.68923640  0.19051194  1
  Zn  Zn110  1  0.18856610  0.68835423  0.68876516  1
  Zn  Zn111  1  0.68869657  0.18542583  0.18995081  1
  Zn  Zn112  1  0.69660001  0.18937899  0.68449889  1
  Zn  Zn113  1  0.68584814  0.68402037  0.18565281  1
  Zn  Zn114  1  0.68453676  0.68608621  0.68493639  1
  Zn  Zn115  1  0.31039768  0.30742981  0.19501198  1
  Zn  Zn116  1  0.30619921  0.31082597  0.81393101  1
  Zn  Zn117  1  0.30982286  0.81675195  0.31771277  1
  Zn  Zn118  1  0.31320708  0.81076335  0.81802169  1
  Zn  Zn119  1  0.81783523  0.31159804  0.31208599  1
  Zn  Zn120  1  0.80663838  0.31074969  0.80784051  1
  Zn  Zn121  1  0.81238139  0.80929147  0.31082635  1
  Zn  Zn122  1  0.81408683  0.81342144  0.81306829  1
  Zn  Zn123  1  0.19258281  0.43744881  0.43723725  1
  Zn  Zn124  1  0.18500031  0.43731139  0.93869106  1
  Zn  Zn125  1  0.18434191  0.93815722  0.44135095  1
  Zn  Zn126  1  0.18637002  0.93947618  0.93930425  1
  Zn  Zn127  1  0.68698383  0.43900366  0.43500897  1
  Zn  Zn128  1  0.69249327  0.43146426  0.93333912  1
  Zn  Zn129  1  0.68763407  0.93809106  0.43717018  1
  Zn  Zn130  1  0.68673745  0.93630891  0.94096099  1
  Zn  Zn131  1  0.30805694  0.06794402  0.06146094  1
  Zn  Zn132  1  0.31427340  0.06535676  0.56271236  1
  Zn  Zn133  1  0.31483830  0.56277172  0.06389830  1
  Zn  Zn134  1  0.44036956  0.56496982  0.56548826  1
  Zn  Zn135  1  0.81186271  0.06026098  0.06160978  1
  Zn  Zn136  1  0.81267834  0.06233629  0.55742709  1
  Zn  Zn137  1  0.78622886  0.54740063  0.04160323  1
  Zn  Zn138  1  0.80548302  0.55599808  0.56090305  1
  Zn  Zn139  1  0.44054097  0.44350488  0.19202328  1
  Zn  Zn140  1  0.44649207  0.43481604  0.69613464  1
  Zn  Zn141  1  0.43667387  0.94163503  0.19197467  1
  Zn  Zn142  1  0.43423859  0.94053117  0.68795578  1
  Zn  Zn143  1  0.93619499  0.43361251  0.18542953  1
  Zn  Zn144  1  0.93626042  0.43890735  0.68277471  1
  Zn  Zn145  1  0.93766329  0.92933679  0.19040987  1
  Zn  Zn146  1  0.93926969  0.93758861  0.68718552  1
  Zn  Zn147  1  0.06345145  0.06018316  0.31518213  1
  Zn  Zn148  1  0.06542725  0.06225640  0.80891548  1
  Zn  Zn149  1  0.06534096  0.56053440  0.31175896  1
  Zn  Zn150  1  0.05889098  0.56195977  0.81671690  1
  Zn  Zn151  1  0.56134313  0.05960007  0.30981919  1
  Zn  Zn152  1  0.56143207  0.06308949  0.81378665  1
  Zn  Zn153  1  0.56446945  0.55869388  0.30005502  1
  Zn  Zn154  1  0.55606852  0.56933397  0.81761792  1
  Zn  Zn155  1  0.43535649  0.18826217  0.43572596  1
  Zn  Zn156  1  0.43580263  0.18958443  0.94611284  1
  Zn  Zn157  1  0.43206751  0.69249180  0.43240505  1
  Zn  Zn158  1  0.43518426  0.68700277  0.93924493  1
  Zn  Zn159  1  0.93784476  0.18677140  0.43579474  1
  Zn  Zn160  1  0.93524361  0.18710327  0.93223068  1
  Zn  Zn161  1  0.93579034  0.68684982  0.43948619  1
  Zn  Zn162  1  0.93732966  0.68708274  0.93790572  1
  Zn  Zn163  1  0.06251850  0.30939496  0.05953592  1
  Zn  Zn164  1  0.06105844  0.31448761  0.56059517  1
  Zn  Zn165  1  0.06190889  0.81078501  0.06399346  1
  Zn  Zn166  1  0.06239425  0.81498096  0.56591150  1
  Zn  Zn167  1  0.56667688  0.31822258  0.05860393  1
  Zn  Zn168  1  0.59659898  0.29687091  0.58195182  1
  Zn  Zn169  1  0.55953982  0.80986307  0.06353987  1
  Zn  Zn170  1  0.55923092  0.80964604  0.56180593  1
  O  O171  1  0.12491349  0.11234318  0.11599891  1
  O  O172  1  0.11729745  0.11788655  0.62140344  1
  O  O173  1  0.12331723  0.62868490  0.11526035  1
  O  O174  1  0.12268347  0.61892128  0.61963890  1
  O  O175  1  0.61477022  0.11741187  0.12776383  1
  O  O176  1  0.61888901  0.11702677  0.61668087  1
  O  O177  1  0.62789529  0.61991027  0.11646871  1
  O  O178  1  0.62888380  0.61103675  0.62051656  1
  O  O179  1  0.38519695  0.38557821  0.38914001  1
  O  O180  1  0.37264176  0.39057303  0.86561905  1
  O  O181  1  0.38017420  0.87998728  0.38692316  1
  O  O182  1  0.37421632  0.88555394  0.88277346  1
  O  O183  1  0.88690827  0.38038018  0.38048174  1
  O  O184  1  0.87416412  0.38613611  0.87062746  1
  O  O185  1  0.88063626  0.88112850  0.37610540  1
  O  O186  1  0.88391800  0.87586600  0.88267702  1
  O  O187  1  0.24744231  0.01548909  0.38415515  1
  O  O188  1  0.26205094  0.01006104  0.88375820  1
  O  O189  1  0.25653058  0.50707143  0.37271009  1
  O  O190  1  0.25420132  0.50623956  0.86970392  1
  O  O191  1  0.76366727  0.00491446  0.37948881  1
  O  O192  1  0.74766046  0.00604331  0.86741163  1
  O  O193  1  0.75833919  0.50750154  0.36935973  1
  O  O194  1  0.76974363  0.50301112  0.87377776  1
  O  O195  1  0.25123541  0.51002753  0.14423745  1
  O  O196  1  0.23729176  0.49579325  0.63324188  1
  O  O197  1  0.24246105  0.99029553  0.12144378  1
  O  O198  1  0.23488066  1.00497848  0.61767826  1
  O  O199  1  0.76424544  0.48564224  0.13605375  1
  O  O200  1  0.72943746  0.49054138  0.61900707  1
  O  O201  1  0.73971583  0.99043385  0.11955644  1
  O  O202  1  0.74532554  0.99545343  0.63012163  1
  O  O203  1  0.01011932  0.37027427  0.25641770  1
  O  O204  1  0.01431862  0.37512846  0.73939237  1
  O  O205  1  0.00823886  0.86242213  0.25693600  1
  O  O206  1  0.00380237  0.86494540  0.75565973  1
  O  O207  1  0.51224994  0.37941546  0.26065465  1
  O  O208  1  0.51815436  0.37552044  0.76386096  1
  O  O209  1  0.50755573  0.87648360  0.25944147  1
  O  O210  1  0.50476099  0.87198937  0.75331563  1
  O  O211  1  0.49273008  0.12293407  0.23816344  1
  O  O212  1  0.49126804  0.11851593  0.74011775  1
  O  O213  1  0.50200752  0.62814253  0.24171563  1
  O  O214  1  0.48723854  0.63739167  0.75679208  1
  O  O215  1  1.00267675  0.13867638  0.25581747  1
  O  O216  1  0.99793537  0.12334639  0.73563661  1
  O  O217  1  1.00777281  0.63688730  0.24768679  1
  O  O218  1  0.99691304  0.63692214  0.74612547  1
  O  O219  1  0.35640707  0.25395750  -0.00270559  1
  O  O220  1  0.37015544  0.25692127  0.50812145  1
  O  O221  1  0.36664882  0.76079187  0.00747125  1
  O  O222  1  0.36380812  0.75962062  0.50465027  1
  O  O223  1  0.86772083  0.24876319  0.00388728  1
  O  O224  1  0.87992865  0.26496697  0.49603952  1
  O  O225  1  0.87107274  0.76171746  0.00602649  1
  O  O226  1  0.86645290  0.74977377  0.50866729  1
  O  O227  1  0.13336732  0.24660015  0.49670870  1
  O  O228  1  0.13084329  0.24316455  0.99366284  1
  O  O229  1  0.12882793  0.74697222  0.49607037  1
  O  O230  1  0.13110839  0.74145631  0.99972208  1
  O  O231  1  0.61142376  0.22947750  0.48647422  1
  O  O232  1  0.63818994  0.24635401  0.99398518  1
  O  O233  1  0.63835508  0.74897941  0.50491563  1
  O  O234  1  0.63304217  0.75815965  0.99066399  1
  O  O235  1  0.50689556  0.23682196  0.12321089  1
  O  O236  1  0.49961657  0.23617907  0.62132981  1
  O  O237  1  0.48084265  0.76153589  0.13162048  1
  O  O238  1  0.49195358  0.75743303  0.63991558  1
  O  O239  1  0.99288181  0.25399444  0.13282559  1
  O  O240  1  1.00806317  0.23416434  0.62542554  1
  O  O241  1  0.99137023  0.74794864  0.13284150  1
  O  O242  1  0.99387404  0.74532186  0.63187374  1
  O  O243  1  0.00546441  0.25761577  0.36769360  1
  O  O244  1  0.01327604  0.24564813  0.87040571  1
  O  O245  1  0.00407968  0.75357573  0.36985305  1
  O  O246  1  0.00208496  0.75777623  0.86657996  1
  O  O247  1  0.49785338  0.26253633  0.37401615  1
  O  O248  1  0.51591427  0.24086554  0.88039371  1
  O  O249  1  0.49487506  0.76666790  0.37179985  1
  O  O250  1  0.50478639  0.75540852  0.86529115  1
  O  O251  1  0.24625728  0.13402898  0.49645429  1
  O  O252  1  0.24308602  0.13542338  0.99085785  1
  O  O253  1  0.23490837  0.63572337  0.49150446  1
  O  O254  1  0.24226950  0.62783242  0.99579736  1
  O  O255  1  0.74148177  0.11793048  0.48684609  1
  O  O256  1  0.74711473  0.12857201  0.99154974  1
  O  O257  1  0.74819185  0.63194129  0.49051538  1
  O  O258  1  0.75893283  0.64731174  0.99080611  1
  O  O259  1  0.24422634  0.35971260  -0.00043789  1
  O  O260  1  0.25987725  0.36879524  0.50599609  1
  O  O261  1  0.25264692  0.87089924  0.00972992  1
  O  O262  1  0.25621803  0.86635701  0.49458448  1
  O  O263  1  0.75695709  0.36251426  0.00769616  1
  O  O264  1  0.76561291  0.37570295  0.49028060  1
  O  O265  1  0.75731477  0.86813144  0.00769576  1
  O  O266  1  0.75153033  0.86753608  0.50505232  1
  O  O267  1  0.13306808  0.48613347  0.25564848  1
  O  O268  1  0.12840076  0.49510833  0.74595256  1
  O  O269  1  0.11749098  0.98759076  0.24328990  1
  O  O270  1  0.12380285  0.98976763  0.74115329  1
  O  O271  1  0.64350588  0.48604830  0.24920217  1
  O  O272  1  0.62760802  0.49922552  0.76064136  1
  O  O273  1  0.61960743  0.98967143  0.23648108  1
  O  O274  1  0.63323546  0.99608828  0.74515024  1
  O  O275  1  0.37749057  0.01661194  0.25368445  1
  O  O276  1  0.37716343  0.01143279  0.76169986  1
  O  O277  1  0.35818257  0.49524390  0.26517245  1
  O  O278  1  0.36897349  0.50830924  0.75609045  1
  O  O279  1  0.88760056  0.00116719  0.26369252  1
  O  O280  1  0.86143053  -0.00023298  0.75064983  1
  O  O281  1  0.86694121  0.49072058  0.26181564  1
  O  O282  1  0.88702110  0.50920622  0.76044651  1
  O  O283  1  0.11501984  0.37082283  0.37590758  1
  O  O284  1  0.12961766  0.36652791  0.86426315  1
  O  O285  1  0.12004261  0.87152496  0.36860685  1
  O  O286  1  0.11964265  0.87420330  0.86786982  1
  O  O287  1  0.61686901  0.37396686  0.36950173  1
  O  O288  1  0.62721900  0.36195783  0.86845791  1
  O  O289  1  0.61710457  0.88290091  0.36546953  1
  O  O290  1  0.62235379  0.86777895  0.86844466  1
  O  O291  1  0.38461264  0.12203912  0.13292647  1
  O  O292  1  0.38165696  0.12941981  0.63365564  1
  O  O293  1  0.36891938  0.64442506  0.12414182  1
  O  O294  1  0.37131856  0.63209452  0.64015686  1
  O  O295  1  0.87131668  0.13460001  0.12574579  1
  O  O296  1  0.88999068  0.11893159  0.62230272  1
  O  O297  1  0.87197603  0.63812642  0.11656852  1
  O  O298  1  0.87983370  0.62573050  0.63113172  1
  O  O299  1  0.24425259  0.24556992  0.11512782  1
  O  O300  1  0.25631853  0.25351016  0.61587236  1
  O  O301  1  0.25743621  0.76066867  0.12365534  1
  O  O302  1  0.25428850  0.74602746  0.61266087  1
  O  O303  1  0.75623762  0.25072581  0.11776572  1
  O  O304  1  0.70695145  0.26801964  0.60995820  1
  O  O305  1  0.75593170  0.75890526  0.11828197  1
  O  O306  1  0.75492255  0.75408007  0.61898139  1
  O  O307  1  0.24481927  0.24039458  0.38969550  1
  O  O308  1  0.23870067  0.24411697  0.88320655  1
  O  O309  1  0.24394508  0.74239846  0.38261087  1
  O  O310  1  0.24935903  0.74046890  0.88550636  1
  O  O311  1  0.75232962  0.23436494  0.37319568  1
  O  O312  1  0.74242188  0.24057536  0.88167227  1
  O  O313  1  0.75780651  0.73871468  0.38308561  1
  O  O314  1  0.73988308  0.75524964  0.88002159  1
  O  O315  1  0.01291234  0.12740020  -0.00701581  1
  O  O316  1  0.00534217  0.11931330  0.50773607  1
  O  O317  1  0.00789833  0.61872223  0.00222670  1
  O  O318  1  0.01198173  0.62559263  0.50634316  1
  O  O319  1  0.49870723  0.11860983  0.01497708  1
  O  O320  1  0.50184589  0.11593826  0.50476545  1
  O  O321  1  0.50157624  0.63769510  0.01103645  1
  O  O322  1  0.49560703  0.64118824  0.50613863  1
  O  O323  1  0.49546692  0.36895175  0.49774398  1
  O  O324  1  0.49484939  0.36660471  0.99104561  1
  O  O325  1  0.49379744  0.88197748  0.49514292  1
  O  O326  1  0.49147541  0.88428226  0.99964405  1
  O  O327  1  0.99346949  0.37777995  0.49176369  1
  O  O328  1  0.99980122  0.38696018  0.99902847  1
  O  O329  1  0.99919672  0.88266818  0.49431716  1
  O  O330  1  0.99392881  0.86833037  0.98943526  1
  O  O331  1  0.48889146  0.49517338  0.36932726  1
  O  O332  1  0.48112096  0.50389359  0.87641065  1
  O  O333  1  0.49868931  0.99386363  0.38637007  1
  O  O334  1  0.49036000  1.00413195  0.88869981  1
  O  O335  1  0.99447529  0.49349946  0.37561976  1
  O  O336  1  0.98839997  0.50536369  0.88785062  1
  O  O337  1  0.99493086  0.99569635  0.38516637  1
  O  O338  1  0.99836424  0.98674880  0.86675343  1
  O  O339  1  0.00843189  -0.00982616  0.12325934  1
  O  O340  1  0.00594433  0.00721145  0.61818610  1
  O  O341  1  -0.01198369  0.50111666  0.10681278  1
  O  O342  1  0.01298034  0.50744327  0.62371667  1
  O  O343  1  0.50529495  0.00344202  0.11662966  1
  O  O344  1  0.50302070  0.00726681  0.61534427  1
  O  O345  1  0.50752705  0.49791982  0.12396033  1
  O  O346  1  0.51278769  0.50462695  0.63232454  1
  O  O347  1  0.23461563  0.38388983  0.25284752  1
  O  O348  1  0.24070804  0.37938815  0.74198300  1
  O  O349  1  0.23913010  0.87343199  0.24448887  1
  O  O350  1  0.23846155  0.86848683  0.75352750  1
  O  O351  1  0.74962871  0.37819674  0.24444730  1
  O  O352  1  0.72788397  0.37194493  0.75013369  1
  O  O353  1  0.74511281  0.87284968  0.23891855  1
  O  O354  1  0.74382322  0.88082318  0.74423084  1
  O  O355  1  0.25635967  0.12647057  0.25813649  1
  O  O356  1  0.25638760  0.12943097  0.76549740  1
  O  O357  1  0.23702796  0.61115638  0.26338612  1
  O  O358  1  0.25483824  0.62189614  0.75951386  1
  O  O359  1  0.75395873  0.12154736  0.26363176  1
  O  O360  1  0.74837586  0.11562846  0.75488379  1
  O  O361  1  0.74978826  0.61516486  0.25780505  1
  O  O362  1  0.76442782  0.63242548  0.75069461  1
  O  O363  1  0.36662293  0.12324305  0.36707051  1
  O  O364  1  0.36984715  0.12233860  0.87111735  1
  O  O365  1  0.36109887  0.61804702  0.38061553  1
  O  O366  1  0.36312273  0.61695587  0.87090167  1
  O  O367  1  0.86588234  0.11741188  0.37502941  1
  O  O368  1  0.86207926  0.12042326  0.87173367  1
  O  O369  1  0.87105727  0.61289073  0.37815236  1
  O  O370  1  0.87560605  0.61941137  0.86507351  1
  O  O371  1  0.12084275  0.37595457  0.13636584  1
  O  O372  1  0.13122386  0.38237049  0.62753154  1
  O  O373  1  0.13085319  0.87961462  0.13212700  1
  O  O374  1  0.12031551  0.88498170  0.63592160  1
  O  O375  1  0.64071336  0.37395688  0.13048439  1
  O  O376  1  0.61349082  0.39491240  0.64399884  1
  O  O377  1  0.63220241  0.88055498  0.12938821  1
  O  O378  1  0.62952029  0.88089811  0.62986645  1
  O  O379  1  0.12156459  0.26119986  0.25425550  1
  O  O380  1  0.12502910  0.25833392  0.75724902  1
  O  O381  1  0.11993543  0.75913441  0.25611013  1
  O  O382  1  0.11721566  0.75719831  0.75060321  1
  O  O383  1  0.63322742  0.26431234  0.25255888  1
  O  O384  1  0.62438733  0.24236291  0.76443811  1
  O  O385  1  0.62459664  0.76531603  0.24404257  1
  O  O386  1  0.61703039  0.75374619  0.75479214  1
  O  O387  1  0.37212002  0.22979404  0.25213396  1
  O  O388  1  0.37088871  0.23810589  0.74610660  1
  O  O389  1  0.37107121  0.75600100  0.24042157  1
  O  O390  1  0.37935686  0.74544334  0.74794419  1
  O  O391  1  0.88604824  0.24653433  0.24196176  1
  O  O392  1  0.87371368  0.24721497  0.74714698  1
  O  O393  1  0.88520638  0.75473241  0.23914185  1
  O  O394  1  0.88266690  0.74444033  0.74436813  1
  O  O395  1  0.37842442  0.49171218  0.49565554  1
  O  O396  1  0.36211957  0.49358371  0.98672254  1
  O  O397  1  0.38151949  0.99492979  0.49953625  1
  O  O398  1  0.37952250  0.99673846  0.99678488  1
  O  O399  1  0.87763149  0.49345279  0.48964691  1
  O  O400  1  0.88159203  0.49640617  0.98580529  1
  O  O401  1  0.88642225  0.99721633  0.49276694  1
  O  O402  1  0.87178717  0.98530520  0.99797855  1
  O  O403  1  0.12665736  0.00916469  0.00837558  1
  O  O404  1  0.11386502  0.00532226  0.50629640  1
  O  O405  1  0.11035185  0.50668641  -0.00552858  1
  O  O406  1  0.12619066  0.50767989  0.50792867  1
  O  O407  1  0.61519108  0.00080087  0.00928061  1
  O  O408  1  0.61661435  0.00660755  0.50414092  1
  O  O409  1  0.66946966  0.51216140  0.00669146  1
  O  O410  1  0.61828679  0.50241579  0.50569261  1
  O  O411  1  0.36375914  0.38302121  0.13621766  1
  O  O412  1  0.37445696  0.37094584  0.62396100  1
  O  O413  1  0.36584428  0.87336337  0.12326941  1
  O  O414  1  0.37733667  0.87123682  0.61264761  1
  O  O415  1  0.86717067  0.35901661  0.12404811  1
  O  O416  1  0.87121889  0.38161412  0.60839952  1
  O  O417  1  0.86797384  0.86909906  0.11955154  1
  O  O418  1  0.86864245  0.86760312  0.62427952  1
  O  O419  1  0.13060127  0.13208208  0.38151807  1
  O  O420  1  0.13145795  0.12895230  0.87904370  1
  O  O421  1  0.12865942  0.62923666  0.38363984  1
  O  O422  1  0.13590008  0.62568300  0.88054394  1
  O  O423  1  0.63764577  0.11993570  0.37652772  1
  O  O424  1  0.63327529  0.13064479  0.87794174  1
  O  O425  1  0.63662872  0.61793206  0.37620065  1
  O  O426  1  0.62750423  0.63915444  0.87764502  1
