# generated using pymatgen
data_V85Zn86O256
_symmetry_space_group_name_H-M   'P 1'
_cell_length_a   16.96478531
_cell_length_b   16.95595631
_cell_length_c   16.96900818
_cell_angle_alpha   90.05465829
_cell_angle_beta   89.97958103
_cell_angle_gamma   89.99173689
_symmetry_Int_Tables_number   1
_chemical_formula_structural   V85Zn86O256
_chemical_formula_sum   'V85 Zn86 O256'
_cell_volume   4881.20318638
_cell_formula_units_Z   1
loop_
 _symmetry_equiv_pos_site_id
 _symmetry_equiv_pos_as_xyz
  1  'x, y, z'
loop_
 _atom_site_type_symbol
 _atom_site_label
 _atom_site_symmetry_multiplicity
 _atom_site_fract_x
 _atom_site_fract_y
 _atom_site_fract_z
 _atom_site_occupancy
  V  V0  1  0.73428028  -0.00462378  0.74645711  1
  V  V1  1  0.51566415  0.87242809  0.87512001  1
  V  V2  1  -0.00212670  0.37420459  0.38566292  1
  V  V3  1  0.51456006  0.75272816  0.75656751  1
  V  V4  1  -0.00194543  0.37360686  0.87356256  1
  V  V5  1  0.12879138  0.74416002  0.87316641  1
  V  V6  1  0.24837413  0.25123454  0.00419824  1
  V  V7  1  0.12755559  0.49853220  0.12411373  1
  V  V8  1  0.25220119  0.87097177  0.61501764  1
  V  V9  1  0.37341731  0.12364321  0.74892387  1
  V  V10  1  -0.00090824  -0.00068173  0.00019491  1
  V  V11  1  0.25435786  0.87628514  0.12102121  1
  V  V12  1  0.62643582  0.24888751  0.87495596  1
  V  V13  1  -0.00801506  0.74027413  0.75052020  1
  V  V14  1  0.12283165  0.87354826  0.25026636  1
  V  V15  1  0.87323747  0.87110131  0.00187165  1
  V  V16  1  0.88261879  0.74523613  0.12414931  1
  V  V17  1  0.75012648  0.24906865  0.00044835  1
  V  V18  1  0.74114770  0.62705338  0.86540925  1
  V  V19  1  0.64127733  0.37951237  0.74365710  1
  V  V20  1  0.87151579  0.50168152  0.38277573  1
  V  V21  1  0.88621187  0.62257532  0.24771099  1
  V  V22  1  0.12817520  0.25205676  0.37803182  1
  V  V23  1  0.87608559  0.24966591  0.12563265  1
  V  V24  1  0.88367574  -0.00278882  0.38232478  1
  V  V25  1  -0.00149454  0.87327832  0.87469056  1
  V  V26  1  0.50015662  0.24882166  0.74944567  1
  V  V27  1  0.50953470  0.50758960  -0.00311852  1
  V  V28  1  0.75053048  0.37540578  0.12652160  1
  V  V29  1  0.87401409  0.74334508  0.62856783  1
  V  V30  1  0.87217694  0.50902209  0.85963625  1
  V  V31  1  0.24422610  0.25252329  0.50257450  1
  V  V32  1  0.25307815  0.00271424  0.25027493  1
  V  V33  1  0.62852921  0.38270349  0.25090502  1
  V  V34  1  0.12148924  0.62798961  0.00451537  1
  V  V35  1  0.74275591  0.87495445  0.12531421  1
  V  V36  1  0.49882323  0.12469114  0.62025881  1
  V  V37  1  0.49710362  0.38750085  0.37817580  1
  V  V38  1  0.56650463  -0.05057371  0.56425721  1
  V  V39  1  -0.00434175  0.50657778  0.00431896  1
  V  V40  1  0.73411240  0.74013058  0.00095254  1
  V  V41  1  0.75158883  0.12340973  0.37765710  1
  V  V42  1  0.87669966  0.12351068  0.25104292  1
  V  V43  1  -0.00009670  0.25092934  0.25083571  1
  V  V44  1  0.75466939  0.26353407  0.50675093  1
  V  V45  1  0.00017390  0.11874596  0.61881145  1
  V  V46  1  0.01770720  0.51427625  0.49469703  1
  V  V47  1  0.35803321  0.71010173  0.15470572  1
  V  V48  1  0.14174689  0.74008302  0.38071001  1
  V  V49  1  0.62603616  0.12487634  0.50585846  1
  V  V50  1  0.50636899  0.61953197  0.63359003  1
  V  V51  1  0.37439133  0.37440768  0.50325509  1
  V  V52  1  0.38783853  -0.00269339  0.38342031  1
  V  V53  1  0.87108738  -0.00217220  0.87101562  1
  V  V54  1  0.24762499  0.12379186  0.87493677  1
  V  V55  1  0.37804428  0.87200998  -0.00073585  1
  V  V56  1  0.24232217  0.37933231  0.62586099  1
  V  V57  1  0.12177167  0.37593223  0.74807839  1
  V  V58  1  0.62448432  0.25252397  0.37737562  1
  V  V59  1  0.50131556  0.25221573  0.25059560  1
  V  V60  1  0.37640586  0.24938717  0.12544915  1
  V  V61  1  0.12550682  0.87142851  0.74848571  1
  V  V62  1  0.62917859  0.74697424  0.36975788  1
  V  V63  1  0.24731751  -0.00236390  0.74665169  1
  V  V64  1  -0.00459429  0.24385044  0.74991141  1
  V  V65  1  0.00786301  0.87252483  0.38966653  1
  V  V66  1  0.87408880  0.37793872  0.00016590  1
  V  V67  1  0.75103808  0.73670095  0.49230190  1
  V  V68  1  0.12438772  0.00085656  0.12413397  1
  V  V69  1  0.50428608  0.12420649  0.12426337  1
  V  V70  1  0.24519137  0.50620742  0.75937320  1
  V  V71  1  0.37503501  0.74730668  0.62426168  1
  V  V72  1  0.37850125  0.12586237  0.25057926  1
  V  V73  1  0.37409089  0.37367845  -0.00279824  1
  V  V74  1  0.75111200  0.51007075  0.25206797  1
  V  V75  1  0.74972510  0.87761726  0.62342807  1
  V  V76  1  0.50373643  0.50387190  0.51069452  1
  V  V77  1  0.49490256  0.75729746  0.25630312  1
  V  V78  1  0.50033000  0.37472989  0.87191735  1
  V  V79  1  0.50299734  -0.00155491  0.00448507  1
  V  V80  1  0.74794393  -0.00089005  0.24664661  1
  V  V81  1  0.12870729  0.37630934  0.24548798  1
  V  V82  1  0.25808903  0.74411683  -0.00843732  1
  V  V83  1  0.62752642  0.12079484  0.00396074  1
  V  V84  1  0.25229977  0.12862177  0.37582544  1
  Zn  Zn85  1  0.37197149  0.50865782  0.87600201  1
  Zn  Zn86  1  0.28872179  0.41862804  0.16663452  1
  Zn  Zn87  1  0.32295497  0.57622094  0.29521851  1
  Zn  Zn88  1  0.38416945  0.87604175  0.49961681  1
  Zn  Zn89  1  0.37089349  0.63216327  0.75993583  1
  Zn  Zn90  1  0.00609440  0.60605433  0.63460153  1
  Zn  Zn91  1  0.87186549  0.11829459  0.74619692  1
  Zn  Zn92  1  0.10794280  -0.01748221  0.60674964  1
  Zn  Zn93  1  0.63258140  0.50890869  0.11588607  1
  Zn  Zn94  1  0.37604560  -0.00342191  0.87450358  1
  Zn  Zn95  1  0.12384244  0.12459692  -0.00018790  1
  Zn  Zn96  1  0.51403992  0.63193616  0.12538899  1
  Zn  Zn97  1  0.36851380  0.24745692  0.62817529  1
  Zn  Zn98  1  0.87983289  0.87442843  0.50280693  1
  Zn  Zn99  1  0.00066409  0.12468893  0.12427286  1
  Zn  Zn100  1  0.12284721  0.24874677  0.87837543  1
  Zn  Zn101  1  0.12228375  0.11992185  0.49872647  1
  Zn  Zn102  1  0.87218489  0.24889732  0.62279447  1
  Zn  Zn103  1  0.62321229  0.88231467  0.25797180  1
  Zn  Zn104  1  0.74915317  0.12214194  0.87183899  1
  Zn  Zn105  1  0.00540581  0.74556172  0.24902164  1
  Zn  Zn106  1  0.64471119  0.50208188  0.62423366  1
  Zn  Zn107  1  0.18850691  0.18806356  0.18719492  1
  Zn  Zn108  1  0.17699682  0.18833876  0.68679129  1
  Zn  Zn109  1  0.18482954  0.68756878  0.18376589  1
  Zn  Zn110  1  0.18903386  0.68009893  0.67204065  1
  Zn  Zn111  1  0.68835333  0.18792336  0.18892500  1
  Zn  Zn112  1  0.68791304  0.18498459  0.68761841  1
  Zn  Zn113  1  0.68702151  0.68640947  0.18746335  1
  Zn  Zn114  1  0.68935048  0.68637894  0.68376815  1
  Zn  Zn115  1  0.29994812  0.41630561  0.33372710  1
  Zn  Zn116  1  0.31060765  0.31096986  0.81347748  1
  Zn  Zn117  1  0.31059168  0.82118286  0.31570940  1
  Zn  Zn118  1  0.31800186  0.81137885  0.81092608  1
  Zn  Zn119  1  0.81292081  0.31526838  0.31777022  1
  Zn  Zn120  1  0.81685007  0.30852448  0.81726922  1
  Zn  Zn121  1  0.81557545  0.81179700  0.31280886  1
  Zn  Zn122  1  0.80340369  0.81050728  0.81169297  1
  Zn  Zn123  1  0.20022570  0.56335791  0.44029079  1
  Zn  Zn124  1  0.18444728  0.43513734  0.93898591  1
  Zn  Zn125  1  0.19069297  0.93938712  0.43502715  1
  Zn  Zn126  1  0.18781142  0.93462722  0.93507651  1
  Zn  Zn127  1  0.68576270  0.44472680  0.43780809  1
  Zn  Zn128  1  0.69156948  0.43836910  0.92941293  1
  Zn  Zn129  1  0.69616060  0.92982281  0.43228845  1
  Zn  Zn130  1  0.68987999  0.93756955  0.94224212  1
  Zn  Zn131  1  0.31557607  0.06177357  0.06041757  1
  Zn  Zn132  1  0.30795313  0.06061283  0.56265617  1
  Zn  Zn133  1  0.31269065  0.56129449  0.04772319  1
  Zn  Zn134  1  0.32006163  0.55613245  0.57541883  1
  Zn  Zn135  1  0.81324320  0.06095075  0.06348482  1
  Zn  Zn136  1  0.81296029  0.06229376  0.56437447  1
  Zn  Zn137  1  0.81048264  0.56539165  0.06357420  1
  Zn  Zn138  1  0.82018631  0.56679823  0.56260822  1
  Zn  Zn139  1  0.45075932  0.44434904  0.18704323  1
  Zn  Zn140  1  0.43053221  0.43528210  0.69034461  1
  Zn  Zn141  1  0.43925856  0.93684519  0.18693567  1
  Zn  Zn142  1  0.43423336  0.93151986  0.69551674  1
  Zn  Zn143  1  0.94055760  0.43734203  0.18846639  1
  Zn  Zn144  1  0.82358292  0.43036056  0.67475242  1
  Zn  Zn145  1  0.93583196  0.93418020  0.18973831  1
  Zn  Zn146  1  0.93349111  0.93136618  0.68852463  1
  Zn  Zn147  1  0.06318209  0.06194191  0.31414751  1
  Zn  Zn148  1  0.06295221  0.05910647  0.81012215  1
  Zn  Zn149  1  0.06566473  0.55986851  0.31119986  1
  Zn  Zn150  1  0.06366296  0.56078013  0.81724502  1
  Zn  Zn151  1  0.56614116  0.06451387  0.31389072  1
  Zn  Zn152  1  0.56038160  0.06203056  0.81630389  1
  Zn  Zn153  1  0.49975998  0.61292399  0.35976543  1
  Zn  Zn154  1  0.56388684  0.56043306  0.81217207  1
  Zn  Zn155  1  0.43584992  0.19153243  0.43916812  1
  Zn  Zn156  1  0.43610554  0.18544322  0.93556018  1
  Zn  Zn157  1  0.33067420  0.68459700  0.44587244  1
  Zn  Zn158  1  0.43862922  0.68595458  0.93094747  1
  Zn  Zn159  1  0.93671706  0.18782790  0.43882550  1
  Zn  Zn160  1  0.93610401  0.18367560  0.93779013  1
  Zn  Zn161  1  0.93725725  0.69009245  0.43143409  1
  Zn  Zn162  1  0.93506111  0.68642544  0.93644736  1
  Zn  Zn163  1  0.06205819  0.31429377  0.06185610  1
  Zn  Zn164  1  0.00294695  0.37750525  0.60736223  1
  Zn  Zn165  1  0.06254339  0.81316027  0.06245689  1
  Zn  Zn166  1  0.07565814  0.77380805  0.57458248  1
  Zn  Zn167  1  0.56383854  0.31533930  0.06175102  1
  Zn  Zn168  1  0.56322636  0.31065495  0.56494625  1
  Zn  Zn169  1  0.55515512  0.80963058  0.07435377  1
  Zn  Zn170  1  0.55943607  0.78388040  0.55382093  1
  O  O171  1  0.12441257  0.11119318  0.12444914  1
  O  O172  1  0.10959787  0.11834827  0.62594490  1
  O  O173  1  0.12427982  0.61926394  0.11231649  1
  O  O174  1  0.09896177  0.66592038  0.61465839  1
  O  O175  1  0.61976316  0.13291382  0.11264513  1
  O  O176  1  0.61775554  0.12681168  0.61290664  1
  O  O177  1  0.62687996  0.62166101  0.12159481  1
  O  O178  1  0.61198638  0.61974674  0.63092486  1
  O  O179  1  0.38658116  0.36826742  0.38901285  1
  O  O180  1  0.38418470  0.37146710  0.88310893  1
  O  O181  1  0.37398012  0.89250310  0.38000623  1
  O  O182  1  0.38405577  0.87558417  0.88649915  1
  O  O183  1  0.88605902  0.38957636  0.36598813  1
  O  O184  1  0.87916462  0.38613454  0.88122036  1
  O  O185  1  0.88884707  0.88035959  0.37483634  1
  O  O186  1  0.87657233  0.88161571  0.88124842  1
  O  O187  1  0.25919166  0.01006742  0.36658199  1
  O  O188  1  0.24970060  0.00493883  0.86415957  1
  O  O189  1  0.24662422  0.51149102  0.35392883  1
  O  O190  1  0.24912238  0.49301410  0.86259670  1
  O  O191  1  0.76052763  0.00560709  0.36809455  1
  O  O192  1  0.75607401  -0.00344491  0.86729661  1
  O  O193  1  0.76280377  0.49305078  0.36732328  1
  O  O194  1  0.76366183  0.51241829  0.87927754  1
  O  O195  1  0.23366313  0.49930030  0.10775358  1
  O  O196  1  0.24827617  0.48343095  0.63789879  1
  O  O197  1  0.24341264  0.99688727  0.12848831  1
  O  O198  1  0.24907030  0.99148969  0.63728424  1
  O  O199  1  0.75147502  0.49129678  0.13347771  1
  O  O200  1  0.75672122  0.50244564  0.62493993  1
  O  O201  1  0.75871885  0.98906594  0.13472288  1
  O  O202  1  0.75232748  0.99103222  0.63327755  1
  O  O203  1  0.00627376  0.36629438  0.25597199  1
  O  O204  1  0.00522710  0.36559505  0.76488615  1
  O  O205  1  0.01513949  0.87493430  0.25270513  1
  O  O206  1  0.00848064  0.87063475  0.75861060  1
  O  O207  1  0.50990798  0.37248729  0.25998481  1
  O  O208  1  0.50016489  0.36845058  0.76083025  1
  O  O209  1  0.51221959  0.86383425  0.23149632  1
  O  O210  1  0.50000011  0.86390550  0.76145115  1
  O  O211  1  0.50061124  0.13166212  0.24367005  1
  O  O212  1  0.49655228  0.12753533  0.74116144  1
  O  O213  1  0.49958616  0.65139482  0.24532143  1
  O  O214  1  0.50069561  0.63486031  0.75071009  1
  O  O215  1  0.99444404  0.13341454  0.24866793  1
  O  O216  1  0.99775079  0.12910889  0.74696846  1
  O  O217  1  0.99000236  0.62342576  0.24831511  1
  O  O218  1  1.00329845  0.63679976  0.75344186  1
  O  O219  1  0.37018806  0.25381614  0.00450517  1
  O  O220  1  0.36725277  0.25841961  0.50535732  1
  O  O221  1  0.36902902  0.75715176  -0.00317061  1
  O  O222  1  0.38549665  0.75730404  0.51942626  1
  O  O223  1  0.86934238  0.25546849  0.00457804  1
  O  O224  1  0.85687464  0.24780050  0.49508343  1
  O  O225  1  0.87279421  0.75514849  0.00724498  1
  O  O226  1  0.86522023  0.75225265  0.50233332  1
  O  O227  1  0.13298441  0.24363196  0.48885497  1
  O  O228  1  0.13401313  0.24689724  1.00005645  1
  O  O229  1  0.13138781  0.75752454  0.47677232  1
  O  O230  1  0.13096241  0.74537674  0.99530523  1
  O  O231  1  0.63201594  0.24370655  0.49469831  1
  O  O232  1  0.63094094  0.24529539  0.99423925  1
  O  O233  1  0.64290708  0.75210837  0.48824743  1
  O  O234  1  0.63680699  0.75310460  1.00623944  1
  O  O235  1  0.49674727  0.24499258  0.12849417  1
  O  O236  1  0.49741278  0.24019960  0.63284402  1
  O  O237  1  0.48022826  0.74683423  0.13188934  1
  O  O238  1  0.49701639  0.74031848  0.63675359  1
  O  O239  1  0.99408258  0.24916915  0.13283146  1
  O  O240  1  0.99997832  0.23484492  0.64017594  1
  O  O241  1  0.98750085  0.75652299  0.12859829  1
  O  O242  1  0.98302106  0.77049540  0.64138424  1
  O  O243  1  0.00348095  0.25456781  0.36933095  1
  O  O244  1  -0.00080720  0.25714855  0.87411746  1
  O  O245  1  0.01098738  0.75840718  0.36814098  1
  O  O246  1  0.00446622  0.75545972  0.86948642  1
  O  O247  1  0.51116547  0.25734427  0.37309421  1
  O  O248  1  0.50661463  0.25432926  0.87049006  1
  O  O249  1  0.51142106  0.76235094  0.35791855  1
  O  O250  1  0.50249269  0.75684639  0.86452846  1
  O  O251  1  0.25284278  0.13835577  0.49613313  1
  O  O252  1  0.25014156  0.12971290  0.99080580  1
  O  O253  1  0.25997936  0.62471683  0.51224631  1
  O  O254  1  0.24111192  0.63884889  0.99990342  1
  O  O255  1  0.74119390  0.12825519  0.49480087  1
  O  O256  1  0.74252501  0.12856434  0.99983854  1
  O  O257  1  0.75341001  0.63858815  0.49904184  1
  O  O258  1  0.75216673  0.63682959  0.99424298  1
  O  O259  1  0.26063166  0.36439618  -0.00641882  1
  O  O260  1  0.25621207  0.36417898  0.51008460  1
  O  O261  1  0.25778062  0.86695130  0.00045387  1
  O  O262  1  0.25474706  0.87871279  0.51338180  1
  O  O263  1  0.75505710  0.37031055  0.00490898  1
  O  O264  1  0.74344760  0.36110045  0.49549056  1
  O  O265  1  0.75588160  0.86531686  0.00613404  1
  O  O266  1  0.75511712  0.86884666  0.51108285  1
  O  O267  1  0.11678371  0.48969933  0.23555387  1
  O  O268  1  0.13280010  0.49061717  0.75699323  1
  O  O269  1  0.13122871  0.99446743  0.24253539  1
  O  O270  1  0.12988270  0.98394836  0.74941492  1
  O  O271  1  0.63620333  0.48701259  0.25179449  1
  O  O272  1  0.62365781  0.48115880  0.74982112  1
  O  O273  1  0.64303003  1.00277297  0.25573802  1
  O  O274  1  0.63535910  1.00128112  0.75541922  1
  O  O275  1  0.37213485  0.00635290  0.25588536  1
  O  O276  1  0.36518881  0.00500843  0.75374388  1
  O  O277  1  0.35917924  0.47559300  0.24164625  1
  O  O278  1  0.35639232  0.49607988  0.75465144  1
  O  O279  1  0.86863245  0.00443006  0.25800951  1
  O  O280  1  0.86600709  -0.00389926  0.75954324  1
  O  O281  1  0.87056344  0.50515122  0.25345804  1
  O  O282  1  0.87800543  0.49794912  0.76289244  1
  O  O283  1  0.11372352  0.35977691  0.36225861  1
  O  O284  1  0.11411711  0.37264179  0.87032380  1
  O  O285  1  0.12524481  0.86910032  0.36531682  1
  O  O286  1  0.11915325  0.86472050  0.87020464  1
  O  O287  1  0.61943336  0.36959021  0.36991704  1
  O  O288  1  0.62048069  0.36808457  0.86432871  1
  O  O289  1  0.63049663  0.86053460  0.37297042  1
  O  O290  1  0.61442535  0.87635332  0.88278882  1
  O  O291  1  0.38427312  0.12923424  0.12876036  1
  O  O292  1  0.38207913  0.12391704  0.63055843  1
  O  O293  1  0.38993630  0.62445298  0.10648628  1
  O  O294  1  0.38792588  0.63034263  0.63823693  1
  O  O295  1  0.87619356  0.13193713  0.13301953  1
  O  O296  1  0.88472906  0.12830881  0.62688058  1
  O  O297  1  0.87157820  0.63415628  0.13305804  1
  O  O298  1  0.88878140  0.64051840  0.62090602  1
  O  O299  1  0.25821199  0.24303366  0.11175187  1
  O  O300  1  0.24328832  0.25802406  0.62002000  1
  O  O301  1  0.26160711  0.75839446  0.11286150  1
  O  O302  1  0.26342887  0.76076855  0.63771347  1
  O  O303  1  0.75647003  0.25591955  0.12106457  1
  O  O304  1  0.74993780  0.24617305  0.61038669  1
  O  O305  1  0.75947231  0.75491868  0.11465073  1
  O  O306  1  0.75507797  0.75437723  0.61494567  1
  O  O307  1  0.24151183  0.24389973  0.38398270  1
  O  O308  1  0.24884983  0.24053932  0.88543736  1
  O  O309  1  0.24680419  0.74845258  0.37440524  1
  O  O310  1  0.24010515  0.75799267  0.88086811  1
  O  O311  1  0.74033608  0.24467632  0.38074865  1
  O  O312  1  0.74463774  0.24555250  0.88322707  1
  O  O313  1  0.74581324  0.74991774  0.38337052  1
  O  O314  1  0.75461791  0.73965978  0.89065159  1
  O  O315  1  0.00235208  0.11364715  0.00289674  1
  O  O316  1  -0.00021281  0.13010651  0.51565034  1
  O  O317  1  0.00709294  0.61701672  -0.00366892  1
  O  O318  1  0.00092862  0.61474320  0.49001978  1
  O  O319  1  0.50620947  0.11780785  0.00276205  1
  O  O320  1  0.50559842  0.13043063  0.51289700  1
  O  O321  1  0.50425625  0.60822701  -0.00976462  1
  O  O322  1  0.49612232  0.60494079  0.51284212  1
  O  O323  1  0.49294420  0.37415065  0.49681051  1
  O  O324  1  0.49476256  0.37590859  0.98777761  1
  O  O325  1  0.50664564  0.88460566  0.51320370  1
  O  O326  1  0.49587695  0.88013092  0.99849114  1
  O  O327  1  1.00485732  0.38320451  0.48644243  1
  O  O328  1  0.99497688  0.38102004  0.98982385  1
  O  O329  1  1.00303302  0.86700644  0.49010579  1
  O  O330  1  0.99421742  0.88028652  0.99425885  1
  O  O331  1  0.50385081  0.49029247  0.39202647  1
  O  O332  1  0.49844272  0.48959454  0.88079918  1
  O  O333  1  0.48595118  1.00716563  0.37094871  1
  O  O334  1  0.49888328  0.99267432  0.88657450  1
  O  O335  1  0.99379013  0.49305242  0.37825583  1
  O  O336  1  0.98913206  0.49469170  0.88281158  1
  O  O337  1  0.99440731  0.98811878  0.36842537  1
  O  O338  1  0.99296627  0.99285301  0.88015603  1
  O  O339  1  0.00767611  -0.00241074  0.11954161  1
  O  O340  1  -0.00328473  0.01262684  0.63351547  1
  O  O341  1  0.00866037  0.49354280  0.11001596  1
  O  O342  1  -0.00030371  0.49708933  0.59776134  1
  O  O343  1  0.49806633  0.00775335  0.11201912  1
  O  O344  1  0.50454862  0.00340656  0.62916275  1
  O  O345  1  0.50788464  0.49868985  0.10702234  1
  O  O346  1  0.50021094  0.50214145  0.62516130  1
  O  O347  1  0.23175309  0.36055825  0.24994794  1
  O  O348  1  0.23943188  0.37593262  0.74625180  1
  O  O349  1  0.24100121  0.88308951  0.24278250  1
  O  O350  1  0.24388774  0.88172863  0.74741595  1
  O  O351  1  0.74558480  0.37925164  0.24582553  1
  O  O352  1  0.74431280  0.37117376  0.75229820  1
  O  O353  1  0.75318660  0.88303840  0.24228148  1
  O  O354  1  0.74784077  0.87889113  0.73501883  1
  O  O355  1  0.25851395  0.12286665  0.25488797  1
  O  O356  1  0.25008632  0.11768837  0.75425621  1
  O  O357  1  0.28687511  0.65275318  0.21622113  1
  O  O358  1  0.24390126  0.60801157  0.74283366  1
  O  O359  1  0.75700825  0.12043794  0.25652355  1
  O  O360  1  0.75117869  0.11319691  0.75138964  1
  O  O361  1  0.75929957  0.61240030  0.24793397  1
  O  O362  1  0.75181183  0.63806848  0.76659270  1
  O  O363  1  0.37109347  0.12152365  0.36995960  1
  O  O364  1  0.36331498  0.12206140  0.86845108  1
  O  O365  1  0.38993859  0.62807610  0.37059469  1
  O  O366  1  0.36870904  0.62269175  0.87267801  1
  O  O367  1  0.87368904  0.11709483  0.36930506  1
  O  O368  1  0.87199047  0.10720905  0.87763148  1
  O  O369  1  0.87864568  0.61023554  0.36381557  1
  O  O370  1  0.86978440  0.61267487  0.87737663  1
  O  O371  1  0.12169799  0.38334472  0.13150149  1
  O  O372  1  0.12031207  0.37141285  0.64255251  1
  O  O373  1  0.13180914  0.88344542  0.12901110  1
  O  O374  1  0.13291300  0.86813430  0.63332636  1
  O  O375  1  0.63254186  0.37486833  0.13522389  1
  O  O376  1  0.62238627  0.37085368  0.64318693  1
  O  O377  1  0.64067530  0.87123320  0.12576184  1
  O  O378  1  0.62561259  0.88220405  0.61274939  1
  O  O379  1  0.11343275  0.25215555  0.25120226  1
  O  O380  1  0.11292828  0.25534623  0.75808043  1
  O  O381  1  0.12788864  0.75822112  0.25474639  1
  O  O382  1  0.11956285  0.75829426  0.75922837  1
  O  O383  1  0.62275885  0.25830122  0.25904541  1
  O  O384  1  0.62128647  0.25643641  0.75619460  1
  O  O385  1  0.62731542  0.75476128  0.25884548  1
  O  O386  1  0.61262939  0.75160430  0.74458658  1
  O  O387  1  0.38662743  0.24227034  0.23923433  1
  O  O388  1  0.38067222  0.24115253  0.75008147  1
  O  O389  1  0.38586326  0.76980850  0.24615093  1
  O  O390  1  0.38766915  0.75192876  0.74143043  1
  O  O391  1  0.88405913  0.24630687  0.24871250  1
  O  O392  1  0.88602973  0.24000916  0.75832769  1
  O  O393  1  0.87576123  0.73965953  0.24319034  1
  O  O394  1  0.88111583  0.75555896  0.74421779  1
  O  O395  1  0.38844673  0.48149260  0.51339711  1
  O  O396  1  0.38661707  0.48792826  0.99517282  1
  O  O397  1  0.37409045  1.00250399  0.48684932  1
  O  O398  1  0.38431877  0.99361163  0.99534095  1
  O  O399  1  0.88044314  0.50359284  0.48351601  1
  O  O400  1  0.88126579  0.49528618  0.99950466  1
  O  O401  1  0.87164467  0.99798963  0.48535097  1
  O  O402  1  0.87964341  0.99085011  0.99503326  1
  O  O403  1  0.11919472  -0.00264832  0.00778722  1
  O  O404  1  0.13223038  0.00725064  0.49991071  1
  O  O405  1  0.11619823  0.50868519  0.00017019  1
  O  O406  1  0.11557646  0.50201043  0.48896937  1
  O  O407  1  0.61853857  0.01063252  -0.00141550  1
  O  O408  1  0.62414111  0.00547495  0.49699264  1
  O  O409  1  0.61181104  0.48660384  -0.00326474  1
  O  O410  1  0.60870507  0.48619054  0.51077784  1
  O  O411  1  0.37983708  0.36695812  0.11115704  1
  O  O412  1  0.36104183  0.36795153  0.62319182  1
  O  O413  1  0.36798578  0.88533689  0.10893603  1
  O  O414  1  0.36824615  0.86986947  0.62475518  1
  O  O415  1  0.87100861  0.36903587  0.12028930  1
  O  O416  1  0.89496233  0.35867391  0.63263282  1
  O  O417  1  0.86734134  0.86708638  0.12073659  1
  O  O418  1  0.86424086  0.86756754  0.62163267  1
  O  O419  1  0.13185845  0.13615326  0.37037130  1
  O  O420  1  0.13686641  0.12326660  0.87638186  1
  O  O421  1  0.12841416  0.63724179  0.36814236  1
  O  O422  1  0.12071530  0.63782992  0.88595217  1
  O  O423  1  0.62791251  0.13360762  0.38626464  1
  O  O424  1  0.62454246  0.13213566  0.88702790  1
  O  O425  1  0.60988284  0.64734351  0.37879310  1
  O  O426  1  0.64257661  0.61571540  0.87465594  1
