# generated using pymatgen
data_V85Zn86O256
_symmetry_space_group_name_H-M   'P 1'
_cell_length_a   16.91851018
_cell_length_b   16.92853359
_cell_length_c   16.93021699
_cell_angle_alpha   90.07200212
_cell_angle_beta   90.01315832
_cell_angle_gamma   90.02152922
_symmetry_Int_Tables_number   1
_chemical_formula_structural   V85Zn86O256
_chemical_formula_sum   'V85 Zn86 O256'
_cell_volume   4848.90411087
_cell_formula_units_Z   1
loop_
 _symmetry_equiv_pos_site_id
 _symmetry_equiv_pos_as_xyz
  1  'x, y, z'
loop_
 _atom_site_type_symbol
 _atom_site_label
 _atom_site_symmetry_multiplicity
 _atom_site_fract_x
 _atom_site_fract_y
 _atom_site_fract_z
 _atom_site_occupancy
  V  V0  1  0.11701186  0.00270754  0.12422323  1
  V  V1  1  0.00122973  0.50169712  0.01333267  1
  V  V2  1  0.36901915  0.12951546  0.24809570  1
  V  V3  1  0.74678479  0.12244333  0.87788758  1
  V  V4  1  0.87809916  0.73919818  0.12258292  1
  V  V5  1  0.62213904  0.86918814  0.74504249  1
  V  V6  1  0.25230363  0.26531792  0.00465971  1
  V  V7  1  0.62676806  0.24505001  0.88038080  1
  V  V8  1  0.12577301  0.24915768  0.87643135  1
  V  V9  1  0.37363767  0.12228906  0.75260502  1
  V  V10  1  0.49507238  0.25130079  0.74589329  1
  V  V11  1  0.25171283  0.49527923  0.23964829  1
  V  V12  1  0.49956821  0.50677372  0.50433896  1
  V  V13  1  0.13988535  -0.00690535  0.62797269  1
  V  V14  1  0.86733056  0.36322471  0.00634687  1
  V  V15  1  -0.00534760  0.13275433  0.12390058  1
  V  V16  1  0.24568947  0.00537562  0.25355445  1
  V  V17  1  0.86999570  0.24574718  0.62294556  1
  V  V18  1  0.87312216  0.11548108  0.24896837  1
  V  V19  1  0.74892503  0.62536897  0.87555798  1
  V  V20  1  0.87641732  0.49911500  0.87587593  1
  V  V21  1  0.88398034  -0.00253633  0.87542092  1
  V  V22  1  0.74973588  0.74608790  0.49643091  1
  V  V23  1  0.39245458  0.62362393  0.74624974  1
  V  V24  1  0.25065338  0.24446474  0.49340000  1
  V  V25  1  0.62782652  -0.00371066  0.62180044  1
  V  V26  1  0.24464700  0.74949990  -0.00318863  1
  V  V27  1  0.23930857  0.62425545  0.87236194  1
  V  V28  1  0.88496857  0.87693923  0.00016550  1
  V  V29  1  0.86811713  0.75413422  0.62726958  1
  V  V30  1  0.62795276  0.37071477  0.26242196  1
  V  V31  1  0.50074286  0.87591368  0.37277233  1
  V  V32  1  0.12586221  0.37275085  0.75015489  1
  V  V33  1  0.36795710  0.87319287  0.50139113  1
  V  V34  1  0.87797718  0.49022409  0.38854713  1
  V  V35  1  0.74568498  0.12192999  0.37102559  1
  V  V36  1  0.12031405  0.62330490  0.01477326  1
  V  V37  1  0.12129202  0.61779020  0.49702484  1
  V  V38  1  0.62729853  0.88074681  0.25056221  1
  V  V39  1  0.62906995  0.00435413  0.12116413  1
  V  V40  1  0.01172404  0.75540088  0.75569820  1
  V  V41  1  0.75034183  -0.00748002  0.74885118  1
  V  V42  1  -0.00176595  0.37699748  0.87437262  1
  V  V43  1  0.63082779  0.49729990  0.12666756  1
  V  V44  1  0.61951317  0.75116755  0.87336064  1
  V  V45  1  0.49941010  0.00278896  -0.00430894  1
  V  V46  1  0.37229277  0.26583420  0.12382146  1
  V  V47  1  0.62215565  0.50954458  0.62713514  1
  V  V48  1  0.37489063  0.37242960  0.50324951  1
  V  V49  1  0.25193937  0.62137253  0.37177605  1
  V  V50  1  -0.00132362  0.24350938  0.74934694  1
  V  V51  1  -0.00035370  0.62601262  0.62215893  1
  V  V52  1  0.61976247  0.62416729  0.00149316  1
  V  V53  1  0.75294737  0.87898242  0.12890322  1
  V  V54  1  0.12501212  0.74975802  0.37760454  1
  V  V55  1  -0.01174463  0.25689425  0.25221570  1
  V  V56  1  0.62764484  0.74148836  0.37200246  1
  V  V57  1  0.37419965  0.74781679  0.13149353  1
  V  V58  1  0.87623435  0.62518272  0.75083286  1
  V  V59  1  0.49509245  0.12905934  0.62334752  1
  V  V60  1  0.38355529  0.75127571  0.62858555  1
  V  V61  1  0.75436287  0.49738546  0.74937806  1
  V  V62  1  0.74955073  0.75139970  -0.00047061  1
  V  V63  1  0.25303795  0.36304959  0.62611366  1
  V  V64  1  0.49712465  0.62536356  0.13378362  1
  V  V65  1  0.49674279  0.87321646  0.87096594  1
  V  V66  1  0.12025138  0.38103738  0.24060913  1
  V  V67  1  0.12252051  0.87531995  0.25065022  1
  V  V68  1  0.37518522  0.50177803  0.37351356  1
  V  V69  1  0.12139253  0.25172810  0.37323482  1
  V  V70  1  0.37329302  0.88022951  -0.00258801  1
  V  V71  1  0.50100269  0.00038630  0.49767279  1
  V  V72  1  0.25644584  0.12193647  0.87788378  1
  V  V73  1  0.62381643  0.13703236  0.49601575  1
  V  V74  1  0.24967889  0.87702491  0.12508692  1
  V  V75  1  0.49915704  0.12723200  0.12162360  1
  V  V76  1  0.12192172  0.12466320  0.00032978  1
  V  V77  1  0.62625706  0.37302596  0.75014501  1
  V  V78  1  0.87037573  0.88081553  0.50343293  1
  V  V79  1  0.00291697  0.74198937  0.24472853  1
  V  V80  1  0.12188337  0.49729817  0.61921914  1
  V  V81  1  0.86682400  0.62611336  0.26206151  1
  V  V82  1  0.37223204  0.00567027  0.37375629  1
  V  V83  1  0.49173954  0.37414181  0.88274673  1
  V  V84  1  0.25045961  0.50220012  0.74646625  1
  Zn  Zn85  1  0.01155123  0.87467400  0.87699966  1
  Zn  Zn86  1  0.75026957  0.50240181  0.25525787  1
  Zn  Zn87  1  0.49512408  0.74914569  0.25307180  1
  Zn  Zn88  1  0.37123139  0.49843546  0.87940802  1
  Zn  Zn89  1  0.00341907  0.12046660  0.61892334  1
  Zn  Zn90  1  0.74767666  0.37168805  0.61919584  1
  Zn  Zn91  1  0.50526450  0.36981540  0.38061604  1
  Zn  Zn92  1  0.88631906  0.37103918  0.49816214  1
  Zn  Zn93  1  0.75044110  0.35613915  0.12689081  1
  Zn  Zn94  1  0.12626738  0.12081686  0.49546805  1
  Zn  Zn95  1  0.87510174  0.12003893  0.74994121  1
  Zn  Zn96  1  0.15018811  0.87728909  0.75219307  1
  Zn  Zn97  1  0.75060189  0.25493535  0.49251787  1
  Zn  Zn98  1  0.62504194  0.62579398  0.50024032  1
  Zn  Zn99  1  0.30936217  -0.04329358  0.80752844  1
  Zn  Zn100  1  -0.00214637  0.87615280  0.37628792  1
  Zn  Zn101  1  0.68829541  0.18651836  0.04333533  1
  Zn  Zn102  1  0.87523240  -0.00266986  0.37163356  1
  Zn  Zn103  1  0.24799486  0.75028343  0.50655071  1
  Zn  Zn104  1  0.50018025  0.25045276  0.25611583  1
  Zn  Zn105  1  0.49118826  0.49399253  0.00666815  1
  Zn  Zn106  1  0.00467339  0.00096204  0.49953792  1
  Zn  Zn107  1  0.18632663  0.19405542  0.18751819  1
  Zn  Zn108  1  0.18664289  0.17943287  0.68706694  1
  Zn  Zn109  1  0.19170332  0.68402407  0.18943475  1
  Zn  Zn110  1  0.19273233  0.69024059  0.68195780  1
  Zn  Zn111  1  0.68930553  0.18903815  0.20296935  1
  Zn  Zn112  1  0.68556595  0.18271738  0.68956090  1
  Zn  Zn113  1  0.68717010  0.69182552  0.18658622  1
  Zn  Zn114  1  0.68833125  0.68899911  0.68783668  1
  Zn  Zn115  1  0.31069752  0.31680266  0.31390351  1
  Zn  Zn116  1  0.31240944  0.30619806  0.81156349  1
  Zn  Zn117  1  0.30907418  0.81544958  0.31452507  1
  Zn  Zn118  1  0.31648667  0.79491464  0.81240872  1
  Zn  Zn119  1  0.80928466  0.31266343  0.31611353  1
  Zn  Zn120  1  0.81337783  0.30949047  0.81346754  1
  Zn  Zn121  1  0.81197651  0.81248363  0.31339030  1
  Zn  Zn122  1  0.81270894  0.81388589  0.81207608  1
  Zn  Zn123  1  0.18437364  0.43233290  0.43297456  1
  Zn  Zn124  1  0.18455303  0.44253429  0.93705278  1
  Zn  Zn125  1  0.18672541  0.93856302  0.43744550  1
  Zn  Zn126  1  0.18063811  0.93854533  0.93844330  1
  Zn  Zn127  1  0.69957901  0.44420603  0.43987492  1
  Zn  Zn128  1  0.68507496  0.43629158  0.93748630  1
  Zn  Zn129  1  0.69259233  0.93761107  0.43804767  1
  Zn  Zn130  1  0.68896619  0.93791612  0.93907601  1
  Zn  Zn131  1  0.30950411  0.06648935  0.06321298  1
  Zn  Zn132  1  0.31343041  0.06452910  0.56312258  1
  Zn  Zn133  1  0.31425891  0.56158494  0.05994666  1
  Zn  Zn134  1  0.31147352  0.56440860  0.56303736  1
  Zn  Zn135  1  0.81835883  0.05855015  0.06171399  1
  Zn  Zn136  1  0.80849409  0.06710037  0.56374490  1
  Zn  Zn137  1  0.81216429  0.55963452  0.06114902  1
  Zn  Zn138  1  0.80968449  0.56389131  0.56287378  1
  Zn  Zn139  1  0.44224839  0.44207608  0.19286710  1
  Zn  Zn140  1  0.43722163  0.43827142  0.68774215  1
  Zn  Zn141  1  0.43835991  0.93900454  0.18619428  1
  Zn  Zn142  1  0.43999810  0.93640466  0.68319595  1
  Zn  Zn143  1  0.93455591  0.43931590  0.18867513  1
  Zn  Zn144  1  0.95437044  0.42007755  0.65624724  1
  Zn  Zn145  1  0.94071406  0.93421626  0.18700885  1
  Zn  Zn146  1  0.94258775  0.93875511  0.68217794  1
  Zn  Zn147  1  0.05777925  0.06760032  0.31847266  1
  Zn  Zn148  1  0.06936548  0.05752299  0.80889261  1
  Zn  Zn149  1  0.05852622  0.56077642  0.30869952  1
  Zn  Zn150  1  0.06172843  0.56261764  0.81057562  1
  Zn  Zn151  1  0.56154512  0.06406930  0.30882488  1
  Zn  Zn152  1  0.56189073  0.06072065  0.81135296  1
  Zn  Zn153  1  0.56100743  0.55767266  0.31225985  1
  Zn  Zn154  1  0.56589133  0.55611814  0.81709146  1
  Zn  Zn155  1  0.43595625  0.19042973  0.43517930  1
  Zn  Zn156  1  0.43676954  0.19214568  0.94027955  1
  Zn  Zn157  1  0.43826923  0.68764249  0.43807589  1
  Zn  Zn158  1  0.43253752  0.68598100  0.93802131  1
  Zn  Zn159  1  0.93867511  0.18480643  0.43566164  1
  Zn  Zn160  1  0.93765290  0.18444490  0.93421874  1
  Zn  Zn161  1  0.94000397  0.69081315  0.43877921  1
  Zn  Zn162  1  0.94073037  0.68728825  0.93688784  1
  Zn  Zn163  1  0.05949215  0.31372910  0.06329406  1
  Zn  Zn164  1  0.06000205  0.30814581  0.56013605  1
  Zn  Zn165  1  0.06422379  0.80920964  0.06285757  1
  Zn  Zn166  1  0.06070902  0.81653624  0.56581403  1
  Zn  Zn167  1  0.55997358  0.31513618  0.06946300  1
  Zn  Zn168  1  0.56046541  0.31745261  0.56440569  1
  Zn  Zn169  1  0.56073875  0.81319100  0.06238166  1
  Zn  Zn170  1  0.55797697  0.81058490  0.56017265  1
  O  O171  1  0.11789914  0.12165645  0.12046009  1
  O  O172  1  0.12596767  0.11273980  0.62010670  1
  O  O173  1  0.12651002  0.62522763  0.11346022  1
  O  O174  1  0.12047893  0.62255183  0.61487856  1
  O  O175  1  0.61798356  0.11877724  0.12637002  1
  O  O176  1  0.61489122  0.11746588  0.61744273  1
  O  O177  1  0.61923391  0.62188792  0.11875142  1
  O  O178  1  0.62627234  0.61298828  0.62727394  1
  O  O179  1  0.37097061  0.38848305  0.38549342  1
  O  O180  1  0.38947742  0.37246487  0.86791632  1
  O  O181  1  0.38029649  0.88539271  0.37747001  1
  O  O182  1  0.38131168  0.87541428  0.88202366  1
  O  O183  1  0.87881638  0.38534535  0.37709850  1
  O  O184  1  0.87975965  0.38075464  0.88209861  1
  O  O185  1  0.87399067  0.87542376  0.38771222  1
  O  O186  1  0.87552830  0.88046553  0.88419230  1
  O  O187  1  0.25619640  -0.00349947  0.36114208  1
  O  O188  1  0.25329151  0.01673377  0.88694009  1
  O  O189  1  0.25535898  0.50484904  0.36992116  1
  O  O190  1  0.24989157  0.50477469  0.86189283  1
  O  O191  1  0.75635335  0.01466606  0.38111105  1
  O  O192  1  0.75584300  0.00172308  0.86734760  1
  O  O193  1  0.77030919  0.50569226  0.37114196  1
  O  O194  1  0.75350365  0.50586538  0.86925481  1
  O  O195  1  0.25331487  0.50781469  0.14161774  1
  O  O196  1  0.24338710  0.49502847  0.63353860  1
  O  O197  1  0.24135238  0.99812494  0.13523947  1
  O  O198  1  0.24051343  1.00055101  0.62074634  1
  O  O199  1  0.73737188  0.50113739  0.12574101  1
  O  O200  1  0.74366403  0.49789426  0.63508950  1
  O  O201  1  0.74148982  0.99169685  0.11910746  1
  O  O202  1  0.73543458  1.00458131  0.63242723  1
  O  O203  1  0.00867006  0.37041049  0.24533643  1
  O  O204  1  0.00622046  0.36311549  0.75278035  1
  O  O205  1  0.00577385  0.86247319  0.25165941  1
  O  O206  1  -0.00638224  0.85841844  0.74998547  1
  O  O207  1  0.51666167  0.37860981  0.25353509  1
  O  O208  1  0.50572919  0.36821980  0.75601181  1
  O  O209  1  0.50781934  0.87419980  0.25481861  1
  O  O210  1  0.50620093  0.88162577  0.76308823  1
  O  O211  1  0.48884016  0.12312269  0.23785288  1
  O  O212  1  0.49813986  0.13263447  0.74322377  1
  O  O213  1  0.50380233  0.62847206  0.23771801  1
  O  O214  1  0.49047605  0.61645108  0.75490076  1
  O  O215  1  0.99207523  0.13452692  0.24334231  1
  O  O216  1  1.00146916  0.13597714  0.75434681  1
  O  O217  1  0.98955306  0.63646499  0.24902635  1
  O  O218  1  0.99533698  0.63752162  0.74650423  1
  O  O219  1  0.36569921  0.24874324  0.01178950  1
  O  O220  1  0.36626001  0.26415275  0.49552491  1
  O  O221  1  0.36768309  0.76039677  0.00867322  1
  O  O222  1  0.37373110  0.75760290  0.50392132  1
  O  O223  1  0.87963938  0.26518874  -0.00578592  1
  O  O224  1  0.87561307  0.24998764  0.51037562  1
  O  O225  1  0.87041776  0.75374844  0.00561360  1
  O  O226  1  0.86852289  0.75544854  0.50695434  1
  O  O227  1  0.13118529  0.25346082  0.48870557  1
  O  O228  1  0.13066711  0.24536753  0.99568313  1
  O  O229  1  0.12668268  0.74342772  0.49262070  1
  O  O230  1  0.13202417  0.73741482  1.00307878  1
  O  O231  1  0.62315290  0.23915985  0.50405711  1
  O  O232  1  0.61487003  0.25231196  0.98513774  1
  O  O233  1  0.63143346  0.75166952  0.49099377  1
  O  O234  1  0.63006512  0.74414292  0.99627933  1
  O  O235  1  0.49189986  0.24202845  0.12907505  1
  O  O236  1  0.50598782  0.24208391  0.63418448  1
  O  O237  1  0.49151440  0.74475932  0.12617025  1
  O  O238  1  0.48416407  0.74078740  0.61371541  1
  O  O239  1  1.00495264  0.24136465  0.13632796  1
  O  O240  1  0.99285448  0.24239648  0.63536052  1
  O  O241  1  0.98992822  0.75461314  0.13240010  1
  O  O242  1  0.99098535  0.74241315  0.63376057  1
  O  O243  1  0.00972862  0.25088160  0.36533052  1
  O  O244  1  0.00615186  0.25636668  0.86979987  1
  O  O245  1  0.01247000  0.74997992  0.36702527  1
  O  O246  1  -0.00300948  0.75029574  0.85870703  1
  O  O247  1  0.49350574  0.25727828  0.36945633  1
  O  O248  1  0.50498647  0.25792533  0.86772623  1
  O  O249  1  0.50641928  0.75827365  0.37330952  1
  O  O250  1  0.50540528  0.76227683  0.88327608  1
  O  O251  1  0.25266307  0.14172719  0.50190318  1
  O  O252  1  0.24092859  0.13493428  0.99642938  1
  O  O253  1  0.24123579  0.62503557  0.48824106  1
  O  O254  1  0.23890688  0.62924962  0.99452777  1
  O  O255  1  0.73912099  0.12736863  0.49172625  1
  O  O256  1  0.74971017  0.11186858  0.98398755  1
  O  O257  1  0.74558202  0.64048864  0.50449009  1
  O  O258  1  0.73834520  0.62943664  0.99592484  1
  O  O259  1  0.24431735  0.36438892  -0.00596711  1
  O  O260  1  0.25489686  0.37018462  0.50846666  1
  O  O261  1  0.25403025  0.86859215  0.00461487  1
  O  O262  1  0.26510331  0.87135258  0.49048594  1
  O  O263  1  0.76390401  0.37832358  -0.00151127  1
  O  O264  1  0.75975772  0.37112776  0.50301944  1
  O  O265  1  0.75784030  0.86943900  0.00891645  1
  O  O266  1  0.76149175  0.86417415  0.50045232  1
  O  O267  1  0.13150740  0.48852509  0.25476517  1
  O  O268  1  0.13281435  0.49373975  0.74400459  1
  O  O269  1  0.13005604  0.99895667  0.24631736  1
  O  O270  1  0.12983271  0.99823235  0.73499020  1
  O  O271  1  0.62955880  0.49381917  0.24372559  1
  O  O272  1  0.63187013  0.49207766  0.74605362  1
  O  O273  1  0.61949968  0.98869970  0.23699599  1
  O  O274  1  0.62817554  0.98982419  0.74296080  1
  O  O275  1  0.36693845  0.00611531  0.25374422  1
  O  O276  1  0.38802681  0.01637880  0.74982743  1
  O  O277  1  0.36190644  0.49463419  0.25896060  1
  O  O278  1  0.36766796  0.50846765  0.75229166  1
  O  O279  1  0.87997787  0.01186715  0.24706959  1
  O  O280  1  0.86582950  -0.00422939  0.75490119  1
  O  O281  1  0.87310425  0.51735468  0.24828544  1
  O  O282  1  0.86922213  0.50600062  0.75722433  1
  O  O283  1  0.12522744  0.36300250  0.36265857  1
  O  O284  1  0.11813015  0.37086508  0.86888353  1
  O  O285  1  0.12597132  0.86522463  0.36801981  1
  O  O286  1  0.12326483  0.88116342  0.86529262  1
  O  O287  1  0.62890268  0.38514846  0.36445139  1
  O  O288  1  0.61713810  0.36841984  0.86617918  1
  O  O289  1  0.62156847  0.87346708  0.36641290  1
  O  O290  1  0.61736931  0.87079333  0.86944047  1
  O  O291  1  0.38093055  0.13002419  0.13229954  1
  O  O292  1  0.38867470  0.12272734  0.63072586  1
  O  O293  1  0.38502361  0.63597280  0.11876302  1
  O  O294  1  0.37540346  0.62494792  0.64029170  1
  O  O295  1  0.88731281  0.12057158  0.12926173  1
  O  O296  1  0.87631970  0.13207529  0.63082338  1
  O  O297  1  0.87075828  0.63657487  0.12820592  1
  O  O298  1  0.88224204  0.63130457  0.63009718  1
  O  O299  1  0.25994649  0.24854946  0.11701416  1
  O  O300  1  0.24465959  0.25969111  0.61882391  1
  O  O301  1  0.25507552  0.75306398  0.11646746  1
  O  O302  1  0.27324674  0.73978879  0.61953879  1
  O  O303  1  0.74342077  0.24294130  0.12105680  1
  O  O304  1  0.75558373  0.24458073  0.62341816  1
  O  O305  1  0.75736149  0.75835250  0.11834927  1
  O  O306  1  0.76208160  0.74782915  0.62055145  1
  O  O307  1  0.23943617  0.25683620  0.38290406  1
  O  O308  1  0.24484398  0.24229176  0.88292909  1
  O  O309  1  0.23954505  0.74062986  0.37222300  1
  O  O310  1  0.25497864  0.73897767  0.89030542  1
  O  O311  1  0.75402826  0.23009920  0.37599704  1
  O  O312  1  0.73957444  0.23716081  0.86926490  1
  O  O313  1  0.73934490  0.75550504  0.38302140  1
  O  O314  1  0.74239432  0.74505897  0.88019948  1
  O  O315  1  0.01238532  0.13308187  0.00778300  1
  O  O316  1  0.00645422  0.12171330  0.49953393  1
  O  O317  1  0.01335642  0.61966715  -0.00464133  1
  O  O318  1  0.00876769  0.63122602  0.50997522  1
  O  O319  1  0.49237968  0.11726451  0.01148360  1
  O  O320  1  0.50332136  0.12041038  0.50508335  1
  O  O321  1  0.51069992  0.62863919  0.00709035  1
  O  O322  1  0.50274582  0.61059828  0.49587470  1
  O  O323  1  0.49108507  0.38460764  0.50095455  1
  O  O324  1  0.50310906  0.37277069  0.98545385  1
  O  O325  1  0.49142835  0.88233320  0.49087786  1
  O  O326  1  0.49178901  0.88166778  0.99397140  1
  O  O327  1  0.98882379  0.39175385  0.54663522  1
  O  O328  1  0.99320839  0.38322627  0.99467879  1
  O  O329  1  0.98336217  0.87064692  0.49757426  1
  O  O330  1  0.98894854  0.86806890  0.99787678  1
  O  O331  1  0.49085041  0.49586025  0.38204292  1
  O  O332  1  0.50083075  0.48171285  0.87488912  1
  O  O333  1  0.49232823  0.99603762  0.37726996  1
  O  O334  1  0.50617801  0.99374206  0.88958759  1
  O  O335  1  0.97555738  0.51315889  0.36958773  1
  O  O336  1  0.99410965  0.49399226  0.87796194  1
  O  O337  1  0.99505690  0.99448815  0.37881145  1
  O  O338  1  0.98707591  0.99864218  0.86763172  1
  O  O339  1  0.01231292  0.00873351  0.13067688  1
  O  O340  1  0.01168386  0.00203559  0.62080221  1
  O  O341  1  -0.00311991  0.49997049  0.11244965  1
  O  O342  1  0.00957506  0.52109051  0.64213461  1
  O  O343  1  0.50576990  0.00606884  0.11607384  1
  O  O344  1  0.50917578  0.00751721  0.61832088  1
  O  O345  1  0.51034414  0.50886279  0.12504240  1
  O  O346  1  0.51041282  0.49378123  0.61813129  1
  O  O347  1  0.23943020  0.38851984  0.25167922  1
  O  O348  1  0.24876804  0.37994603  0.74427465  1
  O  O349  1  0.24258024  0.88331041  0.24315830  1
  O  O350  1  0.26510626  0.87200056  0.75206220  1
  O  O351  1  0.74103776  0.37779058  0.24710860  1
  O  O352  1  0.74004462  0.38061014  0.75548016  1
  O  O353  1  0.74463413  0.87177582  0.23699798  1
  O  O354  1  0.73904546  0.88486474  0.75421763  1
  O  O355  1  0.26008054  0.11902336  0.24332696  1
  O  O356  1  0.26250667  0.13271549  0.76134577  1
  O  O357  1  0.24172294  0.61089329  0.26318600  1
  O  O358  1  0.25135031  0.61764213  0.75553234  1
  O  O359  1  0.75689661  0.11994517  0.26100852  1
  O  O360  1  0.74745591  0.10913653  0.75964538  1
  O  O361  1  0.76382710  0.62927715  0.24620166  1
  O  O362  1  0.75510643  0.61929940  0.75694884  1
  O  O363  1  0.37779561  0.11252602  0.36572066  1
  O  O364  1  0.36864912  0.13197600  0.86773817  1
  O  O365  1  0.36624140  0.61322193  0.38025115  1
  O  O366  1  0.36574173  0.62638954  0.86070000  1
  O  O367  1  0.86751197  0.12098868  0.36541724  1
  O  O368  1  0.86731342  0.11465670  0.87314758  1
  O  O369  1  0.87304300  0.63309438  0.36280268  1
  O  O370  1  0.86904134  0.61966387  0.87202148  1
  O  O371  1  0.12573850  0.36991092  0.14131074  1
  O  O372  1  0.13509738  0.37817386  0.63250870  1
  O  O373  1  0.12902701  0.88401245  0.12916660  1
  O  O374  1  0.12581789  0.88573666  0.62914269  1
  O  O375  1  0.62749986  0.38331418  0.13283048  1
  O  O376  1  0.62695538  0.38071840  0.63829748  1
  O  O377  1  0.63240137  0.87962417  0.13042922  1
  O  O378  1  0.61461590  0.88272349  0.63291983  1
  O  O379  1  0.11927229  0.26006262  0.25628607  1
  O  O380  1  0.12075727  0.25300438  0.75657486  1
  O  O381  1  0.11958848  0.75181969  0.25389699  1
  O  O382  1  0.11384191  0.75182011  0.74136759  1
  O  O383  1  0.62104411  0.26684110  0.25120276  1
  O  O384  1  0.61603660  0.25557513  0.75724295  1
  O  O385  1  0.62358975  0.76241657  0.25536847  1
  O  O386  1  0.62753064  0.76239166  0.75333224  1
  O  O387  1  0.37093311  0.24374696  0.24284450  1
  O  O388  1  0.38809441  0.24078934  0.75058871  1
  O  O389  1  0.37251723  0.75728382  0.23607855  1
  O  O390  1  0.38343590  0.73491002  0.74033606  1
  O  O391  1  0.88507848  0.24349329  0.25520384  1
  O  O392  1  0.88384443  0.24258647  0.74981053  1
  O  O393  1  0.88061009  0.74311113  0.24354222  1
  O  O394  1  0.87670807  0.74380574  0.74305335  1
  O  O395  1  0.38010231  0.49380840  0.49657403  1
  O  O396  1  0.37997274  0.50615548  0.99171890  1
  O  O397  1  0.37872414  0.99571646  0.49151736  1
  O  O398  1  0.38097085  0.98779561  1.00863606  1
  O  O399  1  0.87401784  0.50217743  0.49135611  1
  O  O400  1  0.88294053  0.49742503  0.99207139  1
  O  O401  1  0.87076997  0.98607971  0.50651542  1
  O  O402  1  0.87378870  0.98775193  0.98984241  1
  O  O403  1  0.13087690  0.01248162  0.01292951  1
  O  O404  1  0.12683797  0.00001257  0.50858594  1
  O  O405  1  0.11675754  0.51322944  -0.00315397  1
  O  O406  1  0.12896366  0.50964425  0.50296688  1
  O  O407  1  0.61494405  -0.00745787  0.01286205  1
  O  O408  1  0.62026565  0.00454087  0.50627680  1
  O  O409  1  0.61995552  0.50768204  0.00632467  1
  O  O410  1  0.61965779  0.50040743  0.50947186  1
  O  O411  1  0.38360411  0.36441677  0.13062402  1
  O  O412  1  0.36432498  0.38127525  0.61695308  1
  O  O413  1  0.36850044  0.87063069  0.11817804  1
  O  O414  1  0.38363922  0.86312644  0.61528593  1
  O  O415  1  0.87120860  0.37913471  0.11041420  1
  O  O416  1  0.86290207  0.35281944  0.64129542  1
  O  O417  1  0.86934733  0.86945176  0.11900520  1
  O  O418  1  0.87674069  0.86585330  0.61520968  1
  O  O419  1  0.12692608  0.14454887  0.37164475  1
  O  O420  1  0.13104818  0.12825325  0.88349554  1
  O  O421  1  0.12787856  0.62884462  0.38063902  1
  O  O422  1  0.13604794  0.62240126  0.87864229  1
  O  O423  1  0.63376906  0.11780762  0.38137957  1
  O  O424  1  0.63098621  0.13278503  0.87035671  1
  O  O425  1  0.61980021  0.63856672  0.37293379  1
  O  O426  1  0.62711391  0.62991780  0.88244560  1
