# generated using pymatgen
data_V85Zn86O256
_symmetry_space_group_name_H-M   'P 1'
_cell_length_a   16.94923832
_cell_length_b   16.94704729
_cell_length_c   16.94337051
_cell_angle_alpha   90.01876356
_cell_angle_beta   89.99346339
_cell_angle_gamma   90.03138585
_symmetry_Int_Tables_number   1
_chemical_formula_structural   V85Zn86O256
_chemical_formula_sum   'V85 Zn86 O256'
_cell_volume   4866.80498293
_cell_formula_units_Z   1
loop_
 _symmetry_equiv_pos_site_id
 _symmetry_equiv_pos_as_xyz
  1  'x, y, z'
loop_
 _atom_site_type_symbol
 _atom_site_label
 _atom_site_symmetry_multiplicity
 _atom_site_fract_x
 _atom_site_fract_y
 _atom_site_fract_z
 _atom_site_occupancy
  V  V0  1  0.75506298  0.49753882  0.24516206  1
  V  V1  1  0.74898064  0.12942735  0.38231883  1
  V  V2  1  0.25065404  0.38558904  0.13060888  1
  V  V3  1  0.37188241  0.61874527  0.24628410  1
  V  V4  1  0.88304515  0.87337024  0.50260274  1
  V  V5  1  0.62953494  0.75302200  0.88105652  1
  V  V6  1  0.37503592  0.75003722  0.12281787  1
  V  V7  1  0.62506758  0.13300806  -0.00102711  1
  V  V8  1  0.37879654  0.87596775  -0.00730832  1
  V  V9  1  0.75218672  0.13531912  0.87663292  1
  V  V10  1  0.37241629  -0.00078458  0.36412981  1
  V  V11  1  0.87846207  0.00622165  0.87461598  1
  V  V12  1  0.12786864  0.87585197  0.25061723  1
  V  V13  1  0.37058922  0.62612941  0.74815834  1
  V  V14  1  0.37636913  0.49179461  0.37041088  1
  V  V15  1  0.00304343  0.00374488  0.00522159  1
  V  V16  1  0.62191575  0.87490396  0.75571022  1
  V  V17  1  0.12278321  0.62723743  0.00172663  1
  V  V18  1  0.24898170  -0.00020132  0.75405935  1
  V  V19  1  0.49987293  0.87442542  0.37505595  1
  V  V20  1  0.13048611  0.00389619  0.13097369  1
  V  V21  1  0.87718255  0.50118127  0.37310157  1
  V  V22  1  0.24142512  0.11815674  0.36814485  1
  V  V23  1  0.62803944  0.49720423  0.12544743  1
  V  V24  1  0.50594846  0.36990840  0.86039158  1
  V  V25  1  0.36626164  0.24972566  0.12291155  1
  V  V26  1  0.00256082  0.01751113  0.50238674  1
  V  V27  1  0.54742021  0.18240771  0.68171667  1
  V  V28  1  0.12172388  0.01034713  0.62319239  1
  V  V29  1  0.00755784  0.87057192  0.87392074  1
  V  V30  1  0.87385555  0.87545580  0.00490631  1
  V  V31  1  0.62366805  0.25370574  0.38060151  1
  V  V32  1  0.00045713  0.13585955  0.13145049  1
  V  V33  1  0.75177293  0.25174642  0.01203405  1
  V  V34  1  0.74579306  0.00488763  0.24615641  1
  V  V35  1  0.62554664  0.37500707  0.25123251  1
  V  V36  1  0.18060008  0.31829443  0.80709124  1
  V  V37  1  0.88531652  0.23796066  0.62540035  1
  V  V38  1  0.49984138  0.49429128  0.49327572  1
  V  V39  1  -0.00341796  0.62295073  0.62649733  1
  V  V40  1  0.23782079  0.24137639  0.49545525  1
  V  V41  1  0.24855461  0.61747127  0.36933569  1
  V  V42  1  0.75672073  0.00189792  0.75233600  1
  V  V43  1  0.24534059  0.87534945  0.62391734  1
  V  V44  1  0.24398597  0.37268432  0.61827858  1
  V  V45  1  0.37398817  0.12094332  0.74293831  1
  V  V46  1  0.37116765  0.37539234  -0.00273241  1
  V  V47  1  0.87420226  0.37858311  0.00616301  1
  V  V48  1  0.62072205  -0.00104548  0.62682492  1
  V  V49  1  -0.00961741  0.37022957  0.86578118  1
  V  V50  1  0.24240482  0.62882489  0.87374650  1
  V  V51  1  0.37536516  0.74942797  0.62473141  1
  V  V52  1  0.24956605  0.74791400  0.49906889  1
  V  V53  1  0.75015989  0.75063812  0.49964618  1
  V  V54  1  -0.00497815  0.36393621  0.37201528  1
  V  V55  1  0.49860420  0.25365266  0.25275479  1
  V  V56  1  -0.00649670  0.74418333  0.24804661  1
  V  V57  1  0.12294134  0.62285667  0.49970618  1
  V  V58  1  0.49861668  0.00742673  0.50228680  1
  V  V59  1  0.75411117  0.36977060  0.62575968  1
  V  V60  1  0.37348861  0.24493528  0.61937962  1
  V  V61  1  0.74106328  0.87801545  0.12492257  1
  V  V62  1  0.75106999  0.87423274  0.62672317  1
  V  V63  1  0.50380419  0.12349347  0.12625261  1
  V  V64  1  0.62466031  0.75092893  0.37421882  1
  V  V65  1  0.49864745  0.75250789  0.75585219  1
  V  V66  1  0.12271658  0.49608990  0.62499558  1
  V  V67  1  0.86821171  0.61930780  0.76738215  1
  V  V68  1  0.24322366  0.49939628  0.75116994  1
  V  V69  1  0.00062738  0.49809474  -0.00336712  1
  V  V70  1  0.87358005  0.74725280  0.63046027  1
  V  V71  1  0.37782790  0.00543481  0.87581585  1
  V  V72  1  0.62563372  0.49434235  0.63229550  1
  V  V73  1  0.68347292  0.57135505  -0.06173978  1
  V  V74  1  0.25134239  0.87841560  0.12720055  1
  V  V75  1  0.50841492  -0.00262236  0.00026496  1
  V  V76  1  0.12405518  0.74909902  0.37413111  1
  V  V77  1  0.12292143  0.37441994  0.25220888  1
  V  V78  1  0.14089906  0.13710445  -0.00694108  1
  V  V79  1  0.37485261  0.87476174  0.49781459  1
  V  V80  1  0.50467575  0.62418002  0.11428190  1
  V  V81  1  0.75511775  0.62570708  0.36703431  1
  V  V82  1  0.24296374  0.75480301  -0.00488950  1
  V  V83  1  0.62443767  0.62311276  0.49951389  1
  V  V84  1  0.50065098  0.74880093  0.24887449  1
  Zn  Zn85  1  0.50035533  0.49823279  -0.00359659  1
  Zn  Zn86  1  0.11629824  0.24108342  0.37055390  1
  Zn  Zn87  1  0.37198542  0.12314446  0.24697077  1
  Zn  Zn88  1  0.49879559  0.62344810  0.62389306  1
  Zn  Zn89  1  0.86663558  0.74642194  0.13203015  1
  Zn  Zn90  1  -0.00484092  0.62062609  0.12901255  1
  Zn  Zn91  1  0.86967837  0.37119790  0.49801317  1
  Zn  Zn92  1  0.12691187  0.50291304  0.13051608  1
  Zn  Zn93  1  0.74959469  0.49906204  0.75754473  1
  Zn  Zn94  1  0.87781004  0.25846011  0.13444381  1
  Zn  Zn95  1  0.00475678  0.74329658  0.76161027  1
  Zn  Zn96  1  0.74854113  0.74644298  -0.00061250  1
  Zn  Zn97  1  -0.00310910  0.49741164  0.49797668  1
  Zn  Zn98  1  0.12585821  0.87082755  0.75576511  1
  Zn  Zn99  1  0.37468670  0.37031713  0.49254386  1
  Zn  Zn100  1  -0.00082314  0.87598859  0.37504435  1
  Zn  Zn101  1  0.37510071  0.50203973  0.87521919  1
  Zn  Zn102  1  0.87436389  -0.00015464  0.37502845  1
  Zn  Zn103  1  0.62265923  0.87974765  0.24789589  1
  Zn  Zn104  1  0.62186794  0.13017436  0.50318725  1
  Zn  Zn105  1  0.87846415  0.13080748  0.25451536  1
  Zn  Zn106  1  0.00118634  0.23450283  0.75309259  1
  Zn  Zn107  1  0.18542456  0.19121001  0.18957020  1
  Zn  Zn108  1  0.19121783  0.18254193  0.68661894  1
  Zn  Zn109  1  0.18622462  0.68956455  0.18522300  1
  Zn  Zn110  1  0.18096357  0.69030822  0.68902064  1
  Zn  Zn111  1  0.68565060  0.18565477  0.18898037  1
  Zn  Zn112  1  0.71141948  0.18987943  0.69160922  1
  Zn  Zn113  1  0.68629381  0.68695580  0.18448778  1
  Zn  Zn114  1  0.68735397  0.68396508  0.69038353  1
  Zn  Zn115  1  0.30586618  0.30865101  0.30807995  1
  Zn  Zn116  1  0.35863454  0.28694926  0.82836099  1
  Zn  Zn117  1  0.31122491  0.80824558  0.31120235  1
  Zn  Zn118  1  0.31168948  0.81510142  0.81424984  1
  Zn  Zn119  1  0.81070122  0.31166663  0.30798902  1
  Zn  Zn120  1  0.81522015  0.31577757  0.80695022  1
  Zn  Zn121  1  0.81195543  0.81820310  0.31415441  1
  Zn  Zn122  1  0.81591506  0.81399269  0.81568382  1
  Zn  Zn123  1  0.18545902  0.43545596  0.43565139  1
  Zn  Zn124  1  0.19025827  0.43978740  0.94407219  1
  Zn  Zn125  1  0.18458071  0.93969320  0.43785372  1
  Zn  Zn126  1  0.18901511  0.94686288  0.94117371  1
  Zn  Zn127  1  0.68971470  0.43579124  0.43673724  1
  Zn  Zn128  1  0.68171034  0.40754562  0.93401744  1
  Zn  Zn129  1  0.68782193  0.94050678  0.43707377  1
  Zn  Zn130  1  0.68849067  0.93882710  0.93639288  1
  Zn  Zn131  1  0.31461123  0.06126395  0.06517585  1
  Zn  Zn132  1  0.31026824  0.06164865  0.55791506  1
  Zn  Zn133  1  0.31257755  0.56218329  0.05993076  1
  Zn  Zn134  1  0.31164839  0.56032311  0.55958376  1
  Zn  Zn135  1  0.81453139  0.06316588  0.06458563  1
  Zn  Zn136  1  0.80942915  0.05951026  0.55823579  1
  Zn  Zn137  1  0.82241168  0.55926208  0.06871832  1
  Zn  Zn138  1  0.80951252  0.56026813  0.55996291  1
  Zn  Zn139  1  0.44156703  0.43697388  0.18560971  1
  Zn  Zn140  1  0.42998836  0.43810864  0.68146113  1
  Zn  Zn141  1  0.44089353  0.93666362  0.18322310  1
  Zn  Zn142  1  0.43751572  0.93517505  0.68642368  1
  Zn  Zn143  1  0.94206315  0.43888910  0.18792693  1
  Zn  Zn144  1  0.93146660  0.44000534  0.68918481  1
  Zn  Zn145  1  0.93492100  0.93897827  0.19007123  1
  Zn  Zn146  1  0.93949913  1.06131984  0.68820874  1
  Zn  Zn147  1  0.05980282  0.05724016  0.31282215  1
  Zn  Zn148  1  0.07023960  0.06143548  0.81866827  1
  Zn  Zn149  1  0.06291316  0.55742414  0.31035601  1
  Zn  Zn150  1  0.05963815  0.55953844  0.81469760  1
  Zn  Zn151  1  0.56362908  0.06394835  0.31269863  1
  Zn  Zn152  1  0.56644767  0.05851446  0.82175224  1
  Zn  Zn153  1  0.56123609  0.56354649  0.30934665  1
  Zn  Zn154  1  0.55182124  0.55950991  0.80873301  1
  Zn  Zn155  1  0.43389763  0.18579921  0.43281850  1
  Zn  Zn156  1  0.43498979  0.18614819  0.94026241  1
  Zn  Zn157  1  0.43698340  0.68287635  0.43610720  1
  Zn  Zn158  1  0.43449881  0.68906534  0.93340693  1
  Zn  Zn159  1  0.92813122  0.19131131  0.44022398  1
  Zn  Zn160  1  0.94209502  0.19049508  0.94170944  1
  Zn  Zn161  1  0.93735929  0.68671232  0.43608239  1
  Zn  Zn162  1  0.93478934  0.68953811  0.94627511  1
  Zn  Zn163  1  0.06779429  0.31420535  0.05830249  1
  Zn  Zn164  1  0.05756869  0.31135039  0.55865908  1
  Zn  Zn165  1  0.06181132  0.81450689  0.06452136  1
  Zn  Zn166  1  0.06253124  0.80966575  0.56933575  1
  Zn  Zn167  1  0.55833589  0.31279622  0.06095480  1
  Zn  Zn168  1  0.56458136  0.32208826  0.55802284  1
  Zn  Zn169  1  0.56273773  0.81382963  0.06250655  1
  Zn  Zn170  1  0.56113384  0.81354662  0.56489510  1
  O  O171  1  0.11861913  0.11966952  0.12330884  1
  O  O172  1  0.13329632  0.10926077  0.62228248  1
  O  O173  1  0.12285028  0.62456999  0.11332338  1
  O  O174  1  0.11546781  0.61949792  0.61950946  1
  O  O175  1  0.61619895  0.12869977  0.11236343  1
  O  O176  1  0.61921696  0.12488827  0.62632205  1
  O  O177  1  0.61580957  0.61287332  0.12782543  1
  O  O178  1  0.62581237  0.61691997  0.61269017  1
  O  O179  1  0.36696231  0.38896311  0.37021181  1
  O  O180  1  0.36895558  0.38412215  0.88885396  1
  O  O181  1  0.37739994  0.87946531  0.37845661  1
  O  O182  1  0.37462426  0.88060089  0.88777847  1
  O  O183  1  0.87914136  0.38111735  0.37569126  1
  O  O184  1  0.88535715  0.37384424  0.88347592  1
  O  O185  1  0.87583808  0.87811449  0.38864188  1
  O  O186  1  0.88134972  0.88810095  0.88414891  1
  O  O187  1  0.25667778  0.00980445  0.37973410  1
  O  O188  1  0.26473214  -0.00759922  0.86624400  1
  O  O189  1  0.25725321  0.51234744  0.37996509  1
  O  O190  1  0.24808007  0.50886552  0.86634201  1
  O  O191  1  0.74985889  0.01048740  0.36715756  1
  O  O192  1  0.75909779  0.00623511  0.87057894  1
  O  O193  1  0.75440109  0.50697783  0.36569864  1
  O  O194  1  0.73119389  0.50311149  0.87888611  1
  O  O195  1  0.25023321  0.48946527  0.12466863  1
  O  O196  1  0.24580141  0.49027577  0.62876060  1
  O  O197  1  0.24313247  0.99100238  0.12380745  1
  O  O198  1  0.24599858  0.99098074  0.62826400  1
  O  O199  1  0.74360588  0.50692706  0.13737630  1
  O  O200  1  0.73792799  0.49618633  0.62608014  1
  O  O201  1  0.75283284  0.99706801  0.13825978  1
  O  O202  1  0.74352201  0.99649899  0.63407104  1
  O  O203  1  0.01047527  0.37714842  0.25777465  1
  O  O204  1  -0.00432954  0.37784502  0.76438822  1
  O  O205  1  0.01131017  0.86813046  0.25175043  1
  O  O206  1  -0.00054819  0.87753080  0.77329690  1
  O  O207  1  0.51284232  0.36666239  0.24462828  1
  O  O208  1  0.48851506  0.38173761  0.76166947  1
  O  O209  1  0.50120056  0.86792440  0.25507649  1
  O  O210  1  0.50957153  0.86549196  0.74558197  1
  O  O211  1  0.49970803  0.13088396  0.24071530  1
  O  O212  1  0.49597579  0.11816790  0.74569629  1
  O  O213  1  0.49249441  0.63050663  0.23917399  1
  O  O214  1  0.48852015  0.63210506  0.74535212  1
  O  O215  1  1.00072783  0.11858587  0.23502695  1
  O  O216  1  1.00072428  0.12120480  0.75834340  1
  O  O217  1  1.00758713  0.64074922  0.25034081  1
  O  O218  1  0.98841205  0.62352211  0.74475257  1
  O  O219  1  0.37802691  0.26205334  0.01057735  1
  O  O220  1  0.36892456  0.24850207  0.50633792  1
  O  O221  1  0.36932889  0.75862287  0.00324734  1
  O  O222  1  0.37027370  0.75429317  0.50335847  1
  O  O223  1  0.87091935  0.26032228  0.00606586  1
  O  O224  1  0.87526314  0.25390349  0.51915085  1
  O  O225  1  0.86980214  0.76669868  0.00034414  1
  O  O226  1  0.86846084  0.75378498  0.50588389  1
  O  O227  1  0.13496531  0.25058110  0.49454091  1
  O  O228  1  0.12646331  0.23655339  1.00013133  1
  O  O229  1  0.12916565  0.74319880  0.49484458  1
  O  O230  1  0.13379014  0.74428392  1.00453202  1
  O  O231  1  0.61533011  0.24981292  0.48500428  1
  O  O232  1  0.63505869  0.24549462  1.00159830  1
  O  O233  1  0.62949936  0.74287224  0.49651936  1
  O  O234  1  0.62311658  0.75470954  0.98523308  1
  O  O235  1  0.49334298  0.24194186  0.13283989  1
  O  O236  1  0.49436290  0.24852773  0.61916218  1
  O  O237  1  0.49563140  0.74323820  0.12838525  1
  O  O238  1  0.49339028  0.74806433  0.63469935  1
  O  O239  1  1.00329821  0.23728174  0.12115960  1
  O  O240  1  0.98926508  0.25129392  0.62989848  1
  O  O241  1  1.00117618  0.75224597  0.14098572  1
  O  O242  1  0.99103685  0.73667906  0.62671361  1
  O  O243  1  -0.00193806  0.25957893  0.37841664  1
  O  O244  1  -0.00110350  0.26507172  0.87261061  1
  O  O245  1  0.00691090  0.75152905  0.36609902  1
  O  O246  1  -0.00553277  0.76741049  0.88174844  1
  O  O247  1  0.50578535  0.24328699  0.36014161  1
  O  O248  1  0.47038585  0.26887283  0.86795805  1
  O  O249  1  0.50337705  0.75375716  0.36993614  1
  O  O250  1  0.50693748  0.74499364  0.86199688  1
  O  O251  1  0.25409736  0.13081295  0.48469174  1
  O  O252  1  0.23980672  0.12465330  1.00973466  1
  O  O253  1  0.24414131  0.63020018  0.49257834  1
  O  O254  1  0.24436558  0.63331374  0.99358291  1
  O  O255  1  0.74145764  0.11832812  0.48618498  1
  O  O256  1  0.74412273  0.13023904  0.99704422  1
  O  O257  1  0.74153113  0.62903323  0.48945691  1
  O  O258  1  0.74933075  0.62356515  0.99562396  1
  O  O259  1  0.26263638  0.37750346  0.01122024  1
  O  O260  1  0.25289970  0.36540181  0.50330622  1
  O  O261  1  0.25599297  0.87010602  0.00444432  1
  O  O262  1  0.25420704  0.86921450  0.50510227  1
  O  O263  1  0.76428558  0.36562493  -0.00415477  1
  O  O264  1  0.74968693  0.38327084  0.51870933  1
  O  O265  1  0.75695899  0.88132101  0.00913896  1
  O  O266  1  0.75831939  0.87170986  0.50682351  1
  O  O267  1  0.12380897  0.48445715  0.24724482  1
  O  O268  1  0.13557083  0.50858836  0.74094716  1
  O  O269  1  0.12156974  0.99104352  0.23928736  1
  O  O270  1  0.13480790  0.99298172  0.74355366  1
  O  O271  1  0.62885107  0.49389370  0.24346689  1
  O  O272  1  0.62500695  0.51040086  0.73359679  1
  O  O273  1  0.63991838  0.99826946  0.25447610  1
  O  O274  1  0.63021572  0.99164497  0.74780529  1
  O  O275  1  0.37879812  -0.00262510  0.26131855  1
  O  O276  1  0.37194911  0.00173803  0.75571351  1
  O  O277  1  0.38189958  0.51160575  0.25423446  1
  O  O278  1  0.35874776  0.50746661  0.74648495  1
  O  O279  1  0.86282925  0.00505970  0.25487025  1
  O  O280  1  0.86568001  -0.00046224  0.75979953  1
  O  O281  1  0.86581980  0.49424224  0.25883281  1
  O  O282  1  0.87081936  0.51516660  0.75222937  1
  O  O283  1  0.11660948  0.37377330  0.36631124  1
  O  O284  1  0.12281344  0.37192587  0.87405098  1
  O  O285  1  0.12552256  0.86848312  0.36725839  1
  O  O286  1  0.11088513  0.88389695  0.88153277  1
  O  O287  1  0.62879866  0.36672422  0.36540307  1
  O  O288  1  0.60523078  0.36064192  0.86908274  1
  O  O289  1  0.61888837  0.86720839  0.37554377  1
  O  O290  1  0.62734786  0.86963794  0.86314430  1
  O  O291  1  0.38182873  0.13400029  0.12637004  1
  O  O292  1  0.37444357  0.12738717  0.63136272  1
  O  O293  1  0.37920269  0.62951123  0.13037798  1
  O  O294  1  0.37250153  0.63256821  0.62949401  1
  O  O295  1  0.89374256  0.12480009  0.12178076  1
  O  O296  1  0.86932215  0.13262896  0.62467104  1
  O  O297  1  0.88361281  0.63563265  0.11834231  1
  O  O298  1  0.87905399  0.63217233  0.62572764  1
  O  O299  1  0.26315765  0.25967862  0.13328079  1
  O  O300  1  0.25437199  0.25243620  0.61442952  1
  O  O301  1  0.25612525  0.75611908  0.11394544  1
  O  O302  1  0.25453125  0.75623186  0.61904804  1
  O  O303  1  0.75279088  0.24422096  0.11448333  1
  O  O304  1  0.75850488  0.26310141  0.62326389  1
  O  O305  1  0.74807027  0.76045126  0.12121037  1
  O  O306  1  0.75497817  0.75125156  0.61996368  1
  O  O307  1  0.24990981  0.23585751  0.38024600  1
  O  O308  1  0.24780848  0.26364362  0.85521997  1
  O  O309  1  0.24482314  0.73869318  0.37997230  1
  O  O310  1  0.25342758  0.74485790  0.88642023  1
  O  O311  1  0.73950021  0.23686543  0.37029269  1
  O  O312  1  0.76087970  0.23841550  0.88070302  1
  O  O313  1  0.74568726  0.74350718  0.37837937  1
  O  O314  1  0.73827405  0.75460057  0.87722571  1
  O  O315  1  0.01037339  0.11831534  0.00959203  1
  O  O316  1  -0.00178012  0.11548367  0.49649386  1
  O  O317  1  0.00907345  0.61707629  -0.00506736  1
  O  O318  1  0.00508869  0.62253355  0.50781081  1
  O  O319  1  0.50694884  0.12247706  0.00408623  1
  O  O320  1  0.50007219  0.11070725  0.49386110  1
  O  O321  1  0.49226081  0.62400622  0.01102073  1
  O  O322  1  0.50803317  0.61728741  0.50171905  1
  O  O323  1  0.49360718  0.38957838  0.49870716  1
  O  O324  1  0.48820650  0.37617146  0.99236158  1
  O  O325  1  0.49417483  0.88057483  0.49363373  1
  O  O326  1  0.49061556  0.88611031  1.00911853  1
  O  O327  1  0.99659398  0.37932543  0.48712666  1
  O  O328  1  0.99318493  0.37833034  0.99278969  1
  O  O329  1  0.98896839  0.87090252  0.50261146  1
  O  O330  1  0.99335878  0.88384746  0.99911473  1
  O  O331  1  0.48912227  0.50862729  0.38115116  1
  O  O332  1  0.49685046  0.48742359  0.87761312  1
  O  O333  1  0.49300853  0.99342160  0.37994640  1
  O  O334  1  0.48805626  1.00132324  0.88487387  1
  O  O335  1  0.98964551  0.49397365  0.37360831  1
  O  O336  1  1.00905325  0.48421936  0.88687361  1
  O  O337  1  0.99786898  0.99595877  0.38930117  1
  O  O338  1  0.99514026  0.99454050  0.88988601  1
  O  O339  1  0.00712608  0.00432831  0.11838515  1
  O  O340  1  0.00658010  0.00066399  0.61252655  1
  O  O341  1  0.00443903  0.50059675  0.11131861  1
  O  O342  1  0.00157793  0.50929903  0.62381863  1
  O  O343  1  0.49282629  0.01502916  0.11563032  1
  O  O344  1  0.50697978  -0.00785150  0.61446792  1
  O  O345  1  0.50904866  0.50768617  0.12018196  1
  O  O346  1  0.50971316  0.50044563  0.61691755  1
  O  O347  1  0.23897189  0.37579188  0.24356420  1
  O  O348  1  0.24012040  0.38214216  0.74274614  1
  O  O349  1  0.23688578  0.86548187  0.24335886  1
  O  O350  1  0.25189762  0.88346100  0.74143748  1
  O  O351  1  0.73686968  0.38551106  0.25122558  1
  O  O352  1  0.75214835  0.38246384  0.73478193  1
  O  O353  1  0.74859062  0.88657440  0.24449283  1
  O  O354  1  0.74526520  0.88338059  0.74656079  1
  O  O355  1  0.25293376  0.12760680  0.26344352  1
  O  O356  1  0.25938414  0.10799364  0.74452828  1
  O  O357  1  0.25914035  0.63119502  0.25691913  1
  O  O358  1  0.25099538  0.62182569  0.75642851  1
  O  O359  1  0.74812929  0.11603190  0.25778441  1
  O  O360  1  0.74547820  0.11224567  0.76360576  1
  O  O361  1  0.74146297  0.61735209  0.26156519  1
  O  O362  1  0.76396860  0.62293591  0.74967771  1
  O  O363  1  0.36667753  0.11404979  0.37007633  1
  O  O364  1  0.37855559  0.11790650  0.85937378  1
  O  O365  1  0.36750497  0.61881700  0.36544763  1
  O  O366  1  0.36159356  0.62325479  0.86859916  1
  O  O367  1  0.86051988  0.12320084  0.37658368  1
  O  O368  1  0.86928151  0.11235765  0.88914073  1
  O  O369  1  0.86454367  0.61813818  0.37639351  1
  O  O370  1  0.87748660  0.62948618  0.86544252  1
  O  O371  1  0.13353472  0.37494704  0.13259329  1
  O  O372  1  0.13539038  0.37920424  0.61685338  1
  O  O373  1  0.13099898  0.88288021  0.13099851  1
  O  O374  1  0.13663247  0.88089639  0.62368269  1
  O  O375  1  0.62018106  0.38969397  0.12821370  1
  O  O376  1  0.63281626  0.38751039  0.62334482  1
  O  O377  1  0.63645292  0.87595702  0.12610504  1
  O  O378  1  0.63201532  0.87682269  0.63603798  1
  O  O379  1  0.12731981  0.26620496  0.25411952  1
  O  O380  1  0.12538055  0.25400388  0.74846877  1
  O  O381  1  0.11799665  0.75632347  0.25502086  1
  O  O382  1  0.11661056  0.75813524  0.74687722  1
  O  O383  1  0.61969318  0.25728535  0.25494585  1
  O  O384  1  0.60982432  0.23476389  0.73669816  1
  O  O385  1  0.61722109  0.75130092  0.25654912  1
  O  O386  1  0.61855348  0.75447720  0.75641977  1
  O  O387  1  0.38402166  0.25015819  0.24315895  1
  O  O388  1  0.37105128  0.23534147  0.72869243  1
  O  O389  1  0.38073700  0.74050811  0.24339133  1
  O  O390  1  0.38064944  0.74791872  0.74653098  1
  O  O391  1  0.87097564  0.24409317  0.24511371  1
  O  O392  1  0.87532328  0.25293127  0.73128874  1
  O  O393  1  0.89075284  0.75822032  0.25335000  1
  O  O394  1  0.87823598  0.74098221  0.74460078  1
  O  O395  1  0.38243781  0.50092341  0.48899593  1
  O  O396  1  0.37803409  0.48956292  1.00040717  1
  O  O397  1  0.38119361  0.99236930  0.49144851  1
  O  O398  1  0.38187222  0.99643144  0.99301084  1
  O  O399  1  0.87329897  0.49944792  0.48473936  1
  O  O400  1  0.88225731  0.48675990  0.99872888  1
  O  O401  1  0.88735473  0.99157939  0.50343774  1
  O  O402  1  0.88337548  0.99308927  0.99788123  1
  O  O403  1  0.11949125  0.00502890  0.01470249  1
  O  O404  1  0.10909187  -0.00684661  0.50734511  1
  O  O405  1  0.12012409  0.50941192  0.00425925  1
  O  O406  1  0.12429619  0.50740256  0.50660200  1
  O  O407  1  0.61230285  0.00617984  -0.00522808  1
  O  O408  1  0.61626835  0.00038561  0.50841956  1
  O  O409  1  0.63034407  0.50224775  0.00094384  1
  O  O410  1  0.61839987  0.50652110  0.50302608  1
  O  O411  1  0.37027070  0.37082794  0.12058565  1
  O  O412  1  0.36059095  0.36522578  0.62125670  1
  O  O413  1  0.36976657  0.87047691  0.11674878  1
  O  O414  1  0.36372195  0.87001519  0.61899946  1
  O  O415  1  0.88117216  0.37594215  0.11051241  1
  O  O416  1  0.86557308  0.37438404  0.62131526  1
  O  O417  1  0.86470883  0.87412829  0.11995363  1
  O  O418  1  0.86825989  0.85703529  0.61936213  1
  O  O419  1  0.13692916  0.12163025  0.37039880  1
  O  O420  1  0.13412888  0.11421233  0.89484823  1
  O  O421  1  0.13201319  0.62688002  0.37831752  1
  O  O422  1  0.13511634  0.62310657  0.88434789  1
  O  O423  1  0.63258997  0.13287557  0.37594367  1
  O  O424  1  0.63615483  0.12161542  0.88918631  1
  O  O425  1  0.62964145  0.62942504  0.38345146  1
  O  O426  1  0.62211689  0.62879080  0.87781984  1
