# generated using pymatgen
data_V85Zn86O256
_symmetry_space_group_name_H-M   'P 1'
_cell_length_a   16.97234865
_cell_length_b   16.96064439
_cell_length_c   16.97457646
_cell_angle_alpha   89.95386603
_cell_angle_beta   90.00656025
_cell_angle_gamma   90.01548541
_symmetry_Int_Tables_number   1
_chemical_formula_structural   V85Zn86O256
_chemical_formula_sum   'V85 Zn86 O256'
_cell_volume   4886.33322310
_cell_formula_units_Z   1
loop_
 _symmetry_equiv_pos_site_id
 _symmetry_equiv_pos_as_xyz
  1  'x, y, z'
loop_
 _atom_site_type_symbol
 _atom_site_label
 _atom_site_symmetry_multiplicity
 _atom_site_fract_x
 _atom_site_fract_y
 _atom_site_fract_z
 _atom_site_occupancy
  V  V0  1  0.37514028  0.25488252  0.12800248  1
  V  V1  1  0.12513908  0.73734342  0.38504816  1
  V  V2  1  0.17159747  0.56085773  0.56797621  1
  V  V3  1  0.87750458  0.11798192  0.25607715  1
  V  V4  1  0.24331983  0.25145300  -0.00359608  1
  V  V5  1  0.74449099  0.24379099  0.00292381  1
  V  V6  1  0.74859046  0.49946763  0.75042738  1
  V  V7  1  0.37603662  0.12727308  0.25324581  1
  V  V8  1  0.25038111  0.25413365  0.49876138  1
  V  V9  1  0.62893646  0.00805602  0.13515892  1
  V  V10  1  0.25665007  0.87298364  0.12777545  1
  V  V11  1  0.86109170  0.63068083  0.24949446  1
  V  V12  1  0.24050333  0.50721746  0.75297388  1
  V  V13  1  0.25244694  0.00066262  0.25121802  1
  V  V14  1  0.50509276  0.85895045  0.36835008  1
  V  V15  1  0.62066310  0.36670158  0.74997923  1
  V  V16  1  0.12282070  0.37724321  0.24771489  1
  V  V17  1  0.63025689  0.62903189  0.48443809  1
  V  V18  1  0.87533994  0.49879098  0.87650934  1
  V  V19  1  0.50539262  -0.00198149  0.49691558  1
  V  V20  1  0.37229410  0.50029990  0.37493040  1
  V  V21  1  0.24784176  0.37883212  0.12650698  1
  V  V22  1  0.62314018  0.25348968  0.37830163  1
  V  V23  1  0.50584502  0.12888461  0.12349116  1
  V  V24  1  0.11692330  0.36858317  0.73608950  1
  V  V25  1  0.12123179  0.51615499  0.12063009  1
  V  V26  1  0.49017627  0.13041544  0.63006837  1
  V  V27  1  0.12639054  0.00020262  0.12679917  1
  V  V28  1  0.33273142  0.92850099  -0.04869193  1
  V  V29  1  0.00292938  0.12611069  0.12637306  1
  V  V30  1  0.30662104  0.32595837  0.67903007  1
  V  V31  1  0.75031614  0.12619571  0.87106593  1
  V  V32  1  0.37833732  -0.00226679  0.37327704  1
  V  V33  1  0.49795474  0.37318833  0.87434550  1
  V  V34  1  -0.00477593  0.88565207  0.37835597  1
  V  V35  1  0.87388294  0.89007942  0.50169431  1
  V  V36  1  0.62415976  0.37929660  0.24887715  1
  V  V37  1  0.75434129  0.87669713  0.12063791  1
  V  V38  1  0.51005337  0.62315604  0.12644330  1
  V  V39  1  0.74205960  0.62825531  0.89064324  1
  V  V40  1  0.24668140  0.50733364  0.25508207  1
  V  V41  1  -0.00281437  0.62553696  0.61933992  1
  V  V42  1  0.75314382  0.11933176  0.37763099  1
  V  V43  1  0.12673691  0.88097619  0.75074683  1
  V  V44  1  0.37407143  0.86897830  0.49421821  1
  V  V45  1  0.36863701  0.50444481  0.87789179  1
  V  V46  1  0.87841056  0.37266308  0.00012657  1
  V  V47  1  0.62626778  0.49931050  0.62320769  1
  V  V48  1  0.87414205  0.25033230  0.12807028  1
  V  V49  1  0.74952133  0.37229560  0.62627857  1
  V  V50  1  0.62666264  -0.00517139  0.63616546  1
  V  V51  1  0.74672811  0.38508589  0.12587484  1
  V  V52  1  -0.00248060  -0.00166048  -0.00083542  1
  V  V53  1  0.11915390  0.11761841  0.49758735  1
  V  V54  1  0.61769744  0.24380238  0.87746964  1
  V  V55  1  0.37743911  0.74868456  0.62451294  1
  V  V56  1  0.51139586  0.50491159  0.00324284  1
  V  V57  1  0.75019430  0.24985958  0.50140399  1
  V  V58  1  0.75400958  0.74588690  0.48624766  1
  V  V59  1  0.49936035  0.25661134  0.25662739  1
  V  V60  1  0.87389283  0.37596109  0.49891893  1
  V  V61  1  0.00308518  0.51247849  0.00293275  1
  V  V62  1  0.13215033  0.73784755  0.87994980  1
  V  V63  1  0.37877468  0.36946711  0.49656480  1
  V  V64  1  0.37350006  0.63076559  0.75881815  1
  V  V65  1  0.86451758  0.50736369  0.37096430  1
  V  V66  1  0.24938073  0.87902420  0.62445199  1
  V  V67  1  0.88606797  0.25062673  0.63015085  1
  V  V68  1  0.87295420  0.62591615  0.75072005  1
  V  V69  1  0.00142437  0.75109697  0.75149631  1
  V  V70  1  0.37866136  0.74744195  0.12482324  1
  V  V71  1  0.51813974  0.75011185  0.76081119  1
  V  V72  1  0.88698345  0.12609042  0.75245368  1
  V  V73  1  0.50503330  0.49548648  0.49193767  1
  V  V74  1  0.12427755  0.87297759  0.25386238  1
  V  V75  1  0.37382427  0.37779394  -0.00221354  1
  V  V76  1  -0.00186430  0.50268849  0.50134118  1
  V  V77  1  0.37667621  0.62950718  0.25415336  1
  V  V78  1  0.88090007  0.74798978  0.11676789  1
  V  V79  1  -0.00290999  0.37629430  0.37246903  1
  V  V80  1  0.62661574  0.85841898  0.25149468  1
  V  V81  1  0.00114136  0.74187099  0.25048336  1
  V  V82  1  0.50737546  0.62686550  0.62473607  1
  V  V83  1  0.24918041  0.73040503  -0.00179992  1
  V  V84  1  0.50896899  -0.00188993  0.00036251  1
  Zn  Zn85  1  -0.00176719  0.11547253  0.62079169  1
  Zn  Zn86  1  0.43385672  0.20151594  0.78848674  1
  Zn  Zn87  1  0.33662004  0.05111029  0.75704135  1
  Zn  Zn88  1  0.12594043  0.25049777  0.37406741  1
  Zn  Zn89  1  0.87647938  -0.00338535  0.87353405  1
  Zn  Zn90  1  0.12593025  0.12643394  -0.00666032  1
  Zn  Zn91  1  0.74233192  0.86578152  0.63098260  1
  Zn  Zn92  1  0.51039893  0.87563852  0.87592519  1
  Zn  Zn93  1  0.87057907  0.87555288  -0.00386227  1
  Zn  Zn94  1  -0.00192243  0.87380960  0.87606998  1
  Zn  Zn95  1  0.00228578  0.37246702  0.86889619  1
  Zn  Zn96  1  0.75384825  -0.00191662  0.25643980  1
  Zn  Zn97  1  0.66462628  0.77541178  -0.05943108  1
  Zn  Zn98  1  0.75185952  -0.00834723  0.75491137  1
  Zn  Zn99  1  0.00000576  0.25109968  0.25060394  1
  Zn  Zn100  1  0.12156241  -0.00251193  0.62377237  1
  Zn  Zn101  1  0.87373103  0.75310657  0.62294539  1
  Zn  Zn102  1  0.24734364  0.73731929  0.49790369  1
  Zn  Zn103  1  0.62443175  0.12477703  0.50330623  1
  Zn  Zn104  1  0.73680041  0.51309324  0.24685588  1
  Zn  Zn105  1  0.11366573  0.24763370  0.86079241  1
  Zn  Zn106  1  0.25111652  0.12699981  0.37648882  1
  Zn  Zn107  1  0.18772988  0.19092532  0.18879804  1
  Zn  Zn108  1  0.18876999  0.18039196  0.68257016  1
  Zn  Zn109  1  0.19003176  0.68992551  0.19110020  1
  Zn  Zn110  1  0.19432965  0.69902958  0.69483848  1
  Zn  Zn111  1  0.68965310  0.19126203  0.19230606  1
  Zn  Zn112  1  0.68617755  0.18210351  0.68728824  1
  Zn  Zn113  1  0.67869295  0.70001401  0.13611823  1
  Zn  Zn114  1  0.69466685  0.68536849  0.67871150  1
  Zn  Zn115  1  0.31179742  0.31777072  0.31663054  1
  Zn  Zn116  1  0.25494869  0.14250774  0.86004079  1
  Zn  Zn117  1  0.30798278  0.80758142  0.31527868  1
  Zn  Zn118  1  0.33775667  0.84996131  0.79003803  1
  Zn  Zn119  1  0.81068840  0.31063200  0.31106839  1
  Zn  Zn120  1  0.81174426  0.30967127  0.81284965  1
  Zn  Zn121  1  0.81429015  0.81536792  0.31008772  1
  Zn  Zn122  1  0.81083786  0.81411055  0.81305103  1
  Zn  Zn123  1  0.19130996  0.43146627  0.43322369  1
  Zn  Zn124  1  0.18324707  0.43448838  0.93187740  1
  Zn  Zn125  1  0.18900451  0.93360961  0.43386549  1
  Zn  Zn126  1  0.16878380  0.93288297  0.93863641  1
  Zn  Zn127  1  0.68719687  0.43601935  0.43413100  1
  Zn  Zn128  1  0.68992234  0.43360808  0.93589475  1
  Zn  Zn129  1  0.68827265  0.93272588  0.43696520  1
  Zn  Zn130  1  0.68291133  0.94817874  0.94168850  1
  Zn  Zn131  1  0.31242735  0.07075130  0.06941077  1
  Zn  Zn132  1  0.31204949  0.06167194  0.55875016  1
  Zn  Zn133  1  0.31450856  0.56174664  0.06770722  1
  Zn  Zn134  1  0.33231044  0.55722918  0.56891233  1
  Zn  Zn135  1  0.81464682  0.06385997  0.06386126  1
  Zn  Zn136  1  0.81121386  0.06552574  0.56680884  1
  Zn  Zn137  1  0.81913944  0.56428767  0.06554954  1
  Zn  Zn138  1  0.81155608  0.56523871  0.56089201  1
  Zn  Zn139  1  0.43866004  0.44045153  0.18771144  1
  Zn  Zn140  1  0.44245582  0.44498303  0.69101594  1
  Zn  Zn141  1  0.44157300  0.93611066  0.18835495  1
  Zn  Zn142  1  0.45360538  0.92708023  0.67961040  1
  Zn  Zn143  1  0.93565784  0.44415152  0.18531110  1
  Zn  Zn144  1  0.93817878  0.43949405  0.68461871  1
  Zn  Zn145  1  0.93971377  0.93643570  0.18969187  1
  Zn  Zn146  1  0.93822745  0.94189155  0.68549311  1
  Zn  Zn147  1  0.06586894  0.06417075  0.31400487  1
  Zn  Zn148  1  0.06850422  0.06580955  0.81467888  1
  Zn  Zn149  1  0.05645515  0.56292210  0.31073333  1
  Zn  Zn150  1  0.05941334  0.56150267  0.81370813  1
  Zn  Zn151  1  0.56376253  0.06558021  0.31460635  1
  Zn  Zn152  1  0.56108947  0.06158657  0.81304252  1
  Zn  Zn153  1  0.55848544  0.56490415  0.30986741  1
  Zn  Zn154  1  0.56161422  0.56159237  0.81443232  1
  Zn  Zn155  1  0.43917879  0.18557039  0.43992627  1
  Zn  Zn156  1  0.42762482  0.17915947  0.94648218  1
  Zn  Zn157  1  0.43972447  0.68185364  0.43701486  1
  Zn  Zn158  1  0.43846715  0.68909906  0.94186644  1
  Zn  Zn159  1  0.93712677  0.19079195  0.43729166  1
  Zn  Zn160  1  0.93843058  0.18720624  0.93792984  1
  Zn  Zn161  1  0.93647113  0.69062808  0.43425346  1
  Zn  Zn162  1  0.93674837  0.68813868  0.93320359  1
  Zn  Zn163  1  0.05912294  0.31743250  0.06321489  1
  Zn  Zn164  1  0.06712314  0.31376080  0.56149093  1
  Zn  Zn165  1  0.06528110  0.81092322  0.06345792  1
  Zn  Zn166  1  0.05861596  0.81473278  0.56145338  1
  Zn  Zn167  1  0.56318898  0.31597659  0.06308919  1
  Zn  Zn168  1  0.55955210  0.31039478  0.56377032  1
  Zn  Zn169  1  0.55808854  0.81871349  0.07194342  1
  Zn  Zn170  1  0.56539574  0.80960425  0.55807461  1
  O  O171  1  0.11385930  0.12188406  0.12859150  1
  O  O172  1  0.12271724  0.12381411  0.60850289  1
  O  O173  1  0.12777390  0.61496415  0.13006079  1
  O  O174  1  0.11828988  0.62465142  0.62995316  1
  O  O175  1  0.61623082  0.12327102  0.13413534  1
  O  O176  1  0.61518060  0.11255975  0.62282546  1
  O  O177  1  0.60722773  0.61289155  0.14718298  1
  O  O178  1  0.62410131  0.61501647  0.61529130  1
  O  O179  1  0.37541826  0.38838549  0.38404273  1
  O  O180  1  0.38113427  0.38533236  0.88983889  1
  O  O181  1  0.38216180  0.87617579  0.37740492  1
  O  O182  1  0.38860659  0.86320450  0.89509014  1
  O  O183  1  0.88066513  0.38260365  0.37681435  1
  O  O184  1  0.87171339  0.38245169  0.88318891  1
  O  O185  1  0.88709579  0.87359007  0.38260954  1
  O  O186  1  0.88087925  0.87694043  0.88032302  1
  O  O187  1  0.26014787  -0.00074541  0.36754621  1
  O  O188  1  0.26836007  -0.02110626  0.89229525  1
  O  O189  1  0.25769587  0.49800520  0.36654378  1
  O  O190  1  0.26141434  0.49618298  0.86701039  1
  O  O191  1  0.74303602  0.01572793  0.37593310  1
  O  O192  1  0.74951070  0.01739959  0.87939156  1
  O  O193  1  0.76188799  0.49581863  0.36903262  1
  O  O194  1  0.76000317  0.50441841  0.87124490  1
  O  O195  1  0.24255737  0.49500645  0.13281057  1
  O  O196  1  0.23912549  0.51002509  0.62733224  1
  O  O197  1  0.24804013  0.99321213  0.13096810  1
  O  O198  1  0.24852371  0.98282123  0.61741618  1
  O  O199  1  0.75538897  0.48851523  0.12750297  1
  O  O200  1  0.74617770  0.49248140  0.62925606  1
  O  O201  1  0.74390711  0.99864916  0.13038206  1
  O  O202  1  0.73233008  1.00218520  0.62225206  1
  O  O203  1  0.00521428  0.37916718  0.25620228  1
  O  O204  1  0.01341965  0.38294185  0.74846554  1
  O  O205  1  0.00338631  0.86715298  0.26163628  1
  O  O206  1  0.00683179  0.86169119  0.74698008  1
  O  O207  1  0.50630644  0.36380402  0.24316605  1
  O  O208  1  0.51016695  0.38286155  0.75983888  1
  O  O209  1  0.51609080  0.87578251  0.25480217  1
  O  O210  1  0.50796493  0.85341312  0.75416539  1
  O  O211  1  0.49600010  0.13715326  0.24404431  1
  O  O212  1  0.50055467  0.12315966  0.73732972  1
  O  O213  1  0.48319400  0.61678168  0.24284791  1
  O  O214  1  0.49198409  0.62883387  0.74546037  1
  O  O215  1  0.99521227  0.12801389  0.24606827  1
  O  O216  1  0.98990669  0.12533853  0.75047927  1
  O  O217  1  0.99197541  0.63848359  0.25138582  1
  O  O218  1  0.99128279  0.62735327  0.74144832  1
  O  O219  1  0.36632462  0.26029724  0.00826931  1
  O  O220  1  0.37221569  0.26271678  0.49440354  1
  O  O221  1  0.36359179  0.74185895  0.01257759  1
  O  O222  1  0.37378636  0.75118208  0.50507795  1
  O  O223  1  0.86631608  0.25728737  0.00761067  1
  O  O224  1  0.86876042  0.25785210  0.50667729  1
  O  O225  1  0.88623130  0.75409676  0.01391935  1
  O  O226  1  0.86513500  0.75365811  0.49930192  1
  O  O227  1  0.13527382  0.24599751  0.49706137  1
  O  O228  1  0.13886509  0.25230381  1.01211991  1
  O  O229  1  0.12352556  0.74940090  0.48869529  1
  O  O230  1  0.13176164  0.75390822  0.98869575  1
  O  O231  1  0.63033598  0.24979905  0.49351525  1
  O  O232  1  0.63267274  0.25712975  0.98992626  1
  O  O233  1  0.63954792  0.74149459  0.50151671  1
  O  O234  1  0.62876188  0.73972038  1.03821876  1
  O  O235  1  0.49538313  0.24568503  0.13075712  1
  O  O236  1  0.49999316  0.22970318  0.61922533  1
  O  O237  1  0.48440240  0.74082820  0.12430776  1
  O  O238  1  0.49608783  0.74474837  0.62988492  1
  O  O239  1  0.99376625  0.24249561  0.12591357  1
  O  O240  1  0.98726871  0.24888619  0.61736985  1
  O  O241  1  0.99005524  0.76063713  0.13635669  1
  O  O242  1  0.99848491  0.74088908  0.63265268  1
  O  O243  1  0.00022192  0.26689552  0.37372276  1
  O  O244  1  0.00481441  0.26103258  0.89080051  1
  O  O245  1  0.00896160  0.75697405  0.36864706  1
  O  O246  1  0.00870128  0.74878039  0.86651771  1
  O  O247  1  0.50878132  0.24538111  0.36668049  1
  O  O248  1  0.50288915  0.25222247  0.87676980  1
  O  O249  1  0.49747391  0.76003405  0.37614951  1
  O  O250  1  0.50402815  0.74269485  0.86400353  1
  O  O251  1  0.24594887  0.13739231  0.49991559  1
  O  O252  1  0.25140991  0.14340748  1.00540718  1
  O  O253  1  0.23886975  0.61501392  0.51348860  1
  O  O254  1  0.24831159  0.63133626  1.00461450  1
  O  O255  1  0.74844540  0.13332581  0.49460253  1
  O  O256  1  0.75556014  0.13929486  0.99526619  1
  O  O257  1  0.74515830  0.63552721  0.49814000  1
  O  O258  1  0.75250235  0.61758550  0.98954804  1
  O  O259  1  0.25547707  0.37094045  0.00695459  1
  O  O260  1  0.25890931  0.36439337  0.49839098  1
  O  O261  1  0.25933423  0.87455011  0.00747590  1
  O  O262  1  0.26363722  0.87054284  0.50060029  1
  O  O263  1  0.75854386  0.36847328  0.00641665  1
  O  O264  1  0.75580254  0.37072573  0.50528737  1
  O  O265  1  0.75004487  0.88278155  0.01644897  1
  O  O266  1  0.76150436  0.86692328  0.49882379  1
  O  O267  1  0.12956523  0.49745142  0.24561075  1
  O  O268  1  0.13747329  0.49740521  0.75560044  1
  O  O269  1  0.13226787  0.99371989  0.24595555  1
  O  O270  1  0.12352596  0.98381359  0.75187455  1
  O  O271  1  0.62334634  0.48338270  0.26099011  1
  O  O272  1  0.62997007  0.49139825  0.74502503  1
  O  O273  1  0.62727990  1.00028569  0.24298948  1
  O  O274  1  0.62467734  0.99922122  0.73855781  1
  O  O275  1  0.37298405  0.00515751  0.25430055  1
  O  O276  1  0.38314736  -0.04527467  0.76053064  1
  O  O277  1  0.36687324  0.50243804  0.25781716  1
  O  O278  1  0.36739294  0.50959696  0.75713099  1
  O  O279  1  0.87455539  0.01412588  0.24749278  1
  O  O280  1  0.87254300  0.01185753  0.75318570  1
  O  O281  1  0.87446004  0.51248205  0.25551324  1
  O  O282  1  0.87123269  0.50495408  0.75786788  1
  O  O283  1  0.11566354  0.37856175  0.36308443  1
  O  O284  1  0.12515716  0.37408338  0.85504579  1
  O  O285  1  0.11418985  0.86717578  0.37283367  1
  O  O286  1  0.11883492  0.86295403  0.86574327  1
  O  O287  1  0.63106870  0.36046956  0.36756593  1
  O  O288  1  0.62012796  0.36457473  0.86881561  1
  O  O289  1  0.62047340  0.87558602  0.35995277  1
  O  O290  1  0.62220729  0.86790437  0.89512750  1
  O  O291  1  0.38353130  0.13543504  0.13533085  1
  O  O292  1  0.38950210  0.11028762  0.62804028  1
  O  O293  1  0.37959413  0.62988845  0.13521650  1
  O  O294  1  0.38523454  0.63454441  0.63286302  1
  O  O295  1  0.88605913  0.12974766  0.13273298  1
  O  O296  1  0.87639372  0.13403415  0.63280725  1
  O  O297  1  0.87656494  0.64075413  0.13098431  1
  O  O298  1  0.88221549  0.62419814  0.63350148  1
  O  O299  1  0.25749353  0.26039959  0.12363715  1
  O  O300  1  0.25653762  0.25640267  0.61942390  1
  O  O301  1  0.25334180  0.75679734  0.11687608  1
  O  O302  1  0.26102188  0.75507450  0.61713796  1
  O  O303  1  0.75387179  0.25675378  0.11835008  1
  O  O304  1  0.75368650  0.25472113  0.61850763  1
  O  O305  1  0.77212278  0.76315351  0.13099395  1
  O  O306  1  0.75616865  0.75080275  0.61081367  1
  O  O307  1  0.24850663  0.24953566  0.38371769  1
  O  O308  1  0.24556390  0.25857271  0.89644631  1
  O  O309  1  0.23150259  0.75050758  0.37943938  1
  O  O310  1  0.23672657  0.75192486  0.88584159  1
  O  O311  1  0.74431531  0.24348184  0.38255881  1
  O  O312  1  0.74226567  0.24290814  0.88252793  1
  O  O313  1  0.75370342  0.75414271  0.38700136  1
  O  O314  1  0.75388013  0.73348757  0.87925618  1
  O  O315  1  0.00143694  0.11573122  0.01120350  1
  O  O316  1  0.01613781  0.13128953  0.49565152  1
  O  O317  1  -0.00544027  0.61136136  -0.00455806  1
  O  O318  1  -0.00462976  0.62078360  0.51087076  1
  O  O319  1  0.49321715  0.11557736  0.01690170  1
  O  O320  1  0.50026299  0.11329299  0.50786355  1
  O  O321  1  0.49729863  0.61194928  0.00857959  1
  O  O322  1  0.50940651  0.61770838  0.50533251  1
  O  O323  1  0.49181039  0.38370685  0.50673252  1
  O  O324  1  0.49142039  0.38394548  0.99785259  1
  O  O325  1  0.49218002  0.87742244  0.49132837  1
  O  O326  1  0.49675602  0.89627854  1.01317655  1
  O  O327  1  0.99469255  0.38360501  0.49290313  1
  O  O328  1  0.98486825  0.38388845  1.00413852  1
  O  O329  1  0.98673591  0.86997327  0.48786256  1
  O  O330  1  1.00401252  0.88977137  1.00387983  1
  O  O331  1  0.49368895  0.50198027  0.38735763  1
  O  O332  1  0.49017973  0.49761180  0.88575100  1
  O  O333  1  0.49631637  0.99282091  0.38013887  1
  O  O334  1  0.50869407  1.00140239  0.89639153  1
  O  O335  1  0.99315313  0.49399102  0.38349705  1
  O  O336  1  0.98868871  0.49585799  0.88067068  1
  O  O337  1  1.00513440  0.98384057  0.37090838  1
  O  O338  1  1.00227990  1.00054046  0.88699467  1
  O  O339  1  0.00669966  0.00742282  0.12332152  1
  O  O340  1  0.00788340  0.00186294  0.62268206  1
  O  O341  1  0.00892610  0.49941783  0.11596747  1
  O  O342  1  -0.00512089  0.50728046  0.60935400  1
  O  O343  1  0.50743253  0.01084374  0.12554531  1
  O  O344  1  0.51093563  0.00270211  0.61573447  1
  O  O345  1  0.49260039  0.50623575  0.11017646  1
  O  O346  1  0.50612010  0.50720361  0.61478085  1
  O  O347  1  0.24182980  0.38603782  0.24721866  1
  O  O348  1  0.24413525  0.38852997  0.73476329  1
  O  O349  1  0.24434500  0.87894476  0.24516754  1
  O  O350  1  0.23845498  0.85970435  0.73540972  1
  O  O351  1  0.74184143  0.37427262  0.24092090  1
  O  O352  1  0.74206673  0.38072390  0.74671902  1
  O  O353  1  0.74227772  0.87948520  0.24437637  1
  O  O354  1  0.75646055  0.87895497  0.74221020  1
  O  O355  1  0.25808583  0.11993345  0.25045040  1
  O  O356  1  0.25285145  0.11928382  0.74831588  1
  O  O357  1  0.25854760  0.61304072  0.24641888  1
  O  O358  1  0.26299719  0.61974188  0.74519157  1
  O  O359  1  0.75966806  0.12692836  0.25998802  1
  O  O360  1  0.75712481  0.12270722  0.75893913  1
  O  O361  1  0.76039720  0.62791349  0.23996547  1
  O  O362  1  0.76192356  0.61860563  0.75141432  1
  O  O363  1  0.37567139  0.11667910  0.36993453  1
  O  O364  1  0.37216790  0.13265749  0.85965033  1
  O  O365  1  0.37747542  0.61221457  0.36927054  1
  O  O366  1  0.37957232  0.61858833  0.86710400  1
  O  O367  1  0.86692129  0.13246441  0.36786846  1
  O  O368  1  0.86695813  0.12715354  0.86778970  1
  O  O369  1  0.87963387  0.61741177  0.36447709  1
  O  O370  1  0.86757671  0.61713439  0.86822640  1
  O  O371  1  0.12663907  0.38379414  0.13649116  1
  O  O372  1  0.12067994  0.38242913  0.63591642  1
  O  O373  1  0.13806473  0.87833015  0.13173635  1
  O  O374  1  0.13370906  0.87053770  0.62977174  1
  O  O375  1  0.63493461  0.36954580  0.13535892  1
  O  O376  1  0.62782190  0.37829700  0.63234514  1
  O  O377  1  0.63248211  0.88728518  0.13853290  1
  O  O378  1  0.62340414  0.89099985  0.61637770  1
  O  O379  1  0.12211308  0.26325082  0.25197829  1
  O  O380  1  0.13044746  0.26535284  0.74176018  1
  O  O381  1  0.11916938  0.75514468  0.25727897  1
  O  O382  1  0.11848311  0.75397065  0.76034452  1
  O  O383  1  0.61809383  0.25808985  0.25795509  1
  O  O384  1  0.62950138  0.26104482  0.75628394  1
  O  O385  1  0.63182020  0.76227538  0.23778786  1
  O  O386  1  0.61470594  0.73422078  0.74519586  1
  O  O387  1  0.38252574  0.25093739  0.24908303  1
  O  O388  1  0.36609943  0.27956921  0.74246727  1
  O  O389  1  0.36286329  0.73738039  0.24257385  1
  O  O390  1  0.38353649  0.74570974  0.74165182  1
  O  O391  1  0.87698305  0.24181677  0.24327023  1
  O  O392  1  0.86902137  0.24266342  0.73979855  1
  O  O393  1  0.88325966  0.74672451  0.24500153  1
  O  O394  1  0.88530915  0.74009403  0.74984580  1
  O  O395  1  0.38349570  0.49189651  0.49351261  1
  O  O396  1  0.37756754  0.49557423  0.99440445  1
  O  O397  1  0.38512002  0.98874425  0.49381843  1
  O  O398  1  0.38343547  0.99981972  1.00780850  1
  O  O399  1  0.87988717  0.49686411  0.49084582  1
  O  O400  1  0.87947003  0.49309472  0.99412385  1
  O  O401  1  0.86742445  0.98852039  0.49956788  1
  O  O402  1  0.88464143  0.99921005  0.99972627  1
  O  O403  1  0.11987386  0.00600538  0.01084815  1
  O  O404  1  0.13519693  0.01588004  0.49541686  1
  O  O405  1  0.11529333  0.49219695  0.00843819  1
  O  O406  1  0.11965776  0.49883884  0.50146668  1
  O  O407  1  0.61454703  0.00673217  0.01894309  1
  O  O408  1  0.61340349  -0.00031400  0.49895943  1
  O  O409  1  0.60916635  0.49080579  -0.00485925  1
  O  O410  1  0.62086222  0.50291039  0.50197444  1
  O  O411  1  0.37001385  0.37482545  0.11651629  1
  O  O412  1  0.37026169  0.38385346  0.61917668  1
  O  O413  1  0.36435765  0.86521427  0.13567188  1
  O  O414  1  0.37354333  0.86260420  0.61348596  1
  O  O415  1  0.86781629  0.37042457  0.12008028  1
  O  O416  1  0.86902960  0.36914992  0.62102521  1
  O  O417  1  0.86981346  0.86976907  0.12552305  1
  O  O418  1  0.87741215  0.87353372  0.60823631  1
  O  O419  1  0.12945780  0.13000799  0.38352623  1
  O  O420  1  0.13630718  0.13324819  0.87722914  1
  O  O421  1  0.11728565  0.63870902  0.37259774  1
  O  O422  1  0.12395039  0.63880700  0.86977196  1
  O  O423  1  0.63280047  0.13760039  0.37656228  1
  O  O424  1  0.63041267  0.13791444  0.86848010  1
  O  O425  1  0.62242673  0.62092028  0.38557157  1
  O  O426  1  0.64399638  0.61604475  0.87256190  1
