# generated using pymatgen
data_V85Zn86O256
_symmetry_space_group_name_H-M   'P 1'
_cell_length_a   16.94424767
_cell_length_b   16.94754094
_cell_length_c   16.95419630
_cell_angle_alpha   89.97272717
_cell_angle_beta   90.00748245
_cell_angle_gamma   89.97636142
_symmetry_Int_Tables_number   1
_chemical_formula_structural   V85Zn86O256
_chemical_formula_sum   'V85 Zn86 O256'
_cell_volume   4868.62248034
_cell_formula_units_Z   1
loop_
 _symmetry_equiv_pos_site_id
 _symmetry_equiv_pos_as_xyz
  1  'x, y, z'
loop_
 _atom_site_type_symbol
 _atom_site_label
 _atom_site_symmetry_multiplicity
 _atom_site_fract_x
 _atom_site_fract_y
 _atom_site_fract_z
 _atom_site_occupancy
  V  V0  1  0.87647284  0.62603470  0.25063024  1
  V  V1  1  0.74065567  0.12533565  0.87865182  1
  V  V2  1  0.63232300  0.24474979  0.37492376  1
  V  V3  1  0.49761080  0.50048932  -0.00877965  1
  V  V4  1  0.75025887  0.62664054  0.37811284  1
  V  V5  1  0.87041375  0.25557579  0.61164266  1
  V  V6  1  0.00157655  0.62569931  0.11875036  1
  V  V7  1  0.49758757  0.62737861  0.62540984  1
  V  V8  1  0.12256822  0.12450062  0.00018154  1
  V  V9  1  0.00021497  0.00088766  -0.00521559  1
  V  V10  1  0.37147465  0.87192975  0.00594746  1
  V  V11  1  0.50614861  0.00686463  0.50246011  1
  V  V12  1  0.87608824  0.49442648  0.87213455  1
  V  V13  1  0.62823888  0.37731583  0.24869822  1
  V  V14  1  0.12690860  -0.00089575  0.62443776  1
  V  V15  1  0.50127025  0.26064434  0.75796895  1
  V  V16  1  0.12091885  0.00172233  0.12383011  1
  V  V17  1  0.26622632  0.61691289  0.37107753  1
  V  V18  1  0.12510776  0.74620983  0.37530606  1
  V  V19  1  0.38313338  0.12436981  0.74628700  1
  V  V20  1  0.87109503  0.00145846  0.37457488  1
  V  V21  1  0.49876165  0.38164278  0.37459094  1
  V  V22  1  0.75291807  0.74446829  0.51429885  1
  V  V23  1  -0.00098732  0.74700987  0.24955831  1
  V  V24  1  0.24789351  0.74365748  0.01045664  1
  V  V25  1  0.12149377  0.87234026  0.24911525  1
  V  V26  1  0.00447229  0.37862279  0.86789258  1
  V  V27  1  -0.06160760  0.44323330  0.04826605  1
  V  V28  1  -0.00258229  0.12411467  0.62765718  1
  V  V29  1  0.12763090  0.25075158  0.36775562  1
  V  V30  1  0.24792055  0.37183942  0.62641799  1
  V  V31  1  0.63629999  0.87143595  0.24283519  1
  V  V32  1  0.49474936  0.50305595  0.49798665  1
  V  V33  1  -0.00057089  -0.00201202  0.50026513  1
  V  V34  1  0.00519227  0.36941205  0.37625470  1
  V  V35  1  0.75158290  0.62524363  0.87616673  1
  V  V36  1  0.75279808  -0.00249361  0.23246223  1
  V  V37  1  0.49598934  0.88301312  0.87888132  1
  V  V38  1  -0.00162042  0.87239561  0.37597641  1
  V  V39  1  0.48291947  0.63005666  0.13065123  1
  V  V40  1  0.87129610  0.62541870  0.73816640  1
  V  V41  1  0.87319612  0.87777863  0.00358567  1
  V  V42  1  0.74892774  0.75810665  0.00730718  1
  V  V43  1  0.25392636  0.12519491  0.36965233  1
  V  V44  1  -0.00363899  0.74760899  0.74325054  1
  V  V45  1  0.24327327  -0.00293500  0.24722778  1
  V  V46  1  0.25190387  0.74831268  0.49980043  1
  V  V47  1  0.00100711  0.24636388  0.23932512  1
  V  V48  1  0.12545105  0.74643833  0.87608892  1
  V  V49  1  0.00243085  0.25423326  0.74711571  1
  V  V50  1  0.62901592  0.12810262  0.51097369  1
  V  V51  1  0.38398675  0.24547028  0.61986396  1
  V  V52  1  0.74556617  0.89101580  0.62936526  1
  V  V53  1  0.25583564  -0.00057610  0.74814408  1
  V  V54  1  0.24875991  0.49897595  0.24803811  1
  V  V55  1  0.49032905  0.74808077  0.24826885  1
  V  V56  1  0.12575953  0.87255441  0.75101915  1
  V  V57  1  0.37427445  0.75463795  0.62768793  1
  V  V58  1  0.00043573  0.49360608  0.49996300  1
  V  V59  1  0.37683555  0.26047805  0.12897522  1
  V  V60  1  0.37437693  0.62154324  0.76157837  1
  V  V61  1  0.74988468  0.50228159  0.24926441  1
  V  V62  1  0.50224063  0.75444584  0.75257724  1
  V  V63  1  0.50725114  0.87783929  0.37381685  1
  V  V64  1  0.76420135  0.25921014  0.00434853  1
  V  V65  1  0.37519339  -0.00391123  0.37603249  1
  V  V66  1  0.49971588  0.25365534  0.24730690  1
  V  V67  1  0.87481072  0.86875978  0.50795296  1
  V  V68  1  0.25061187  0.12568903  0.87391424  1
  V  V69  1  0.25150770  0.87318994  0.62483679  1
  V  V70  1  0.25226971  0.49653905  0.75475332  1
  V  V71  1  0.25200808  0.25021502  -0.00171037  1
  V  V72  1  0.12584849  0.62266153  0.49930121  1
  V  V73  1  0.62165874  0.50498558  0.12424990  1
  V  V74  1  0.12396383  0.49482572  0.63093953  1
  V  V75  1  0.39763923  0.10094218  0.22968307  1
  V  V76  1  0.11967306  0.61049286  0.00033052  1
  V  V77  1  0.23344284  0.37906283  0.12848568  1
  V  V78  1  0.62296537  0.49651695  0.62969030  1
  V  V79  1  0.37838750  0.38058585  -0.01078848  1
  V  V80  1  0.87703283  0.12871981  0.23582704  1
  V  V81  1  0.37375573  0.37614113  0.49484840  1
  V  V82  1  0.12785847  0.12341335  0.49788959  1
  V  V83  1  0.87257927  0.48856466  0.37909367  1
  V  V84  1  0.62698592  0.75495866  0.87542105  1
  Zn  Zn85  1  -0.00789922  0.62418970  0.62019213  1
  Zn  Zn86  1  0.62360518  0.62609683  0.50048525  1
  Zn  Zn87  1  0.62704124  0.37566500  0.76108638  1
  Zn  Zn88  1  0.86427208  0.12220278  0.74989903  1
  Zn  Zn89  1  0.74613764  0.36467852  0.61834976  1
  Zn  Zn90  1  0.61996025  0.63221972  0.00334717  1
  Zn  Zn91  1  0.37557515  0.00106963  0.87948594  1
  Zn  Zn92  1  0.86246600  -0.00172079  0.86622304  1
  Zn  Zn93  1  0.12646730  0.25387815  0.86608287  1
  Zn  Zn94  1  0.75369261  0.12912299  0.37285783  1
  Zn  Zn95  1  0.25272021  0.24877001  0.49731382  1
  Zn  Zn96  1  0.76302316  0.37621863  0.12167470  1
  Zn  Zn97  1  0.56383276  0.06963976  0.04560405  1
  Zn  Zn98  1  0.62801846  0.75059714  0.37851207  1
  Zn  Zn99  1  0.62195511  0.25753400  0.89563735  1
  Zn  Zn100  1  0.87108009  0.75485703  0.12734698  1
  Zn  Zn101  1  0.25160605  0.86552256  0.13064876  1
  Zn  Zn102  1  0.38130588  0.87533536  0.50191082  1
  Zn  Zn103  1  0.64194971  0.89803278  0.75668503  1
  Zn  Zn104  1  0.74589031  0.49226546  0.75398440  1
  Zn  Zn105  1  0.25086615  0.61766554  0.87956024  1
  Zn  Zn106  1  -0.00237066  0.87521912  0.87233015  1
  Zn  Zn107  1  0.19118723  0.18593212  0.18466230  1
  Zn  Zn108  1  0.18871030  0.18855459  0.68642266  1
  Zn  Zn109  1  0.18421657  0.67820229  0.18931087  1
  Zn  Zn110  1  0.18663227  0.68236218  0.68825702  1
  Zn  Zn111  1  0.69115986  0.18831278  0.16538553  1
  Zn  Zn112  1  0.68822128  0.18938335  0.69044992  1
  Zn  Zn113  1  0.68222114  0.68954234  0.18944447  1
  Zn  Zn114  1  0.68482185  0.68695023  0.68995500  1
  Zn  Zn115  1  0.31199254  0.31973218  0.30859899  1
  Zn  Zn116  1  0.31345635  0.31110089  0.80892168  1
  Zn  Zn117  1  0.31201950  0.81149179  0.31619513  1
  Zn  Zn118  1  0.31118346  0.80887696  0.81631349  1
  Zn  Zn119  1  0.81342931  0.31124410  0.30772484  1
  Zn  Zn120  1  0.81024054  0.30872246  0.80772369  1
  Zn  Zn121  1  0.81286332  0.81095046  0.31818422  1
  Zn  Zn122  1  0.81608359  0.81408612  0.81427801  1
  Zn  Zn123  1  0.18753447  0.43720893  0.43505001  1
  Zn  Zn124  1  0.18770471  0.43296908  0.93780263  1
  Zn  Zn125  1  0.18826681  0.93469766  0.43759747  1
  Zn  Zn126  1  0.19169090  0.93517027  0.93660164  1
  Zn  Zn127  1  0.68416831  0.43547576  0.44257540  1
  Zn  Zn128  1  0.68663224  0.43180879  0.93953793  1
  Zn  Zn129  1  0.68881668  0.93953482  0.43749399  1
  Zn  Zn130  1  0.68398980  0.94704640  0.94641644  1
  Zn  Zn131  1  0.36246753  0.07994571  0.04439632  1
  Zn  Zn132  1  0.31593341  0.06268324  0.56099341  1
  Zn  Zn133  1  0.30936187  0.55791076  0.06381769  1
  Zn  Zn134  1  0.31303655  0.56195180  0.56546789  1
  Zn  Zn135  1  0.81317257  0.06938000  0.05371511  1
  Zn  Zn136  1  0.81234948  0.06714211  0.55959046  1
  Zn  Zn137  1  0.80537417  0.57232503  0.06481007  1
  Zn  Zn138  1  0.79841846  0.53130039  0.55199614  1
  Zn  Zn139  1  0.43198919  0.44374859  0.18819653  1
  Zn  Zn140  1  0.43351595  0.43716660  0.68434760  1
  Zn  Zn141  1  0.43529162  0.92526671  0.18846518  1
  Zn  Zn142  1  0.47847513  0.96475395  0.70704428  1
  Zn  Zn143  1  0.95045104  0.44162917  0.20862171  1
  Zn  Zn144  1  0.93385150  0.43571732  0.68842676  1
  Zn  Zn145  1  0.93833157  0.94000704  0.18317674  1
  Zn  Zn146  1  0.93399827  0.93682065  0.68943420  1
  Zn  Zn147  1  0.05884959  0.06446032  0.31275723  1
  Zn  Zn148  1  0.06333590  0.06209569  0.81037279  1
  Zn  Zn149  1  0.06702497  0.55915471  0.31145204  1
  Zn  Zn150  1  0.05979667  0.56247325  0.81177005  1
  Zn  Zn151  1  0.56959729  0.06449059  0.22224387  1
  Zn  Zn152  1  0.56967114  0.07025726  0.81653159  1
  Zn  Zn153  1  0.56095121  0.56501741  0.31244606  1
  Zn  Zn154  1  0.56388487  0.56663236  0.81386602  1
  Zn  Zn155  1  0.44138352  0.18660972  0.42758416  1
  Zn  Zn156  1  0.43931640  0.19055958  0.93607508  1
  Zn  Zn157  1  0.43944034  0.69312673  0.43753096  1
  Zn  Zn158  1  0.43816755  0.69117280  0.94359608  1
  Zn  Zn159  1  0.93921579  0.18452029  0.43591978  1
  Zn  Zn160  1  0.93339623  0.18694016  0.93168124  1
  Zn  Zn161  1  0.93502770  0.68384198  0.43943900  1
  Zn  Zn162  1  0.93580593  0.68843774  0.93385495  1
  Zn  Zn163  1  0.06276588  0.30441977  0.05578302  1
  Zn  Zn164  1  0.06400300  0.30922997  0.55871243  1
  Zn  Zn165  1  0.06149448  0.81214672  0.06122449  1
  Zn  Zn166  1  0.06263510  0.80982201  0.56470990  1
  Zn  Zn167  1  0.56491616  0.31340607  0.06125975  1
  Zn  Zn168  1  0.56213239  0.31105697  0.56194083  1
  Zn  Zn169  1  0.57894469  0.85658913  0.04425544  1
  Zn  Zn170  1  0.56795125  0.81543625  0.56205792  1
  O  O171  1  0.13539847  0.11396628  0.11213998  1
  O  O172  1  0.12208387  0.11869543  0.61653998  1
  O  O173  1  0.11021153  0.62360707  0.11795736  1
  O  O174  1  0.12758611  0.61498188  0.61162185  1
  O  O175  1  0.61796817  0.11464439  0.13396687  1
  O  O176  1  0.62630009  0.13289900  0.60904448  1
  O  O177  1  0.61895792  0.61471648  0.12586156  1
  O  O178  1  0.60661287  0.62504759  0.62701350  1
  O  O179  1  0.38255911  0.36941040  0.38725464  1
  O  O180  1  0.36888094  0.37228662  0.89103003  1
  O  O181  1  0.38171940  0.88084625  0.37954952  1
  O  O182  1  0.37851885  0.87324630  0.88382559  1
  O  O183  1  0.88125515  0.38431177  0.37137526  1
  O  O184  1  0.88216626  0.38830416  0.86809186  1
  O  O185  1  0.88092564  0.88048344  0.38547353  1
  O  O186  1  0.87842788  0.88004138  0.88599408  1
  O  O187  1  0.25336868  0.00422024  0.36841018  1
  O  O188  1  0.25148545  0.00682742  0.86457686  1
  O  O189  1  0.25161403  0.51303755  0.37588482  1
  O  O190  1  0.24364131  0.49668232  0.85821847  1
  O  O191  1  0.76396378  -0.00248583  0.36883251  1
  O  O192  1  0.74376172  0.01771958  0.88245688  1
  O  O193  1  0.75778968  0.50535141  0.37000399  1
  O  O194  1  0.75575608  0.50952014  0.87540780  1
  O  O195  1  0.24761859  0.48868280  0.13266790  1
  O  O196  1  0.24339376  0.49234957  0.63006551  1
  O  O197  1  0.23967849  0.99347586  0.14175398  1
  O  O198  1  0.24778705  0.99338051  0.62812077  1
  O  O199  1  0.74110148  0.50097518  0.13120401  1
  O  O200  1  0.72405805  0.52511441  0.63972682  1
  O  O201  1  0.76137224  0.99947528  0.13367256  1
  O  O202  1  0.75182547  0.98943755  0.62097028  1
  O  O203  1  0.00145295  0.36135188  0.26619917  1
  O  O204  1  -0.00116233  0.36756688  0.75624723  1
  O  O205  1  0.00280474  0.86875648  0.25560477  1
  O  O206  1  0.00767295  0.86462280  0.74917088  1
  O  O207  1  0.50581654  0.37402063  0.25767551  1
  O  O208  1  0.49262533  0.36223786  0.74722618  1
  O  O209  1  0.51255220  0.86942790  0.25573905  1
  O  O210  1  0.48629054  0.85945713  0.76190516  1
  O  O211  1  0.49465513  0.14628535  0.26581349  1
  O  O212  1  0.48612785  0.13697981  0.75436154  1
  O  O213  1  0.50079056  0.63225655  0.24209543  1
  O  O214  1  0.49250828  0.63524660  0.74527855  1
  O  O215  1  0.98672235  0.13171802  0.25539380  1
  O  O216  1  1.00628840  0.12952883  0.73478785  1
  O  O217  1  0.99673309  0.62568092  0.24374236  1
  O  O218  1  0.99006098  0.62956888  0.74566159  1
  O  O219  1  0.37093279  0.26273895  0.00826365  1
  O  O220  1  0.37638360  0.25403088  0.50293740  1
  O  O221  1  0.35656947  0.75551591  -0.00676648  1
  O  O222  1  0.36976790  0.75120589  0.51005949  1
  O  O223  1  0.86489612  0.24836353  -0.00040606  1
  O  O224  1  0.88085284  0.24570028  0.51261311  1
  O  O225  1  0.86656823  0.75826123  -0.00147682  1
  O  O226  1  0.86823050  0.75834121  0.49721029  1
  O  O227  1  0.12980872  0.23981186  0.48795275  1
  O  O228  1  0.13354330  0.23898699  0.99430408  1
  O  O229  1  0.13130500  0.74117725  0.49672181  1
  O  O230  1  0.12969010  0.74248703  0.99243522  1
  O  O231  1  0.61709380  0.23874219  0.48762842  1
  O  O232  1  0.64294960  0.25482788  1.00980374  1
  O  O233  1  0.63563315  0.74531535  0.49837390  1
  O  O234  1  0.63186061  0.75773811  0.99232528  1
  O  O235  1  0.49022823  0.25990714  0.13639049  1
  O  O236  1  0.48728555  0.25268943  0.63046295  1
  O  O237  1  0.50354683  0.73298591  0.13431604  1
  O  O238  1  0.49395655  0.74759786  0.63136831  1
  O  O239  1  1.00754612  0.25331289  0.14025421  1
  O  O240  1  0.99643578  0.24176084  0.62617865  1
  O  O241  1  0.99841405  0.74125518  0.13229667  1
  O  O242  1  1.00640484  0.74260380  0.63814629  1
  O  O243  1  0.00873581  0.25303423  0.37134955  1
  O  O244  1  -0.00055496  0.25762742  0.86405224  1
  O  O245  1  0.00499727  0.75197593  0.37077024  1
  O  O246  1  0.01127697  0.74933539  0.86494740  1
  O  O247  1  0.50948010  0.26530158  0.36943109  1
  O  O248  1  0.49870597  0.25100463  0.86145562  1
  O  O249  1  0.50264333  0.76139350  0.37046916  1
  O  O250  1  0.50838163  0.75234216  0.86956559  1
  O  O251  1  0.24958577  0.12360692  0.48404817  1
  O  O252  1  0.25322611  0.13070604  0.98985542  1
  O  O253  1  0.24623062  0.62705381  0.49179616  1
  O  O254  1  0.24127578  0.62721421  0.99961994  1
  O  O255  1  0.73254138  0.11835123  0.49139679  1
  O  O256  1  0.75146223  0.13911020  0.99053943  1
  O  O257  1  0.75137554  0.62803284  0.49424492  1
  O  O258  1  0.74604091  0.63561728  0.98873416  1
  O  O259  1  0.25883564  0.37323614  0.00889186  1
  O  O260  1  0.25862736  0.37440610  0.50555478  1
  O  O261  1  0.25446988  0.86171341  0.00245836  1
  O  O262  1  0.25263936  0.86647153  0.50655781  1
  O  O263  1  0.75795345  0.36734874  0.00401442  1
  O  O264  1  0.76019502  0.42273452  0.52090727  1
  O  O265  1  0.75907219  0.86811616  -0.00484615  1
  O  O266  1  0.75626682  0.86793640  0.50928986  1
  O  O267  1  0.14516895  0.49491257  0.26330695  1
  O  O268  1  0.13136055  0.50675476  0.73522487  1
  O  O269  1  0.12449152  0.99543786  0.24474505  1
  O  O270  1  0.13291496  0.99360028  0.74202468  1
  O  O271  1  0.62967749  0.49528512  0.24671414  1
  O  O272  1  0.61734413  0.49632569  0.74364353  1
  O  O273  1  0.64069995  0.98278705  0.25599741  1
  O  O274  1  0.58513453  0.99254629  0.74026562  1
  O  O275  1  0.35924544  -0.00663149  0.26126205  1
  O  O276  1  0.37523272  0.00941513  0.74978489  1
  O  O277  1  0.35226903  0.48453529  0.25771557  1
  O  O278  1  0.36539629  0.51008982  0.74130764  1
  O  O279  1  0.87375791  0.00600296  0.25582840  1
  O  O280  1  0.88793909  0.01007416  0.75592996  1
  O  O281  1  0.87160361  0.50696779  0.26156254  1
  O  O282  1  0.87047693  0.50786718  0.75692310  1
  O  O283  1  0.12006003  0.36103815  0.38008287  1
  O  O284  1  0.10920075  0.37281762  0.88043279  1
  O  O285  1  0.11769513  0.86705857  0.37081671  1
  O  O286  1  0.12555098  0.86490551  0.86734583  1
  O  O287  1  0.61997157  0.37251016  0.36839769  1
  O  O288  1  0.62230760  0.37017533  0.87412226  1
  O  O289  1  0.61995121  0.87354973  0.36967968  1
  O  O290  1  0.61700224  0.86757986  0.87133375  1
  O  O291  1  0.35639346  0.14423583  0.14024961  1
  O  O292  1  0.36738768  0.13515361  0.63260134  1
  O  O293  1  0.38404676  0.62191460  0.12661512  1
  O  O294  1  0.38244316  0.63427557  0.63139315  1
  O  O295  1  0.87947404  0.11916376  0.13791826  1
  O  O296  1  0.88387905  0.13166425  0.62383667  1
  O  O297  1  0.88554138  0.62656309  0.13108886  1
  O  O298  1  0.87068899  0.61393446  0.63728420  1
  O  O299  1  0.25362244  0.26278728  0.12050122  1
  O  O300  1  0.25796465  0.25755790  0.62107372  1
  O  O301  1  0.24012784  0.74648653  0.11483953  1
  O  O302  1  0.25653444  0.75099333  0.62118296  1
  O  O303  1  0.76028280  0.25798432  0.11516969  1
  O  O304  1  0.76522791  0.24658457  0.62315806  1
  O  O305  1  0.75115135  0.74031376  0.11061205  1
  O  O306  1  0.74963664  0.74984016  0.61608845  1
  O  O307  1  0.24583383  0.24157886  0.37068531  1
  O  O308  1  0.24755624  0.24381957  0.87729213  1
  O  O309  1  0.24494611  0.73825410  0.37902043  1
  O  O310  1  0.23660316  0.74364179  0.88043798  1
  O  O311  1  0.73585804  0.25541573  0.37300088  1
  O  O312  1  0.75089884  0.24683208  0.88707846  1
  O  O313  1  0.75191672  0.74008511  0.38701186  1
  O  O314  1  0.74353712  0.74712233  0.88167816  1
  O  O315  1  0.01604780  0.11939807  -0.00814137  1
  O  O316  1  0.00655391  0.11798758  0.50874247  1
  O  O317  1  0.00595939  0.63108264  0.00731342  1
  O  O318  1  0.01030921  0.61842839  0.50084734  1
  O  O319  1  0.46712465  0.11131513  0.00698316  1
  O  O320  1  0.51181474  0.11433531  0.48614013  1
  O  O321  1  0.49925984  0.62145852  0.01435911  1
  O  O322  1  0.49696352  0.62005875  0.50731723  1
  O  O323  1  0.49422368  0.38233298  0.49378714  1
  O  O324  1  0.48560190  0.38466692  1.00764116  1
  O  O325  1  0.50403638  0.88530357  0.49198256  1
  O  O326  1  0.47810172  0.85420553  0.99042270  1
  O  O327  1  1.00412990  0.38128881  0.48844778  1
  O  O328  1  0.99461692  0.37581890  0.99349413  1
  O  O329  1  0.99328965  0.87658827  0.49747691  1
  O  O330  1  0.99550728  0.88266581  0.99617421  1
  O  O331  1  0.50361294  0.49063525  0.38256216  1
  O  O332  1  0.50065532  0.51370291  0.89273604  1
  O  O333  1  0.48961472  0.98777399  0.37902790  1
  O  O334  1  0.49515417  0.98531120  0.87615914  1
  O  O335  1  0.99637361  0.49005196  0.37900423  1
  O  O336  1  0.99075093  0.49237485  0.87061773  1
  O  O337  1  0.99141212  0.99323112  0.38044201  1
  O  O338  1  1.00932993  0.99697763  0.88817903  1
  O  O339  1  0.01354298  -0.00223487  0.11326480  1
  O  O340  1  0.00653430  0.00516960  0.61807528  1
  O  O341  1  -0.00590013  0.50197453  0.11394807  1
  O  O342  1  0.00710393  0.49826316  0.61708530  1
  O  O343  1  0.46765762  0.03291108  0.17239150  1
  O  O344  1  0.48491795  0.00129369  0.59847705  1
  O  O345  1  0.50359508  0.51104691  0.12341219  1
  O  O346  1  0.50250400  0.50955061  0.62040598  1
  O  O347  1  0.24392878  0.37622517  0.23467964  1
  O  O348  1  0.25749468  0.38114101  0.73527915  1
  O  O349  1  0.23939084  0.87900131  0.25383908  1
  O  O350  1  0.24650884  0.87818766  0.74406891  1
  O  O351  1  0.74439175  0.38268038  0.24510650  1
  O  O352  1  0.74660360  0.37603196  0.73875507  1
  O  O353  1  0.74388678  0.87807937  0.25438519  1
  O  O354  1  0.75465267  0.87241419  0.73458157  1
  O  O355  1  0.25169658  0.11388456  0.25822813  1
  O  O356  1  0.25715288  0.12047978  0.75453776  1
  O  O357  1  0.24924366  0.61713838  0.26282521  1
  O  O358  1  0.25826069  0.61549864  0.75065082  1
  O  O359  1  0.76371978  0.11693883  0.25074192  1
  O  O360  1  0.74700684  0.13650594  0.77070580  1
  O  O361  1  0.75568809  0.62196616  0.25717948  1
  O  O362  1  0.75544767  0.63049323  0.76422872  1
  O  O363  1  0.37126357  0.11484232  0.35967488  1
  O  O364  1  0.36343577  0.12526684  0.86488422  1
  O  O365  1  0.36383355  0.62865450  0.37831716  1
  O  O366  1  0.37279791  0.63033761  0.86419448  1
  O  O367  1  0.87359310  0.11536947  0.37024683  1
  O  O368  1  0.86063941  0.12130124  0.87357193  1
  O  O369  1  0.86634326  0.61602640  0.37121677  1
  O  O370  1  0.86875738  0.61534635  0.86952413  1
  O  O371  1  0.13606118  0.37377463  0.11365153  1
  O  O372  1  0.13585261  0.38262393  0.61540281  1
  O  O373  1  0.12630662  0.88141275  0.13227121  1
  O  O374  1  0.13175205  0.87889997  0.63012348  1
  O  O375  1  0.62075806  0.38859032  0.13881162  1
  O  O376  1  0.62265604  0.38560177  0.62540733  1
  O  O377  1  0.62955431  0.86356505  0.14508937  1
  O  O378  1  0.64305965  0.87360735  0.62672603  1
  O  O379  1  0.11816675  0.23635342  0.26133106  1
  O  O380  1  0.11015141  0.24585730  0.74732292  1
  O  O381  1  0.11874519  0.75096339  0.25674829  1
  O  O382  1  0.12084196  0.75056161  0.75650398  1
  O  O383  1  0.61985383  0.26141781  0.25673241  1
  O  O384  1  0.60481446  0.25253032  0.74172698  1
  O  O385  1  0.62038809  0.75844073  0.25858604  1
  O  O386  1  0.61558800  0.75384934  0.75745203  1
  O  O387  1  0.38390682  0.25445178  0.24387548  1
  O  O388  1  0.38198046  0.24550648  0.74085145  1
  O  O389  1  0.39081755  0.76077200  0.25120932  1
  O  O390  1  0.37770344  0.74091627  0.74395152  1
  O  O391  1  0.88263683  0.23604762  0.25407132  1
  O  O392  1  0.88880391  0.24279529  0.73849138  1
  O  O393  1  0.88091936  0.74394397  0.25027960  1
  O  O394  1  0.88588190  0.73963754  0.75728709  1
  O  O395  1  0.38605291  0.49173774  0.50724988  1
  O  O396  1  0.37984933  0.48841013  1.00386645  1
  O  O397  1  0.38082238  1.00155903  0.48633685  1
  O  O398  1  0.35911130  0.97600348  0.99645620  1
  O  O399  1  0.89439672  0.51114240  0.48969713  1
  O  O400  1  0.87430227  0.50384240  0.99403818  1
  O  O401  1  0.88007057  0.99351836  0.49276863  1
  O  O402  1  0.88574112  0.99607413  0.99723154  1
  O  O403  1  0.12454586  0.00377311  0.00667524  1
  O  O404  1  0.11995752  0.00269581  0.50411782  1
  O  O405  1  0.12669979  0.51167312  -0.00527719  1
  O  O406  1  0.11725962  0.50472564  0.50431807  1
  O  O407  1  0.60050956  -0.03263592  0.01508535  1
  O  O408  1  0.61461625  0.01275147  0.49299680  1
  O  O409  1  0.61610657  0.50216289  0.01042417  1
  O  O410  1  0.60800180  0.50541407  0.50904655  1
  O  O411  1  0.36570440  0.36933296  0.12025667  1
  O  O412  1  0.36877460  0.36718680  0.61205975  1
  O  O413  1  0.37094996  0.87072464  0.11206521  1
  O  O414  1  0.37075494  0.86139651  0.62458218  1
  O  O415  1  0.88582465  0.39247572  0.11925624  1
  O  O416  1  0.87946433  0.35803628  0.62402479  1
  O  O417  1  0.88194437  0.87226493  0.10975772  1
  O  O418  1  0.86766042  0.87735002  0.61336843  1
  O  O419  1  0.13410055  0.12689184  0.37885482  1
  O  O420  1  0.13785526  0.12466440  0.87983691  1
  O  O421  1  0.13068240  0.62785228  0.38624491  1
  O  O422  1  0.12478313  0.62990391  0.88187119  1
  O  O423  1  0.62849421  0.14371551  0.37009700  1
  O  O424  1  0.63280034  0.13679382  0.88091053  1
  O  O425  1  0.63938205  0.62328501  0.37667464  1
  O  O426  1  0.63219474  0.63828539  0.87795570  1
