# generated using pymatgen
data_V85Zn86O256
_symmetry_space_group_name_H-M   'P 1'
_cell_length_a   16.94018610
_cell_length_b   16.93018791
_cell_length_c   16.93815977
_cell_angle_alpha   90.07132647
_cell_angle_beta   90.03977180
_cell_angle_gamma   90.06706758
_symmetry_Int_Tables_number   1
_chemical_formula_structural   V85Zn86O256
_chemical_formula_sum   'V85 Zn86 O256'
_cell_volume   4857.86499513
_cell_formula_units_Z   1
loop_
 _symmetry_equiv_pos_site_id
 _symmetry_equiv_pos_as_xyz
  1  'x, y, z'
loop_
 _atom_site_type_symbol
 _atom_site_label
 _atom_site_symmetry_multiplicity
 _atom_site_fract_x
 _atom_site_fract_y
 _atom_site_fract_z
 _atom_site_occupancy
  V  V0  1  0.74673036  0.24288930  0.48655648  1
  V  V1  1  0.36192707  0.86937565  0.00025834  1
  V  V2  1  0.87708999  0.50042768  0.37488877  1
  V  V3  1  0.74846562  0.86966072  0.12096827  1
  V  V4  1  0.62517055  -0.00053557  0.12333532  1
  V  V5  1  0.24956605  0.25565397  0.01254451  1
  V  V6  1  0.12586870  0.37723646  0.74906010  1
  V  V7  1  -0.00249769  0.12077458  0.12500302  1
  V  V8  1  -0.00520756  0.87375939  0.87166181  1
  V  V9  1  -0.00927129  -0.00137920  0.49229139  1
  V  V10  1  0.12637500  0.25071898  0.87425278  1
  V  V11  1  0.25322504  0.37514561  0.62526069  1
  V  V12  1  0.00066248  0.25227685  0.25062194  1
  V  V13  1  0.50351610  0.36020590  0.37130722  1
  V  V14  1  0.62448523  0.37123476  0.74759647  1
  V  V15  1  0.50223582  0.50215211  -0.00146676  1
  V  V16  1  0.76042760  -0.00041872  0.75301826  1
  V  V17  1  0.13183146  0.37619570  0.23200595  1
  V  V18  1  0.74893928  0.87172868  0.61838125  1
  V  V19  1  0.23580786  0.74172371  0.49861413  1
  V  V20  1  0.75579960  0.24671113  -0.00142638  1
  V  V21  1  0.12178993  0.87169984  0.74866761  1
  V  V22  1  0.87605922  0.74722070  0.12584760  1
  V  V23  1  0.87619524  0.24894500  0.12609325  1
  V  V24  1  0.62508123  0.87856333  0.74855351  1
  V  V25  1  0.59400532  0.14895574  0.01728023  1
  V  V26  1  0.12741117  -0.00596693  0.13394109  1
  V  V27  1  0.88097556  0.63556264  0.75205626  1
  V  V28  1  0.75181815  0.37026713  0.62337215  1
  V  V29  1  0.86914353  0.87209841  -0.00421040  1
  V  V30  1  0.49850830  0.37283651  0.86995132  1
  V  V31  1  0.50617013  0.62495326  0.61672573  1
  V  V32  1  0.00211330  0.24239782  0.74251762  1
  V  V33  1  0.87212241  0.12147747  0.26396994  1
  V  V34  1  0.12767671  0.62577050  0.00440079  1
  V  V35  1  0.36980161  0.87697140  0.49854608  1
  V  V36  1  0.37890735  0.62924837  0.25216637  1
  V  V37  1  0.61583899  0.74705196  0.38234474  1
  V  V38  1  0.75277412  0.50993851  0.25148912  1
  V  V39  1  0.12257183  0.75107560  0.87677091  1
  V  V40  1  0.36744727  0.74980587  0.12513636  1
  V  V41  1  0.38820596  0.13447446  0.23903180  1
  V  V42  1  0.63339970  0.62955773  0.00042123  1
  V  V43  1  0.62608923  0.50094528  0.12723385  1
  V  V44  1  0.62399820  0.24890632  0.87085381  1
  V  V45  1  0.11869747  0.00607441  0.62701855  1
  V  V46  1  0.00474260  0.50141176  0.00374765  1
  V  V47  1  -0.00477262  -0.00168291  -0.00386757  1
  V  V48  1  0.37360744  0.49626753  0.37385496  1
  V  V49  1  0.74352119  0.63027025  0.39466560  1
  V  V50  1  0.37693856  0.62526825  0.75038340  1
  V  V51  1  0.12727064  0.26212462  0.37651234  1
  V  V52  1  0.38598643  0.12847071  0.75446308  1
  V  V53  1  -0.00237300  0.50357651  0.50393869  1
  V  V54  1  0.63376546  0.75128030  0.87840607  1
  V  V55  1  0.62372151  0.12488766  0.48340479  1
  V  V56  1  0.87599422  0.23979016  0.62324542  1
  V  V57  1  0.87945845  0.75475034  0.62032726  1
  V  V58  1  0.62771050  0.50198470  0.61809510  1
  V  V59  1  0.37507017  0.50087255  0.87410620  1
  V  V60  1  0.50350500  0.63386899  0.12945318  1
  V  V61  1  0.37219557  0.37487990  0.01226222  1
  V  V62  1  0.50197914  0.74964318  0.74799687  1
  V  V63  1  0.36617282  -0.00223483  0.36356319  1
  V  V64  1  0.24708863  0.12187619  0.36619340  1
  V  V65  1  0.12573820  0.50561418  0.61773349  1
  V  V66  1  0.49598766  0.00016130  0.50267779  1
  V  V67  1  0.37402644  -0.00077810  0.87581641  1
  V  V68  1  0.75259138  -0.00036983  0.25911940  1
  V  V69  1  0.87507519  0.49992593  0.87152014  1
  V  V70  1  0.37404466  0.75111845  0.62249965  1
  V  V71  1  0.25277414  0.49169439  0.23319602  1
  V  V72  1  0.25154637  0.63165685  0.87888445  1
  V  V73  1  0.87666409  0.37674828  -0.00005072  1
  V  V74  1  0.25188655  0.12618917  0.87553197  1
  V  V75  1  0.62396087  0.36215108  0.25354638  1
  V  V76  1  0.75614919  0.12134663  0.87776750  1
  V  V77  1  0.37689069  0.37319169  0.49930138  1
  V  V78  1  0.49856807  -0.00534157  0.00461030  1
  V  V79  1  0.75057361  0.37515151  0.12687374  1
  V  V80  1  0.11860159  0.12746462  0.50445411  1
  V  V81  1  0.25228427  0.24873107  0.50102776  1
  V  V82  1  0.38517681  0.24929135  0.63061229  1
  V  V83  1  0.00026899  0.62649376  0.13309902  1
  V  V84  1  0.49744656  0.87059336  0.87429705  1
  Zn  Zn85  1  0.12493033  0.12380067  0.00039350  1
  Zn  Zn86  1  0.75363010  0.62798682  0.87658886  1
  Zn  Zn87  1  0.61714493  0.86217551  0.24689157  1
  Zn  Zn88  1  0.92016434  0.67419087  0.29102154  1
  Zn  Zn89  1  0.50584055  0.12766462  0.62928821  1
  Zn  Zn90  1  0.24609792  0.87733072  0.62478405  1
  Zn  Zn91  1  -0.00619304  0.85174294  0.36113348  1
  Zn  Zn92  1  0.00010127  0.37420212  0.87408694  1
  Zn  Zn93  1  0.12640865  0.85358984  0.26529721  1
  Zn  Zn94  1  0.88170277  0.11984239  0.75238053  1
  Zn  Zn95  1  -0.00341854  0.37719276  0.37389454  1
  Zn  Zn96  1  0.50531573  0.50033725  0.49375583  1
  Zn  Zn97  1  0.62505692  0.00365317  0.62406686  1
  Zn  Zn98  1  0.24890138  0.00065051  0.74820022  1
  Zn  Zn99  1  0.75241438  0.50184796  0.74870962  1
  Zn  Zn100  1  0.01046697  0.63515272  0.63068267  1
  Zn  Zn101  1  0.24722081  0.87621522  0.13304818  1
  Zn  Zn102  1  0.87504065  0.37136659  0.49944799  1
  Zn  Zn103  1  0.24904600  0.50248494  0.74971961  1
  Zn  Zn104  1  0.24933665  0.62610669  0.37614873  1
  Zn  Zn105  1  0.86694923  0.87794110  0.48524243  1
  Zn  Zn106  1  0.49260713  0.86583147  0.36755700  1
  Zn  Zn107  1  0.18404033  0.18308884  0.18893202  1
  Zn  Zn108  1  0.19361205  0.18722964  0.68834481  1
  Zn  Zn109  1  0.19345564  0.67961741  0.18503205  1
  Zn  Zn110  1  0.19023683  0.69008133  0.69126238  1
  Zn  Zn111  1  0.69016563  0.18277190  0.18926053  1
  Zn  Zn112  1  0.68730177  0.18394963  0.68429647  1
  Zn  Zn113  1  0.68859061  0.69280457  0.19174393  1
  Zn  Zn114  1  0.69288517  0.68722448  0.68886824  1
  Zn  Zn115  1  0.31442433  0.30998548  0.30915242  1
  Zn  Zn116  1  0.31252192  0.31212277  0.81425956  1
  Zn  Zn117  1  0.29997321  0.81088422  0.31127843  1
  Zn  Zn118  1  0.30746600  0.81210547  0.81068692  1
  Zn  Zn119  1  0.81228952  0.31558000  0.30990564  1
  Zn  Zn120  1  0.81366926  0.31110787  0.80940941  1
  Zn  Zn121  1  0.80452802  0.81526796  0.31369367  1
  Zn  Zn122  1  0.81236183  0.81401381  0.81034323  1
  Zn  Zn123  1  0.15124010  0.48416992  0.39638095  1
  Zn  Zn124  1  0.19022229  0.44027346  0.93858853  1
  Zn  Zn125  1  0.17913753  0.93403251  0.43335000  1
  Zn  Zn126  1  0.18276664  0.94051458  0.94080575  1
  Zn  Zn127  1  0.68983953  0.43412426  0.43623952  1
  Zn  Zn128  1  0.69041341  0.43829791  0.93756948  1
  Zn  Zn129  1  0.68035095  0.93442879  0.43651047  1
  Zn  Zn130  1  0.68600503  0.94067571  0.93869867  1
  Zn  Zn131  1  0.31091012  0.06418909  0.06197758  1
  Zn  Zn132  1  0.30684767  0.06392310  0.56364490  1
  Zn  Zn133  1  0.31528323  0.56471298  0.06003702  1
  Zn  Zn134  1  0.31557082  0.56017117  0.56289213  1
  Zn  Zn135  1  0.81302721  0.05896865  0.06393600  1
  Zn  Zn136  1  0.80527194  0.06262690  0.56351379  1
  Zn  Zn137  1  0.81475307  0.56245540  0.06270303  1
  Zn  Zn138  1  0.81586271  0.56187252  0.56735686  1
  Zn  Zn139  1  0.44460139  0.43939440  0.19037911  1
  Zn  Zn140  1  0.44116086  0.43906912  0.68805019  1
  Zn  Zn141  1  0.43513095  0.93859708  0.18790457  1
  Zn  Zn142  1  0.43515743  0.93952673  0.68732560  1
  Zn  Zn143  1  0.94054238  0.44117748  0.18993245  1
  Zn  Zn144  1  0.93871511  0.43328923  0.68814854  1
  Zn  Zn145  1  0.93740394  0.93091405  0.19315408  1
  Zn  Zn146  1  0.94141438  0.93826173  0.68372041  1
  Zn  Zn147  1  0.06211975  0.06412040  0.31408412  1
  Zn  Zn148  1  0.06325009  0.06011526  0.81489615  1
  Zn  Zn149  1  0.08731261  0.68100927  0.33941757  1
  Zn  Zn150  1  0.06101459  0.56226311  0.81349310  1
  Zn  Zn151  1  0.55166499  0.04007723  0.30595811  1
  Zn  Zn152  1  0.56516050  0.06118675  0.82124849  1
  Zn  Zn153  1  0.56386636  0.55893194  0.31398954  1
  Zn  Zn154  1  0.56545987  0.56144843  0.80851197  1
  Zn  Zn155  1  0.43678302  0.18128769  0.43456064  1
  Zn  Zn156  1  0.43934090  0.19409502  0.95244249  1
  Zn  Zn157  1  0.43514158  0.68624427  0.43830101  1
  Zn  Zn158  1  0.44199503  0.68882490  0.94019410  1
  Zn  Zn159  1  0.94107587  0.18862987  0.43960305  1
  Zn  Zn160  1  0.93967319  0.18678715  0.93494211  1
  Zn  Zn161  1  0.93104836  0.68196085  0.45444288  1
  Zn  Zn162  1  0.93944567  0.69131555  0.94065604  1
  Zn  Zn163  1  0.06107616  0.31063233  0.05949491  1
  Zn  Zn164  1  0.06063583  0.31895561  0.56149435  1
  Zn  Zn165  1  0.06000057  0.81057667  0.06325014  1
  Zn  Zn166  1  0.05890770  0.81908533  0.55879417  1
  Zn  Zn167  1  0.56208755  0.31796035  0.06100320  1
  Zn  Zn168  1  0.56435892  0.30871283  0.55699657  1
  Zn  Zn169  1  0.55954689  0.81217243  0.06275681  1
  Zn  Zn170  1  0.56279296  0.81248733  0.55659461  1
  O  O171  1  0.11147262  0.11896201  0.12186580  1
  O  O172  1  0.13207514  0.12062871  0.61650307  1
  O  O173  1  0.11837282  0.62824641  0.10989581  1
  O  O174  1  0.12645385  0.60978528  0.63715548  1
  O  O175  1  0.63166500  0.11875139  0.11134207  1
  O  O176  1  0.62151579  0.12144230  0.61643934  1
  O  O177  1  0.62098895  0.62407232  0.11913842  1
  O  O178  1  0.61872272  0.61496990  0.63516151  1
  O  O179  1  0.38223141  0.37675896  0.38177500  1
  O  O180  1  0.38410099  0.38060669  0.87719179  1
  O  O181  1  0.37192747  0.88087831  0.38210744  1
  O  O182  1  0.37712295  0.87563543  0.88171995  1
  O  O183  1  0.87375845  0.38505647  0.37811142  1
  O  O184  1  0.87689900  0.38242792  0.87884203  1
  O  O185  1  0.88017553  0.86769894  0.37456588  1
  O  O186  1  0.88260815  0.87023274  0.88154124  1
  O  O187  1  0.25535480  0.01069223  0.38713754  1
  O  O188  1  0.25549591  0.00975365  0.87756105  1
  O  O189  1  0.26805612  0.49269903  0.36670208  1
  O  O190  1  0.25770764  0.51135843  0.87213166  1
  O  O191  1  0.74236781  -0.00623494  0.35720925  1
  O  O192  1  0.74274318  0.01070115  0.86757145  1
  O  O193  1  0.75443214  0.50792781  0.37082084  1
  O  O194  1  0.76375799  0.50184574  0.87400202  1
  O  O195  1  0.25882660  0.49697306  0.13423722  1
  O  O196  1  0.24444094  0.49244962  0.62630175  1
  O  O197  1  0.22950787  1.00217752  0.11545794  1
  O  O198  1  0.23569258  0.99788206  0.62606755  1
  O  O199  1  0.74714061  0.49520421  0.13173007  1
  O  O200  1  0.74489814  0.49014020  0.62671013  1
  O  O201  1  0.74239932  0.98931778  0.12523868  1
  O  O202  1  0.74608771  0.99171615  0.63703640  1
  O  O203  1  0.01075633  0.36997845  0.25079442  1
  O  O204  1  0.01044400  0.36380051  0.75223071  1
  O  O205  1  0.01328239  0.87780160  0.24931281  1
  O  O206  1  0.01130351  0.88166196  0.75860705  1
  O  O207  1  0.51121851  0.37605767  0.25816555  1
  O  O208  1  0.50799690  0.37774132  0.76203887  1
  O  O209  1  0.51320499  0.90897794  0.26251945  1
  O  O210  1  0.50630549  0.86973063  0.75296112  1
  O  O211  1  0.48696009  0.11954088  0.25230417  1
  O  O212  1  0.48955649  0.11984408  0.75329459  1
  O  O213  1  0.49082817  0.61432705  0.23987890  1
  O  O214  1  0.49589928  0.63114315  0.74248874  1
  O  O215  1  0.99317381  0.13053554  0.24282946  1
  O  O216  1  1.00118201  0.13789241  0.75564773  1
  O  O217  1  0.99969153  0.61296272  0.23291290  1
  O  O218  1  0.98542884  0.62074186  0.74770118  1
  O  O219  1  0.36022437  0.26369878  -0.00789999  1
  O  O220  1  0.37214934  0.25267215  0.50790499  1
  O  O221  1  0.38382592  0.75984538  0.00937861  1
  O  O222  1  0.37513534  0.75709090  0.51113699  1
  O  O223  1  0.87386290  0.25722574  0.00378441  1
  O  O224  1  0.86749201  0.24780934  0.50716505  1
  O  O225  1  0.87583454  0.76307174  0.00783499  1
  O  O226  1  0.86765487  0.75369555  0.51808258  1
  O  O227  1  0.12930688  0.24805720  0.49452665  1
  O  O228  1  0.13014975  0.24911817  0.98939290  1
  O  O229  1  0.13698351  0.74932679  0.51052804  1
  O  O230  1  0.12115808  0.74130167  0.98691716  1
  O  O231  1  0.63096763  0.23446334  0.49869613  1
  O  O232  1  0.64136356  0.25285271  0.98948255  1
  O  O233  1  0.62421970  0.74821705  0.48455440  1
  O  O234  1  0.61655065  0.74144916  0.99004436  1
  O  O235  1  0.51583236  0.21533796  0.05440699  1
  O  O236  1  0.48847088  0.24982251  0.62372251  1
  O  O237  1  0.49396169  0.73853309  0.12496914  1
  O  O238  1  0.49579446  0.74428572  0.62874189  1
  O  O239  1  0.99588934  0.24159063  0.12970938  1
  O  O240  1  0.99096472  0.25516692  0.63166678  1
  O  O241  1  0.98918031  0.73987345  0.11996149  1
  O  O242  1  0.98530736  0.75238192  0.62377813  1
  O  O243  1  0.01040687  0.25301699  0.36898599  1
  O  O244  1  0.01318060  0.25131490  0.86938960  1
  O  O245  1  -0.01151041  0.72817199  0.36952502  1
  O  O246  1  0.00779587  0.76341722  0.87761239  1
  O  O247  1  0.49738590  0.26123941  0.37957276  1
  O  O248  1  0.51487373  0.25932878  0.88107852  1
  O  O249  1  0.50931945  0.74663791  0.37617486  1
  O  O250  1  0.50831751  0.75332384  0.86672333  1
  O  O251  1  0.23996385  0.13286241  0.49319962  1
  O  O252  1  0.25080239  0.13453457  0.98882123  1
  O  O253  1  0.25809018  0.64021076  0.50565018  1
  O  O254  1  0.24069076  0.61917103  0.99140820  1
  O  O255  1  0.73434996  0.12788712  0.49877244  1
  O  O256  1  0.75291445  0.13225088  0.99373379  1
  O  O257  1  0.74762786  0.62069314  0.49271159  1
  O  O258  1  0.73687712  0.62123647  0.99829179  1
  O  O259  1  0.25956370  0.36971165  -0.00300935  1
  O  O260  1  0.26756098  0.36657313  0.50669087  1
  O  O261  1  0.25980961  0.87745912  0.00300891  1
  O  O262  1  0.25868744  0.86445097  0.50256877  1
  O  O263  1  0.75702551  0.36933952  0.00651948  1
  O  O264  1  0.74757183  0.36428345  0.51088360  1
  O  O265  1  0.75952666  0.88219991  0.00492131  1
  O  O266  1  0.75102326  0.88690469  0.51485973  1
  O  O267  1  0.14816424  0.48705835  0.25433288  1
  O  O268  1  0.12458639  0.48854191  0.74628247  1
  O  O269  1  0.12189401  1.00850998  0.23339325  1
  O  O270  1  0.12621062  0.99518038  0.74332074  1
  O  O271  1  0.63343664  0.49309953  0.24300832  1
  O  O272  1  0.62875523  0.48697073  0.74232163  1
  O  O273  1  0.63855823  1.01011992  0.23289513  1
  O  O274  1  0.62808956  0.98806122  0.75234118  1
  O  O275  1  0.37002354  0.00676016  0.26144213  1
  O  O276  1  0.37099404  0.00745203  0.75815190  1
  O  O277  1  0.37065320  0.50223712  0.25433980  1
  O  O278  1  0.37564608  0.50719293  0.75672799  1
  O  O279  1  0.86043390  0.00677492  0.24199191  1
  O  O280  1  0.86451724  0.00015927  0.74791500  1
  O  O281  1  0.86529852  0.49448093  0.26103430  1
  O  O282  1  0.87571281  0.50673984  0.75666591  1
  O  O283  1  0.12544085  0.36949881  0.36956840  1
  O  O284  1  0.12668908  0.36861026  0.86581183  1
  O  O285  1  0.10803877  0.87003877  0.38027988  1
  O  O286  1  0.11982817  0.86850785  0.87162152  1
  O  O287  1  0.61640018  0.38003043  0.36561464  1
  O  O288  1  0.62163957  0.37068305  0.86772352  1
  O  O289  1  0.62186997  0.85850600  0.37501671  1
  O  O290  1  0.61889856  0.86873802  0.87037237  1
  O  O291  1  0.37128436  0.11835160  0.14033032  1
  O  O292  1  0.37516233  0.13247216  0.63589744  1
  O  O293  1  0.38455029  0.63104149  0.12838458  1
  O  O294  1  0.38393007  0.63168616  0.63069568  1
  O  O295  1  0.88468484  0.12883386  0.12919869  1
  O  O296  1  0.86676022  0.13668992  0.63175300  1
  O  O297  1  0.88458319  0.63549502  0.11460323  1
  O  O298  1  0.87337792  0.63787653  0.63647305  1
  O  O299  1  0.24088726  0.24453103  0.11094633  1
  O  O300  1  0.26088412  0.25639212  0.62070449  1
  O  O301  1  0.26522207  0.74598650  0.11973591  1
  O  O302  1  0.25911083  0.75233402  0.61864431  1
  O  O303  1  0.75774795  0.25393763  0.11857590  1
  O  O304  1  0.75639737  0.25456025  0.61865365  1
  O  O305  1  0.75115239  0.76341557  0.12190862  1
  O  O306  1  0.76126689  0.76245259  0.63584888  1
  O  O307  1  0.24336094  0.24551265  0.38170811  1
  O  O308  1  0.23935176  0.24574243  0.87837828  1
  O  O309  1  0.25552903  0.74461391  0.39474083  1
  O  O310  1  0.24405058  0.73829682  0.87428331  1
  O  O311  1  0.75379013  0.25478440  0.38801454  1
  O  O312  1  0.74255452  0.24501278  0.87729954  1
  O  O313  1  0.74281444  0.73345847  0.37525792  1
  O  O314  1  0.73718845  0.75012363  0.87256056  1
  O  O315  1  -0.00212852  0.11719869  0.00632746  1
  O  O316  1  0.01264353  0.12153065  0.50097695  1
  O  O317  1  0.00849494  0.61833979  0.00210592  1
  O  O318  1  -0.00558415  0.60912470  0.51513204  1
  O  O319  1  0.50180019  0.09846317  -0.02700279  1
  O  O320  1  0.50747985  0.11893141  0.50328546  1
  O  O321  1  0.51017497  0.61932858  0.00710313  1
  O  O322  1  0.49591471  0.62109019  0.51375781  1
  O  O323  1  0.49142809  0.37533372  0.49438300  1
  O  O324  1  0.49647112  0.38416011  0.98706537  1
  O  O325  1  0.48628254  0.88151059  0.49777068  1
  O  O326  1  0.49253479  0.88039142  0.99339218  1
  O  O327  1  0.99461875  0.38559616  0.49623940  1
  O  O328  1  0.99520053  0.38303141  0.99694670  1
  O  O329  1  0.99215844  0.89180831  0.50133128  1
  O  O330  1  0.99193963  0.88076933  0.99284515  1
  O  O331  1  0.48910134  0.49163975  0.37517000  1
  O  O332  1  0.49641127  0.49480739  0.87843643  1
  O  O333  1  0.48136212  1.00193672  0.39170996  1
  O  O334  1  0.49299982  0.98500570  0.87643319  1
  O  O335  1  0.98352087  0.50154527  0.38481371  1
  O  O336  1  0.98952747  0.49890834  0.88298875  1
  O  O337  1  1.00095299  1.00886567  0.39280627  1
  O  O338  1  1.00414135  0.98788590  0.88368891  1
  O  O339  1  0.00479613  0.00614979  0.11823030  1
  O  O340  1  0.01205884  0.00163259  0.61716131  1
  O  O341  1  -0.00800105  0.50776654  0.10972228  1
  O  O342  1  0.00934237  0.49589409  0.62118383  1
  O  O343  1  0.50806012  -0.00383843  0.11311880  1
  O  O344  1  0.49841262  0.00162843  0.61379751  1
  O  O345  1  0.50804051  0.51027863  0.11837393  1
  O  O346  1  0.50934136  0.50838707  0.62502936  1
  O  O347  1  0.24871268  0.38141829  0.24718633  1
  O  O348  1  0.24268124  0.37638727  0.74453523  1
  O  O349  1  0.23946030  0.87522461  0.24604643  1
  O  O350  1  0.23582413  0.87846231  0.74984007  1
  O  O351  1  0.74324548  0.38346959  0.24380510  1
  O  O352  1  0.74329816  0.37484208  0.73901353  1
  O  O353  1  0.74324035  0.88637964  0.23910908  1
  O  O354  1  0.74229927  0.88256167  0.74661849  1
  O  O355  1  0.25090635  0.12770396  0.26375988  1
  O  O356  1  0.25945937  0.12517044  0.76319574  1
  O  O357  1  0.26419441  0.60766053  0.24814559  1
  O  O358  1  0.26008135  0.62432397  0.75854983  1
  O  O359  1  0.75994014  0.11189704  0.24469581  1
  O  O360  1  0.74689452  0.11500488  0.75922539  1
  O  O361  1  0.74779376  0.61170573  0.25114985  1
  O  O362  1  0.76482213  0.62171005  0.75487442  1
  O  O363  1  0.36422532  0.11697601  0.37086677  1
  O  O364  1  0.37017477  0.12377352  0.87166281  1
  O  O365  1  0.37444152  0.61598726  0.36719608  1
  O  O366  1  0.37010961  0.62335809  0.87289491  1
  O  O367  1  0.87911021  0.12940060  0.36260613  1
  O  O368  1  0.86084967  0.13188574  0.87092756  1
  O  O369  1  0.85897299  0.61806111  0.37711959  1
  O  O370  1  0.87653269  0.62197821  0.86725335  1
  O  O371  1  0.12262881  0.37298614  0.13289652  1
  O  O372  1  0.13297097  0.38029675  0.63283682  1
  O  O373  1  0.12432977  0.88796148  0.11875176  1
  O  O374  1  0.12328323  0.88238550  0.63399510  1
  O  O375  1  0.62904667  0.38111366  0.12919061  1
  O  O376  1  0.62934275  0.37678400  0.63135371  1
  O  O377  1  0.63015569  0.88127805  0.12404150  1
  O  O378  1  0.63057602  0.87516102  0.63273899  1
  O  O379  1  0.12275676  0.25779055  0.25762655  1
  O  O380  1  0.12225525  0.25677989  0.75348688  1
  O  O381  1  0.13233728  0.73754021  0.25490453  1
  O  O382  1  0.12762846  0.75789797  0.76285631  1
  O  O383  1  0.63144723  0.26276913  0.24311899  1
  O  O384  1  0.63017339  0.26115759  0.75667444  1
  O  O385  1  0.62835340  0.74857408  0.26798914  1
  O  O386  1  0.62235533  0.76075570  0.75633429  1
  O  O387  1  0.37561089  0.23439416  0.25202171  1
  O  O388  1  0.37171954  0.24158197  0.74343424  1
  O  O389  1  0.37115204  0.73671790  0.24433543  1
  O  O390  1  0.37939405  0.74777392  0.73919895  1
  O  O391  1  0.87927448  0.24365117  0.24416023  1
  O  O392  1  0.88579719  0.24923592  0.74285911  1
  O  O393  1  0.86025075  0.74978605  0.23121757  1
  O  O394  1  0.87550242  0.74005225  0.74645368  1
  O  O395  1  0.37834557  0.48955849  0.49356390  1
  O  O396  1  0.38167071  0.49526204  0.99217934  1
  O  O397  1  0.37528540  0.99248029  0.49876852  1
  O  O398  1  0.37989223  0.99065821  0.99587001  1
  O  O399  1  0.87804064  0.49578362  0.49602484  1
  O  O400  1  0.88063957  0.49535475  0.99139801  1
  O  O401  1  0.88827235  1.00546174  0.50834789  1
  O  O402  1  0.88695474  0.98930066  1.00539347  1
  O  O403  1  0.11022677  0.00304630  0.00703391  1
  O  O404  1  0.11686291  0.00988866  0.50752599  1
  O  O405  1  0.11463450  0.51008031  -0.00953940  1
  O  O406  1  0.11440364  0.48934607  0.51126490  1
  O  O407  1  0.61659258  0.00417337  0.00925736  1
  O  O408  1  0.61385983  0.00668109  0.50012024  1
  O  O409  1  0.62159342  0.50635200  0.00560756  1
  O  O410  1  0.62376600  0.49191671  0.51453369  1
  O  O411  1  0.39064671  0.37662460  0.11018866  1
  O  O412  1  0.37470075  0.36947620  0.62064860  1
  O  O413  1  0.37404399  0.86706368  0.11897436  1
  O  O414  1  0.37193645  0.86728890  0.61946999  1
  O  O415  1  0.87092221  0.36967040  0.12118597  1
  O  O416  1  0.86526210  0.36467615  0.62548748  1
  O  O417  1  0.86703840  0.86972126  0.11660825  1
  O  O418  1  0.86823159  0.86515177  0.62967945  1
  O  O419  1  0.13010638  0.13785652  0.38110776  1
  O  O420  1  0.13393866  0.13239166  0.87632893  1
  O  O421  1  0.14032676  0.59664256  0.38415422  1
  O  O422  1  0.13140716  0.63148255  0.87828932  1
  O  O423  1  0.61531926  0.11498450  0.38576616  1
  O  O424  1  0.62978304  0.13583652  0.88793775  1
  O  O425  1  0.63534006  0.62803898  0.37501981  1
  O  O426  1  0.62559424  0.63232465  0.88147489  1
