# generated using pymatgen
data_V85Zn86O256
_symmetry_space_group_name_H-M   'P 1'
_cell_length_a   16.93495444
_cell_length_b   16.94306194
_cell_length_c   16.94373688
_cell_angle_alpha   90.01270686
_cell_angle_beta   89.99325847
_cell_angle_gamma   89.97977502
_symmetry_Int_Tables_number   1
_chemical_formula_structural   V85Zn86O256
_chemical_formula_sum   'V85 Zn86 O256'
_cell_volume   4861.66566397
_cell_formula_units_Z   1
loop_
 _symmetry_equiv_pos_site_id
 _symmetry_equiv_pos_as_xyz
  1  'x, y, z'
loop_
 _atom_site_type_symbol
 _atom_site_label
 _atom_site_symmetry_multiplicity
 _atom_site_fract_x
 _atom_site_fract_y
 _atom_site_fract_z
 _atom_site_occupancy
  V  V0  1  0.12168988  0.63270819  0.49559009  1
  V  V1  1  0.00216706  0.24388902  0.74991645  1
  V  V2  1  0.00075032  0.87548684  0.87592928  1
  V  V3  1  0.48999289  0.50276084  -0.01340549  1
  V  V4  1  0.63235202  0.11217310  0.48828948  1
  V  V5  1  0.24847938  0.62437984  0.37363144  1
  V  V6  1  0.38227081  0.87786792  0.50264583  1
  V  V7  1  0.11881447  0.50315375  0.12356608  1
  V  V8  1  0.50087505  0.13528981  0.12655009  1
  V  V9  1  0.87593134  0.86870513  0.50339317  1
  V  V10  1  0.24848493  0.75531582  0.49209011  1
  V  V11  1  0.12171050  0.24993472  0.37759201  1
  V  V12  1  0.74603269  0.61819525  0.88289005  1
  V  V13  1  0.24783710  0.37107647  0.11909298  1
  V  V14  1  0.62543035  0.25857577  0.38006538  1
  V  V15  1  0.49848672  0.00089182  -0.00347760  1
  V  V16  1  0.61576179  0.50780549  0.12513992  1
  V  V17  1  0.75310377  0.49650839  0.25279812  1
  V  V18  1  0.86392394  0.37091773  0.49830372  1
  V  V19  1  0.50222766  0.74745124  0.24094854  1
  V  V20  1  0.37680724  0.75107193  0.62305979  1
  V  V21  1  0.25082898  0.12382859  0.37534520  1
  V  V22  1  0.12377805  0.12916075  -0.00092348  1
  V  V23  1  0.25047028  0.61919370  0.87325648  1
  V  V24  1  0.74959308  0.74841071  0.50935649  1
  V  V25  1  0.25269597  0.49866255  0.25295284  1
  V  V26  1  0.37593477  0.62674850  0.75063342  1
  V  V27  1  -0.01348300  0.63121557  0.62222478  1
  V  V28  1  0.37397489  0.87509066  0.00199038  1
  V  V29  1  -0.00111793  0.00045351  0.00403731  1
  V  V30  1  0.87130291  0.12961529  0.25107684  1
  V  V31  1  0.11685246  0.50329851  0.62185884  1
  V  V32  1  0.12402175  0.75094591  0.87424354  1
  V  V33  1  0.25018998  0.24699104  -0.00784383  1
  V  V34  1  0.37789267  0.62359040  0.24373675  1
  V  V35  1  0.87086130  -0.00166348  0.87154175  1
  V  V36  1  0.87433310  0.62010937  0.76087302  1
  V  V37  1  0.24837002  0.50252731  0.74321172  1
  V  V38  1  0.12106427  0.37558440  0.75094021  1
  V  V39  1  0.01319519  0.75063702  0.25306851  1
  V  V40  1  0.75232809  0.87952299  0.63399532  1
  V  V41  1  0.12020318  0.12786498  0.50635913  1
  V  V42  1  0.37582035  0.11819869  0.74704740  1
  V  V43  1  0.12648313  0.00340463  0.63196476  1
  V  V44  1  0.60505561  0.37142122  0.24841716  1
  V  V45  1  0.12287152  -0.00351944  0.13394971  1
  V  V46  1  0.87630276  0.87472516  0.00345711  1
  V  V47  1  0.24191066  0.11912421  0.86522702  1
  V  V48  1  0.25109281  0.88002043  0.63365314  1
  V  V49  1  0.87788854  0.12038106  0.74209308  1
  V  V50  1  0.87857455  0.37010712  0.00848088  1
  V  V51  1  -0.00263804  0.75353170  0.74457351  1
  V  V52  1  -0.00352806  0.25076910  0.24903455  1
  V  V53  1  0.38264665  0.00220460  0.37931865  1
  V  V54  1  0.37626408  0.38269312  0.48558139  1
  V  V55  1  -0.01030770  0.50148132  0.49579896  1
  V  V56  1  0.50593704  0.62201394  0.62188176  1
  V  V57  1  -0.00424248  0.50233583  -0.00435535  1
  V  V58  1  0.12290473  0.37567376  0.25151626  1
  V  V59  1  0.24925755  -0.00242663  0.25221959  1
  V  V60  1  0.01481299  0.87399108  0.37417913  1
  V  V61  1  0.88034986  0.62191812  0.25303432  1
  V  V62  1  0.75562174  0.62377118  0.37874822  1
  V  V63  1  0.50012461  0.86932627  0.37528883  1
  V  V64  1  0.11925604  0.62290223  0.00190367  1
  V  V65  1  0.24934657  0.74877453  -0.00056651  1
  V  V66  1  0.62418917  0.00011189  0.12712104  1
  V  V67  1  -0.00263048  0.37301488  0.87501609  1
  V  V68  1  0.87378145  0.24563147  0.61894473  1
  V  V69  1  0.62614444  0.12886382  -0.00187953  1
  V  V70  1  -0.00820592  0.37939687  0.37461619  1
  V  V71  1  0.25331648  0.25160459  0.50061118  1
  V  V72  1  -0.00434741  0.13012980  0.12678779  1
  V  V73  1  0.75534651  0.24994267  0.00737481  1
  V  V74  1  0.87993814  0.74438069  0.12999726  1
  V  V75  1  0.74896006  0.00218067  0.25590660  1
  V  V76  1  0.61888514  0.00161839  0.63338480  1
  V  V77  1  0.38018195  0.13021043  0.25085784  1
  V  V78  1  0.75116810  0.87294255  0.12899754  1
  V  V79  1  0.87342766  0.00169417  0.37684879  1
  V  V80  1  -0.00155970  0.00396602  0.50581698  1
  V  V81  1  0.37928273  0.25477413  0.63176829  1
  V  V82  1  0.75253253  0.12517557  0.87187379  1
  V  V83  1  0.50138192  0.87392505  0.87355599  1
  V  V84  1  0.24780124  0.87333216  0.13115367  1
  Zn  Zn85  1  0.24598829  0.37708579  0.62096571  1
  Zn  Zn86  1  0.12904642  0.88072944  0.75399295  1
  Zn  Zn87  1  0.50700096  0.49013388  0.48214589  1
  Zn  Zn88  1  0.62439583  0.87390335  0.25243562  1
  Zn  Zn89  1  0.74023333  0.36581272  0.63379612  1
  Zn  Zn90  1  0.75058382  0.74746418  0.00160413  1
  Zn  Zn91  1  0.62772424  0.62059350  0.50005653  1
  Zn  Zn92  1  0.62553456  0.48261535  0.62512560  1
  Zn  Zn93  1  0.50602143  0.75068405  0.75294232  1
  Zn  Zn94  1  0.61552971  0.63032919  0.00623049  1
  Zn  Zn95  1  0.63295671  0.88039012  0.75707793  1
  Zn  Zn96  1  0.62781548  0.74945551  0.37559813  1
  Zn  Zn97  1  0.73323779  0.48394137  0.75792847  1
  Zn  Zn98  1  0.56216770  0.30333960  0.71047531  1
  Zn  Zn99  1  0.36701451  -0.00306272  0.86966442  1
  Zn  Zn100  1  0.37997529  0.74422571  0.12027452  1
  Zn  Zn101  1  0.60392856  0.27360959  0.87424250  1
  Zn  Zn102  1  0.75221410  0.37296276  0.12940834  1
  Zn  Zn103  1  0.38814375  0.36927489  -0.01063282  1
  Zn  Zn104  1  0.62992978  0.75193675  0.87700758  1
  Zn  Zn105  1  0.37544363  0.25303558  0.12780540  1
  Zn  Zn106  1  0.49932977  0.12588564  0.61583788  1
  Zn  Zn107  1  0.18551118  0.18637484  0.18831206  1
  Zn  Zn108  1  0.18838814  0.19180242  0.68681083  1
  Zn  Zn109  1  0.18932969  0.68618664  0.18409421  1
  Zn  Zn110  1  0.18421620  0.69202485  0.68306260  1
  Zn  Zn111  1  0.68787467  0.19045479  0.19284589  1
  Zn  Zn112  1  0.69497278  0.18002643  0.68430790  1
  Zn  Zn113  1  0.69049595  0.68756795  0.19197323  1
  Zn  Zn114  1  0.68742650  0.68975251  0.69651692  1
  Zn  Zn115  1  0.31025495  0.31072694  0.31085836  1
  Zn  Zn116  1  0.41241883  0.31638044  0.81942297  1
  Zn  Zn117  1  0.31616233  0.80900560  0.31249430  1
  Zn  Zn118  1  0.31408370  0.80998641  0.81429283  1
  Zn  Zn119  1  0.80539666  0.30937065  0.31671839  1
  Zn  Zn120  1  0.81137003  0.30691747  0.82158838  1
  Zn  Zn121  1  0.81701777  0.81197615  0.31722256  1
  Zn  Zn122  1  0.81538162  0.80576836  0.81291855  1
  Zn  Zn123  1  0.18374733  0.43940943  0.43743087  1
  Zn  Zn124  1  0.23250982  0.40257330  0.89769619  1
  Zn  Zn125  1  0.19162617  0.94143973  0.44408861  1
  Zn  Zn126  1  0.18557324  0.94069367  0.94323347  1
  Zn  Zn127  1  0.68523443  0.44127668  0.43463194  1
  Zn  Zn128  1  0.69054091  0.44035701  0.94107311  1
  Zn  Zn129  1  0.68706521  0.93561107  0.44126260  1
  Zn  Zn130  1  0.68812332  0.93903503  0.94174681  1
  Zn  Zn131  1  0.31215080  0.06254912  0.06403968  1
  Zn  Zn132  1  0.31121539  0.06293385  0.56238874  1
  Zn  Zn133  1  0.30910716  0.55829570  0.06185091  1
  Zn  Zn134  1  0.31076829  0.56457279  0.56036042  1
  Zn  Zn135  1  0.81243042  0.06182871  0.06575769  1
  Zn  Zn136  1  0.80510556  0.06058763  0.56209247  1
  Zn  Zn137  1  0.81364807  0.55945236  0.06842855  1
  Zn  Zn138  1  0.80701148  0.55485962  0.56929934  1
  Zn  Zn139  1  0.43226585  0.44034967  0.18010553  1
  Zn  Zn140  1  0.42988634  0.44244972  0.67595307  1
  Zn  Zn141  1  0.43720573  0.93951639  0.18813209  1
  Zn  Zn142  1  0.43910706  0.94418135  0.68860496  1
  Zn  Zn143  1  0.93676943  0.43990689  0.18564061  1
  Zn  Zn144  1  0.89966638  0.41765500  0.70799853  1
  Zn  Zn145  1  0.93837051  0.93457421  0.19285422  1
  Zn  Zn146  1  0.93840486  0.93705565  0.68611635  1
  Zn  Zn147  1  0.06095253  0.06180405  0.31611246  1
  Zn  Zn148  1  0.05881113  0.06238452  0.81489841  1
  Zn  Zn149  1  0.06361775  0.56449693  0.31386625  1
  Zn  Zn150  1  0.05904716  0.56195431  0.81317921  1
  Zn  Zn151  1  0.56078716  0.06346958  0.31441536  1
  Zn  Zn152  1  0.57928567  0.10861995  0.79183821  1
  Zn  Zn153  1  0.56713484  0.56286340  0.31103644  1
  Zn  Zn154  1  0.56242596  0.45005957  0.80984976  1
  Zn  Zn155  1  0.44885573  0.19189893  0.43703102  1
  Zn  Zn156  1  0.43234431  0.18425254  0.93783880  1
  Zn  Zn157  1  0.45318264  0.65696738  0.41547520  1
  Zn  Zn158  1  0.43939382  0.68324745  0.93654493  1
  Zn  Zn159  1  0.93465873  0.18607248  0.43560013  1
  Zn  Zn160  1  0.93878868  0.19053456  0.93404455  1
  Zn  Zn161  1  0.93652750  0.69136049  0.43241797  1
  Zn  Zn162  1  0.93692012  0.69030393  0.93891069  1
  Zn  Zn163  1  0.06410840  0.31266820  0.06335828  1
  Zn  Zn164  1  0.05372601  0.31337998  0.56691429  1
  Zn  Zn165  1  0.06272265  0.81086954  0.06690614  1
  Zn  Zn166  1  0.06406345  0.81600469  0.56279470  1
  Zn  Zn167  1  0.56691657  0.31795780  0.06010619  1
  Zn  Zn168  1  0.55937093  0.30877635  0.54607616  1
  Zn  Zn169  1  0.56643372  0.81257976  0.06043837  1
  Zn  Zn170  1  0.56613381  0.81101638  0.56469972  1
  O  O171  1  0.11418135  0.11671408  0.12260652  1
  O  O172  1  0.13104270  0.11954003  0.61339135  1
  O  O173  1  0.13139825  0.61737441  0.11142551  1
  O  O174  1  0.11638971  0.62265998  0.61317782  1
  O  O175  1  0.61963647  0.12146452  0.11652641  1
  O  O176  1  0.62539867  0.11167664  0.61948854  1
  O  O177  1  0.63364663  0.61135190  0.12656734  1
  O  O178  1  0.60923983  0.63422780  0.62778660  1
  O  O179  1  0.36680873  0.37201378  0.38673661  1
  O  O180  1  0.33963560  0.36824015  0.88676260  1
  O  O181  1  0.38231855  0.88041039  0.38210319  1
  O  O182  1  0.37741152  0.87714549  0.88682287  1
  O  O183  1  0.88536536  0.36621721  0.38080214  1
  O  O184  1  0.89106655  0.37026664  0.89005598  1
  O  O185  1  0.88394139  0.88601278  0.38301207  1
  O  O186  1  0.87978489  0.88126240  0.88096371  1
  O  O187  1  0.25997940  0.00402963  0.37183165  1
  O  O188  1  0.24997009  0.01381103  0.88296199  1
  O  O189  1  0.24041896  0.51006286  0.36440890  1
  O  O190  1  0.23919424  0.51445511  0.85965745  1
  O  O191  1  0.75839147  -0.00965839  0.36408162  1
  O  O192  1  0.76491623  0.00688945  0.88521988  1
  O  O193  1  0.74931643  0.50819161  0.36222487  1
  O  O194  1  0.75629561  0.51444760  0.87357822  1
  O  O195  1  0.23735116  0.49066915  0.12911083  1
  O  O196  1  0.23259517  0.50574150  0.62607943  1
  O  O197  1  0.24221191  0.99375346  0.13088256  1
  O  O198  1  0.23918786  0.99097140  0.61717304  1
  O  O199  1  0.74241673  0.49787699  0.13701607  1
  O  O200  1  0.74852890  0.48583774  0.63284516  1
  O  O201  1  0.74743202  0.99222237  0.13536188  1
  O  O202  1  0.73683513  0.98858029  0.62143150  1
  O  O203  1  0.00124591  0.37193235  0.25689509  1
  O  O204  1  -0.00137760  0.36945199  0.75848866  1
  O  O205  1  -0.00165366  0.86325411  0.26103469  1
  O  O206  1  0.00252085  0.86905446  0.75577634  1
  O  O207  1  0.50663821  0.38176226  0.24846659  1
  O  O208  1  0.48564948  0.37957437  0.75204355  1
  O  O209  1  0.49755444  0.86767117  0.25840145  1
  O  O210  1  0.49420413  0.87970604  0.76725243  1
  O  O211  1  0.49172213  0.11560973  0.23830480  1
  O  O212  1  0.47872708  0.11806141  0.74011827  1
  O  O213  1  0.48900071  0.63425449  0.24983057  1
  O  O214  1  0.48191947  0.62963921  0.73466921  1
  O  O215  1  0.99335091  0.12847693  0.24511026  1
  O  O216  1  0.99225264  0.13343191  0.75540159  1
  O  O217  1  0.99344929  0.63826040  0.25911382  1
  O  O218  1  0.99685072  0.63416506  0.74216057  1
  O  O219  1  0.36186508  0.24630762  0.00860619  1
  O  O220  1  0.36821524  0.25486930  0.50268891  1
  O  O221  1  0.36762041  0.75686511  0.00114231  1
  O  O222  1  0.36500845  0.76079319  0.50776932  1
  O  O223  1  0.86899405  0.25607777  -0.00076095  1
  O  O224  1  0.88144914  0.25594419  0.50693825  1
  O  O225  1  0.87844965  0.75759681  0.01314824  1
  O  O226  1  0.87214341  0.76343608  0.49757032  1
  O  O227  1  0.12815578  0.24496901  0.49909826  1
  O  O228  1  0.12808577  0.23391028  1.00791094  1
  O  O229  1  0.13432107  0.74372465  0.50605859  1
  O  O230  1  0.12844321  0.74225690  0.99635984  1
  O  O231  1  0.63123839  0.24563255  0.48332739  1
  O  O232  1  0.63114634  0.24306570  0.99444662  1
  O  O233  1  0.63637707  0.74678588  0.49680639  1
  O  O234  1  0.63145669  0.74560079  0.99804859  1
  O  O235  1  0.49916280  0.23784277  0.11715764  1
  O  O236  1  0.48996610  0.24843176  0.62311991  1
  O  O237  1  0.49882432  0.75806496  0.13672826  1
  O  O238  1  0.48703754  0.75253058  0.63112769  1
  O  O239  1  1.00497056  0.23972586  0.13428899  1
  O  O240  1  0.98871422  0.24929890  0.63812819  1
  O  O241  1  0.99263541  0.75722836  0.14146248  1
  O  O242  1  1.00596478  0.74371952  0.63229186  1
  O  O243  1  0.00492324  0.25650716  0.36932177  1
  O  O244  1  0.00191737  0.25783258  0.86288356  1
  O  O245  1  -0.00013538  0.76012300  0.36409434  1
  O  O246  1  0.00595964  0.75745774  0.86938382  1
  O  O247  1  0.52552888  0.23662530  0.36357139  1
  O  O248  1  0.49149763  0.25191177  0.87349296  1
  O  O249  1  0.49963840  0.75509122  0.36372516  1
  O  O250  1  0.50028477  0.76054398  0.87512842  1
  O  O251  1  0.24318360  0.13253506  0.49316490  1
  O  O252  1  0.24070043  0.12783358  1.00006123  1
  O  O253  1  0.24238590  0.63321323  0.49292759  1
  O  O254  1  0.24294827  0.62637170  0.99014077  1
  O  O255  1  0.73248308  0.12625485  0.50441457  1
  O  O256  1  0.74485369  0.12950329  0.99827447  1
  O  O257  1  0.75558650  0.63106295  0.49672517  1
  O  O258  1  0.75971652  0.62452106  0.98969626  1
  O  O259  1  0.23299040  0.36070360  0.01001476  1
  O  O260  1  0.25165262  0.36664608  0.49917876  1
  O  O261  1  0.25628467  0.87215055  0.00896018  1
  O  O262  1  0.25831044  0.87001225  0.50764560  1
  O  O263  1  0.76178378  0.36812110  0.00242209  1
  O  O264  1  0.76280960  0.37734591  0.49501329  1
  O  O265  1  0.75817250  0.87660198  0.01465299  1
  O  O266  1  0.75801515  0.86760040  0.50624629  1
  O  O267  1  0.13115730  0.49716024  0.24312131  1
  O  O268  1  0.12538148  0.50000233  0.73876263  1
  O  O269  1  0.13039368  1.00511119  0.24142128  1
  O  O270  1  0.11725150  1.00134921  0.73570034  1
  O  O271  1  0.63123070  0.49316343  0.24424267  1
  O  O272  1  0.62417507  0.50766435  0.73707017  1
  O  O273  1  0.63378574  0.99793028  0.24606025  1
  O  O274  1  0.62217021  1.00423545  0.73728793  1
  O  O275  1  0.36819838  0.00867222  0.25761725  1
  O  O276  1  0.36582422  0.01322969  0.74760387  1
  O  O277  1  0.35950135  0.50579978  0.24383634  1
  O  O278  1  0.35563435  0.51228583  0.73542064  1
  O  O279  1  0.87029544  0.00625873  0.25787576  1
  O  O280  1  0.88531931  0.00680878  0.76151862  1
  O  O281  1  0.87031949  0.51404459  0.24325659  1
  O  O282  1  0.89087254  0.52200093  0.75334959  1
  O  O283  1  0.11421531  0.37004048  0.37021477  1
  O  O284  1  0.12127308  0.37888646  0.85640757  1
  O  O285  1  0.11389082  0.88388173  0.38221387  1
  O  O286  1  0.12025487  0.87168050  0.87561551  1
  O  O287  1  0.62501021  0.36895770  0.36190061  1
  O  O288  1  0.63820619  0.38020024  0.86274236  1
  O  O289  1  0.61042270  0.87518971  0.37586193  1
  O  O290  1  0.61589231  0.87928041  0.87676480  1
  O  O291  1  0.38352179  0.12317984  0.13386217  1
  O  O292  1  0.37107200  0.13119966  0.63198545  1
  O  O293  1  0.36041680  0.62758667  0.13926201  1
  O  O294  1  0.37643877  0.63568395  0.62661170  1
  O  O295  1  0.88834113  0.11684216  0.13498348  1
  O  O296  1  0.87168169  0.12336200  0.63626430  1
  O  O297  1  0.87297407  0.63777404  0.13452352  1
  O  O298  1  0.88423323  0.62509240  0.63268705  1
  O  O299  1  0.24686802  0.25642285  0.12012216  1
  O  O300  1  0.25480679  0.25130201  0.61105247  1
  O  O301  1  0.24961146  0.75921476  0.11744954  1
  O  O302  1  0.25767458  0.75821641  0.61646008  1
  O  O303  1  0.74494152  0.25112256  0.11161143  1
  O  O304  1  0.76845896  0.24949738  0.63172033  1
  O  O305  1  0.76015183  0.75832434  0.12785669  1
  O  O306  1  0.74668572  0.75830405  0.61546144  1
  O  O307  1  0.24237312  0.24445678  0.38397751  1
  O  O308  1  0.24123565  0.23135617  0.89099058  1
  O  O309  1  0.24919231  0.74825317  0.38612162  1
  O  O310  1  0.24246521  0.74223997  0.88018892  1
  O  O311  1  0.72292180  0.23971794  0.35055577  1
  O  O312  1  0.75264852  0.23567169  0.88841736  1
  O  O313  1  0.75329122  0.74519035  0.38788315  1
  O  O314  1  0.75506330  0.73842707  0.88111062  1
  O  O315  1  0.00361106  0.12175074  0.00815879  1
  O  O316  1  0.00884462  0.11641530  0.49433239  1
  O  O317  1  0.00902396  0.61766407  -0.00667533  1
  O  O318  1  0.00223537  0.62316798  0.50266067  1
  O  O319  1  0.50612546  0.11763041  0.00559569  1
  O  O320  1  0.52139771  0.13115603  0.50249736  1
  O  O321  1  0.49950076  0.61102785  0.00144670  1
  O  O322  1  0.50135002  0.64433024  0.52024187  1
  O  O323  1  0.48202764  0.37629347  0.49382449  1
  O  O324  1  0.50019385  0.39420687  1.00869750  1
  O  O325  1  0.48829594  0.86649150  0.49351194  1
  O  O326  1  0.49226943  0.88036809  0.99552223  1
  O  O327  1  0.99577315  0.38406079  0.49119874  1
  O  O328  1  0.99956023  0.37887258  0.99425582  1
  O  O329  1  0.99363946  0.88136941  0.49479333  1
  O  O330  1  0.99586360  0.88028158  0.99736440  1
  O  O331  1  0.49006633  0.54901619  0.38898244  1
  O  O332  1  0.49505933  0.50262772  0.88785145  1
  O  O333  1  0.48752616  0.98982988  0.36957885  1
  O  O334  1  0.49381656  0.99443992  0.89092928  1
  O  O335  1  1.00373097  0.49111236  0.38249331  1
  O  O336  1  1.00682056  0.48834123  0.88527563  1
  O  O337  1  0.99401226  0.99368334  0.38422752  1
  O  O338  1  0.99176552  0.99432478  0.88407124  1
  O  O339  1  0.00653974  0.00410655  0.12516134  1
  O  O340  1  0.00801163  -0.00513655  0.61143521  1
  O  O341  1  0.01331598  0.49645297  0.11939270  1
  O  O342  1  0.00739657  0.51382100  0.61426139  1
  O  O343  1  0.50473832  0.00489580  0.11580477  1
  O  O344  1  0.51470949  -0.00188728  0.62109119  1
  O  O345  1  0.51390924  0.50477276  0.12867600  1
  O  O346  1  0.49452135  0.51707230  0.61348113  1
  O  O347  1  0.24328263  0.38068682  0.24351268  1
  O  O348  1  0.23503583  0.39118480  0.74045191  1
  O  O349  1  0.25796910  0.87879859  0.23799244  1
  O  O350  1  0.24948896  0.87087184  0.73765073  1
  O  O351  1  0.75101155  0.38538996  0.24861711  1
  O  O352  1  0.79114599  0.38361208  0.74463224  1
  O  O353  1  0.75275040  0.88110732  0.24289355  1
  O  O354  1  0.75654572  0.87134798  0.73762179  1
  O  O355  1  0.25543039  0.11834618  0.25701217  1
  O  O356  1  0.25210578  0.12901317  0.75910589  1
  O  O357  1  0.24866319  0.61777263  0.25619415  1
  O  O358  1  0.25196334  0.62393191  0.75304826  1
  O  O359  1  0.75979275  0.11329867  0.23979376  1
  O  O360  1  0.76247211  0.12243435  0.76425737  1
  O  O361  1  0.76162434  0.62118586  0.25822124  1
  O  O362  1  0.76552108  0.62858713  0.75938129  1
  O  O363  1  0.37422305  0.11894949  0.37133990  1
  O  O364  1  0.36356961  0.12218048  0.86095273  1
  O  O365  1  0.35381815  0.63365403  0.35978491  1
  O  O366  1  0.36273630  0.63227189  0.86220751  1
  O  O367  1  0.87945261  0.11041520  0.36683324  1
  O  O368  1  0.87144738  0.11653079  0.87016738  1
  O  O369  1  0.86645922  0.62787498  0.36701063  1
  O  O370  1  0.87364108  0.62926323  0.86508114  1
  O  O371  1  0.12971712  0.38115127  0.13344688  1
  O  O372  1  0.11855780  0.38780510  0.63011272  1
  O  O373  1  0.13466561  0.88532483  0.12052719  1
  O  O374  1  0.13411574  0.88512928  0.62558776  1
  O  O375  1  0.62721259  0.38759182  0.13586767  1
  O  O376  1  0.62235330  0.36062230  0.62690736  1
  O  O377  1  0.63523723  0.88176888  0.12815802  1
  O  O378  1  0.63212874  0.88521096  0.62810000  1
  O  O379  1  0.11836500  0.25510046  0.25754248  1
  O  O380  1  0.11436485  0.26297054  0.73748316  1
  O  O381  1  0.11188976  0.74559948  0.24556416  1
  O  O382  1  0.11549253  0.75289911  0.75608496  1
  O  O383  1  0.62038255  0.26993838  0.24051767  1
  O  O384  1  0.61963022  0.21886483  0.76287189  1
  O  O385  1  0.61787368  0.75322012  0.25342129  1
  O  O386  1  0.62269349  0.76072902  0.75792005  1
  O  O387  1  0.36864461  0.23450060  0.24823079  1
  O  O388  1  0.36632544  0.23917776  0.73529535  1
  O  O389  1  0.38217408  0.74219383  0.24502102  1
  O  O390  1  0.37182587  0.74321269  0.73992051  1
  O  O391  1  0.87829844  0.23560853  0.25696505  1
  O  O392  1  0.88403143  0.23717812  0.74678877  1
  O  O393  1  0.88274695  0.74242765  0.24706871  1
  O  O394  1  0.89103326  0.74026229  0.75191967  1
  O  O395  1  0.36687962  0.48397690  0.50180352  1
  O  O396  1  0.38663359  0.49775868  1.00587721  1
  O  O397  1  0.36983604  0.99107714  0.49126763  1
  O  O398  1  0.38147247  0.99241989  1.00125217  1
  O  O399  1  0.88586450  0.49210973  0.50379477  1
  O  O400  1  0.89082911  0.49323225  1.00958045  1
  O  O401  1  0.88081065  0.99703755  0.49410758  1
  O  O402  1  0.88198179  0.99485924  0.99664133  1
  O  O403  1  0.11834937  0.00917129  0.01367122  1
  O  O404  1  0.11796308  0.00920052  0.50729589  1
  O  O405  1  0.11466313  0.50864436  0.00796627  1
  O  O406  1  0.11439740  0.50892605  0.50416040  1
  O  O407  1  0.61821264  0.00673164  0.00896268  1
  O  O408  1  0.62701375  0.00659817  0.50761477  1
  O  O409  1  0.61975597  0.50303457  0.01423508  1
  O  O410  1  0.62170838  0.50254915  0.50680081  1
  O  O411  1  0.35930001  0.37308232  0.12086142  1
  O  O412  1  0.36688387  0.36594343  0.61306104  1
  O  O413  1  0.36811825  0.87543803  0.11446619  1
  O  O414  1  0.37040124  0.87391552  0.61971617  1
  O  O415  1  0.87724333  0.37352345  0.11364686  1
  O  O416  1  0.88246150  0.36122491  0.60967417  1
  O  O417  1  0.86992201  0.86796469  0.12501708  1
  O  O418  1  0.86705956  0.88445784  0.61315626  1
  O  O419  1  0.12963256  0.12904172  0.38541181  1
  O  O420  1  0.12943487  0.11711605  0.88687321  1
  O  O421  1  0.13118415  0.62541437  0.38754276  1
  O  O422  1  0.12969860  0.63155987  0.88165782  1
  O  O423  1  0.62941805  0.11841174  0.38463569  1
  O  O424  1  0.63764261  0.11232107  0.89078218  1
  O  O425  1  0.64484613  0.62937598  0.37509668  1
  O  O426  1  0.64489443  0.62679505  0.88104008  1
