# generated using pymatgen
data_V85Zn86O256
_symmetry_space_group_name_H-M   'P 1'
_cell_length_a   16.92489612
_cell_length_b   16.92364333
_cell_length_c   16.91394608
_cell_angle_alpha   90.02354957
_cell_angle_beta   90.15610065
_cell_angle_gamma   89.99779876
_symmetry_Int_Tables_number   1
_chemical_formula_structural   V85Zn86O256
_chemical_formula_sum   'V85 Zn86 O256'
_cell_volume   4844.65849659
_cell_formula_units_Z   1
loop_
 _symmetry_equiv_pos_site_id
 _symmetry_equiv_pos_as_xyz
  1  'x, y, z'
loop_
 _atom_site_type_symbol
 _atom_site_label
 _atom_site_symmetry_multiplicity
 _atom_site_fract_x
 _atom_site_fract_y
 _atom_site_fract_z
 _atom_site_occupancy
  V  V0  1  0.50478993  0.00026034  0.50249044  1
  V  V1  1  0.62596122  0.75256107  0.38001068  1
  V  V2  1  0.23994310  0.49352568  0.74498009  1
  V  V3  1  0.62154295  0.37547178  0.24412743  1
  V  V4  1  0.50213521  0.75097186  0.25342026  1
  V  V5  1  0.49969197  0.36774052  0.37274074  1
  V  V6  1  0.13003927  0.23432502  0.37545099  1
  V  V7  1  0.12084434  0.50073650  0.12446668  1
  V  V8  1  0.87000936  0.37066631  -0.00449083  1
  V  V9  1  0.74543156  -0.00139482  0.23654110  1
  V  V10  1  0.37535911  0.49885700  0.87455361  1
  V  V11  1  -0.00299741  0.63639521  0.13090832  1
  V  V12  1  0.24560333  0.63519864  0.37421176  1
  V  V13  1  0.00670305  0.00122635  0.49442236  1
  V  V14  1  0.00665698  0.25440286  0.74639729  1
  V  V15  1  0.24506682  0.87288178  0.62920220  1
  V  V16  1  0.50755375  0.62106543  0.12645674  1
  V  V17  1  0.86429034  0.76020109  0.12825216  1
  V  V18  1  0.75151134  0.12753883  0.37965873  1
  V  V19  1  0.38100678  0.00068112  0.87677234  1
  V  V20  1  0.00590328  0.38084273  0.86962966  1
  V  V21  1  0.00234045  0.85916681  0.36853794  1
  V  V22  1  0.12454196  -0.00050577  0.62499503  1
  V  V23  1  0.37567333  0.75132259  0.62867801  1
  V  V24  1  0.00391500  0.12619593  0.61942601  1
  V  V25  1  0.62779293  0.87952181  0.23773734  1
  V  V26  1  0.50762612  0.49719694  0.00265798  1
  V  V27  1  0.50426522  0.87750728  0.38052754  1
  V  V28  1  0.12442247  0.12572221  -0.00128775  1
  V  V29  1  0.74899186  0.62713659  0.86858130  1
  V  V30  1  0.24991264  0.12627142  0.87467092  1
  V  V31  1  0.87321401  0.12547125  0.24970232  1
  V  V32  1  0.62550714  0.62473884  0.50165599  1
  V  V33  1  0.50028357  0.62503215  0.63013073  1
  V  V34  1  0.12257154  0.75347423  0.86224099  1
  V  V35  1  0.36374913  0.00423321  0.37517038  1
  V  V36  1  0.36638404  0.12634683  0.25537798  1
  V  V37  1  0.74763612  0.49990743  0.24057266  1
  V  V38  1  0.38782494  0.25038331  0.13058419  1
  V  V39  1  0.87533241  -0.00118529  0.37422704  1
  V  V40  1  0.63703962  -0.00000168  0.63834350  1
  V  V41  1  0.62514223  0.63402043  -0.00575256  1
  V  V42  1  0.37543199  0.62530521  0.25076629  1
  V  V43  1  0.86728582  -0.00259622  0.87169702  1
  V  V44  1  0.37475912  0.49991916  0.37576347  1
  V  V45  1  0.50372898  0.12625681  0.63899356  1
  V  V46  1  0.24544705  -0.00196299  0.75234709  1
  V  V47  1  0.62654895  0.25016428  0.37419122  1
  V  V48  1  0.50021992  0.49825435  0.50175156  1
  V  V49  1  0.63325499  0.50011508  0.63057012  1
  V  V50  1  0.00334761  0.87720629  0.87083249  1
  V  V51  1  0.24765668  0.62500395  0.87517659  1
  V  V52  1  0.87800803  0.86737292  0.50230857  1
  V  V53  1  0.74963164  0.62246845  0.37480827  1
  V  V54  1  0.37214319  0.74959931  0.12509047  1
  V  V55  1  0.74744684  0.36669959  0.12067127  1
  V  V56  1  0.13261484  0.87066173  0.25743669  1
  V  V57  1  -0.00012390  0.12381644  0.12412918  1
  V  V58  1  0.49999172  0.36722975  0.86637202  1
  V  V59  1  0.63158671  0.37462358  0.75070232  1
  V  V60  1  0.88181185  0.49847332  0.37737593  1
  V  V61  1  0.87359220  0.62564406  0.73844644  1
  V  V62  1  0.50446775  0.10550653  0.12848210  1
  V  V63  1  0.37759045  0.87548099  0.50288378  1
  V  V64  1  0.11725318  0.62340152  0.49881715  1
  V  V65  1  0.37858685  0.24873328  0.63203366  1
  V  V66  1  0.24966217  0.50016919  0.25026763  1
  V  V67  1  0.75349555  0.13201712  0.88313395  1
  V  V68  1  0.12020672  0.62890294  -0.00135696  1
  V  V69  1  0.37027201  0.37242003  0.50204791  1
  V  V70  1  0.24739196  0.23283341  0.49735567  1
  V  V71  1  0.25063953  0.88639903  0.12738054  1
  V  V72  1  0.74936746  0.36431441  0.61996829  1
  V  V73  1  0.63128688  0.25016044  0.87915599  1
  V  V74  1  0.24987575  0.37278877  0.12473233  1
  V  V75  1  0.12503266  0.37313947  0.25159568  1
  V  V76  1  -0.00100448  0.25175031  0.25106012  1
  V  V77  1  0.87141002  0.12391665  0.74717126  1
  V  V78  1  0.50107965  0.85831234  0.86622937  1
  V  V79  1  0.75816718  0.87216881  0.63507919  1
  V  V80  1  0.87829562  0.36881111  0.49908471  1
  V  V81  1  0.37637152  0.37490764  0.00165874  1
  V  V82  1  0.37959316  0.88015880  0.00087261  1
  V  V83  1  0.37709997  0.62718312  0.75128528  1
  V  V84  1  0.63005483  0.13036961  0.50455039  1
  Zn  Zn85  1  0.75602646  0.74777916  0.50296541  1
  Zn  Zn86  1  0.12856051  0.00168444  0.12953374  1
  Zn  Zn87  1  0.74291312  0.75993832  -0.00190988  1
  Zn  Zn88  1  0.10488334  0.48976210  0.61313317  1
  Zn  Zn89  1  0.86994493  0.24816700  0.12012296  1
  Zn  Zn90  1  0.25073521  0.25092690  0.00036787  1
  Zn  Zn91  1  0.38146787  0.12896971  0.75642484  1
  Zn  Zn92  1  -0.00659464  0.62808956  0.61787881  1
  Zn  Zn93  1  -0.00862572  0.75532196  0.73830107  1
  Zn  Zn94  1  0.24183067  0.36932017  0.62920195  1
  Zn  Zn95  1  0.87011167  0.87832655  0.00183712  1
  Zn  Zn96  1  0.00063968  -0.00128553  -0.00168860  1
  Zn  Zn97  1  0.24653350  0.75190670  0.49632652  1
  Zn  Zn98  1  0.87133594  0.24530115  0.61927973  1
  Zn  Zn99  1  0.00662067  0.37835954  0.37997931  1
  Zn  Zn100  1  0.87736043  0.62741458  0.25085334  1
  Zn  Zn101  1  0.24836568  0.75235130  -0.00119309  1
  Zn  Zn102  1  -0.00635047  0.50157194  0.00036458  1
  Zn  Zn103  1  0.12820262  0.25437009  0.87103265  1
  Zn  Zn104  1  0.86517157  0.49910455  0.87222957  1
  Zn  Zn105  1  0.63005633  0.86309715  0.76037753  1
  Zn  Zn106  1  0.62554844  0.11950471  0.01222272  1
  Zn  Zn107  1  0.18971653  0.18828494  0.18583022  1
  Zn  Zn108  1  0.18721478  0.18579301  0.68540813  1
  Zn  Zn109  1  0.18497521  0.69226480  0.18902962  1
  Zn  Zn110  1  0.18647933  0.68184511  0.68301089  1
  Zn  Zn111  1  0.68278260  0.18788004  0.19237733  1
  Zn  Zn112  1  0.68450145  0.19064786  0.69813052  1
  Zn  Zn113  1  0.68656640  0.68950524  0.18902227  1
  Zn  Zn114  1  0.69038529  0.69365096  0.69310713  1
  Zn  Zn115  1  0.31187138  0.30774118  0.31325970  1
  Zn  Zn116  1  0.31210604  0.31239009  0.81356510  1
  Zn  Zn117  1  0.31607569  0.81783179  0.31229570  1
  Zn  Zn118  1  0.31128285  0.81169385  0.81239945  1
  Zn  Zn119  1  0.81057244  0.31201461  0.31281075  1
  Zn  Zn120  1  0.81603976  0.31305927  0.80592079  1
  Zn  Zn121  1  0.81258424  0.81153396  0.30901610  1
  Zn  Zn122  1  0.81217625  0.80738931  0.81928085  1
  Zn  Zn123  1  0.18777763  0.43654564  0.43729718  1
  Zn  Zn124  1  0.18602904  0.44140691  0.93835756  1
  Zn  Zn125  1  0.18572601  0.93588192  0.44078348  1
  Zn  Zn126  1  0.18765105  0.93792231  0.94102873  1
  Zn  Zn127  1  0.69160098  0.43772170  0.43900323  1
  Zn  Zn128  1  0.68731929  0.44205190  0.93891260  1
  Zn  Zn129  1  0.69062754  0.94074152  0.44017572  1
  Zn  Zn130  1  0.68368724  0.94029129  0.95002945  1
  Zn  Zn131  1  0.31770949  0.06596979  0.06157302  1
  Zn  Zn132  1  0.31702462  0.06052970  0.56695411  1
  Zn  Zn133  1  0.31198757  0.56204680  0.06165659  1
  Zn  Zn134  1  0.30765783  0.56258103  0.56189081  1
  Zn  Zn135  1  0.81583171  0.06199247  0.05861958  1
  Zn  Zn136  1  0.81639544  0.05780223  0.56136154  1
  Zn  Zn137  1  0.81198300  0.56188464  0.05841047  1
  Zn  Zn138  1  0.81347873  0.55477594  0.56073935  1
  Zn  Zn139  1  0.43910096  0.43762571  0.18847991  1
  Zn  Zn140  1  0.43559918  0.43940696  0.68788854  1
  Zn  Zn141  1  0.43620662  0.93859154  0.19463729  1
  Zn  Zn142  1  0.43746476  0.94216277  0.69110603  1
  Zn  Zn143  1  0.93441410  0.43921716  0.18575623  1
  Zn  Zn144  1  0.93238717  0.44586197  0.68782298  1
  Zn  Zn145  1  0.94049899  0.93922280  0.19079199  1
  Zn  Zn146  1  0.94019382  0.93768441  0.69011481  1
  Zn  Zn147  1  0.06570698  0.05631158  0.30708607  1
  Zn  Zn148  1  0.06080206  0.06262524  0.80965929  1
  Zn  Zn149  1  0.06375465  0.56491043  0.31242867  1
  Zn  Zn150  1  0.05648098  0.56495778  0.80849024  1
  Zn  Zn151  1  0.55894547  0.06421123  0.30986707  1
  Zn  Zn152  1  0.58311269  0.04378184  0.83999720  1
  Zn  Zn153  1  0.56388162  0.55825934  0.31333287  1
  Zn  Zn154  1  0.56363782  0.56064835  0.81471207  1
  Zn  Zn155  1  0.43964772  0.18582667  0.44144593  1
  Zn  Zn156  1  0.44085044  0.18825142  0.94345980  1
  Zn  Zn157  1  0.43590318  0.68893625  0.44207098  1
  Zn  Zn158  1  0.43490717  0.68652056  0.94134823  1
  Zn  Zn159  1  0.93920456  0.19001143  0.43727307  1
  Zn  Zn160  1  0.93874520  0.19252858  0.93461002  1
  Zn  Zn161  1  0.93712392  0.68617992  0.43526191  1
  Zn  Zn162  1  0.93357656  0.69200394  0.93823480  1
  Zn  Zn163  1  0.05960158  0.31086196  0.05876432  1
  Zn  Zn164  1  0.06426620  0.31265531  0.56076224  1
  Zn  Zn165  1  0.06141875  0.81519246  0.05903582  1
  Zn  Zn166  1  0.06481999  0.80574749  0.56024215  1
  Zn  Zn167  1  0.56526885  0.30792334  0.05882259  1
  Zn  Zn168  1  0.56141581  0.31020612  0.56316168  1
  Zn  Zn169  1  0.55547069  0.81483777  0.06088729  1
  Zn  Zn170  1  0.57883259  0.79849260  0.59549157  1
  O  O171  1  0.11904398  0.12427143  0.11912529  1
  O  O172  1  0.11831069  0.11110462  0.62630496  1
  O  O173  1  0.11508517  0.62497751  0.11957165  1
  O  O174  1  0.12941202  0.61736011  0.60783096  1
  O  O175  1  0.61021271  0.12638339  0.12931427  1
  O  O176  1  0.62403001  0.12035604  0.62248818  1
  O  O177  1  0.61142416  0.62770619  0.12187208  1
  O  O178  1  0.62280417  0.61559705  0.62120239  1
  O  O179  1  0.38260376  0.37718223  0.37970371  1
  O  O180  1  0.38314110  0.37729216  0.88091489  1
  O  O181  1  0.38378495  0.88413304  0.38145221  1
  O  O182  1  0.37519273  0.88019736  0.88320527  1
  O  O183  1  0.87319041  0.37976685  0.38389706  1
  O  O184  1  0.88116727  0.37733588  0.87950134  1
  O  O185  1  0.88650883  0.87788215  0.37824402  1
  O  O186  1  0.88133380  0.88441319  0.87282736  1
  O  O187  1  0.26485915  -0.00300118  0.38509126  1
  O  O188  1  0.25479936  0.00498779  0.86877590  1
  O  O189  1  0.25846671  0.50575464  0.36731125  1
  O  O190  1  0.25472490  0.50511593  0.86708347  1
  O  O191  1  0.75700504  0.01126346  0.37114660  1
  O  O192  1  0.76475676  0.01250594  0.86839753  1
  O  O193  1  0.75477705  0.50862586  0.36739059  1
  O  O194  1  0.74652281  0.51904716  0.88031268  1
  O  O195  1  0.24383438  0.49372431  0.13065893  1
  O  O196  1  0.25546377  0.49698268  0.64037975  1
  O  O197  1  0.25513914  0.98904183  0.12401362  1
  O  O198  1  0.24478588  0.99526539  0.63127971  1
  O  O199  1  0.75276114  0.49249966  0.13662576  1
  O  O200  1  0.73627942  0.48916754  0.61971888  1
  O  O201  1  0.75150609  1.00792197  0.13702934  1
  O  O202  1  0.74634908  0.99320961  0.62563045  1
  O  O203  1  0.00523291  0.36582256  0.24920454  1
  O  O204  1  -0.00895602  0.37029583  0.76178660  1
  O  O205  1  0.00689472  0.87809909  0.26442804  1
  O  O206  1  -0.00175111  0.87175835  0.76379314  1
  O  O207  1  0.50853356  0.38158681  0.26123902  1
  O  O208  1  0.50517947  0.38209528  0.76226454  1
  O  O209  1  0.50686574  0.87104122  0.26097511  1
  O  O210  1  0.49109524  0.87277096  0.76428322  1
  O  O211  1  0.48998431  0.12193365  0.23719232  1
  O  O212  1  0.50263032  0.11673189  0.73966070  1
  O  O213  1  0.49692508  0.62798912  0.24451955  1
  O  O214  1  0.48572808  0.61608934  0.74553549  1
  O  O215  1  0.99503340  0.13088780  0.24362743  1
  O  O216  1  0.99520910  0.13217651  0.73881040  1
  O  O217  1  1.00005227  0.62346945  0.23468990  1
  O  O218  1  0.98269440  0.63078247  0.75253432  1
  O  O219  1  0.37342531  0.25906374  0.01042306  1
  O  O220  1  0.36671695  0.25342143  0.50635815  1
  O  O221  1  0.37140832  0.75580892  0.01054488  1
  O  O222  1  0.36892754  0.75903846  0.50669341  1
  O  O223  1  0.87912653  0.26482979  0.00203717  1
  O  O224  1  0.87259225  0.26292294  0.49906353  1
  O  O225  1  0.87167340  0.75142882  0.01588591  1
  O  O226  1  0.87661041  0.76337286  0.49500343  1
  O  O227  1  0.13996650  0.24962311  0.49169261  1
  O  O228  1  0.12852561  0.23812527  0.99834376  1
  O  O229  1  0.13245847  0.73255050  0.49780920  1
  O  O230  1  0.12699075  0.73905377  0.99612873  1
  O  O231  1  0.62200041  0.23815479  0.49231682  1
  O  O232  1  0.62255811  0.24104054  0.98402354  1
  O  O233  1  0.62690827  0.73910219  0.49877999  1
  O  O234  1  0.61962517  0.73685110  1.00606877  1
  O  O235  1  0.48919938  0.25438949  0.12835858  1
  O  O236  1  0.49106347  0.23914451  0.61968808  1
  O  O237  1  0.48895444  0.74301264  0.13151743  1
  O  O238  1  0.48063257  0.73886775  0.61442700  1
  O  O239  1  1.00095816  0.24084925  0.13595797  1
  O  O240  1  0.99895123  0.24094082  0.62667429  1
  O  O241  1  0.99312661  0.73944742  0.12142203  1
  O  O242  1  1.00282929  0.74188681  0.62559643  1
  O  O243  1  0.00883186  0.25069559  0.36470570  1
  O  O244  1  0.00287095  0.26162298  0.86516795  1
  O  O245  1  -0.00123169  0.76091717  0.37140547  1
  O  O246  1  0.00781211  0.75778723  0.87469355  1
  O  O247  1  0.50715263  0.26127039  0.38179335  1
  O  O248  1  0.50657670  0.25996384  0.87839138  1
  O  O249  1  0.50469783  0.75517070  0.37242611  1
  O  O250  1  0.49009654  0.75952684  0.87374670  1
  O  O251  1  0.25570683  0.13451890  0.50139966  1
  O  O252  1  0.24490713  0.12535194  0.99030741  1
  O  O253  1  0.24910593  0.62678339  0.48741215  1
  O  O254  1  0.24151039  0.62559360  0.99307736  1
  O  O255  1  0.74269869  0.11940060  0.49244466  1
  O  O256  1  0.75071538  0.12763110  0.98652536  1
  O  O257  1  0.74414636  0.62363494  0.49190794  1
  O  O258  1  0.73807019  0.62694064  0.99599286  1
  O  O259  1  0.25711638  0.37720327  0.00705056  1
  O  O260  1  0.26360975  0.36827076  0.49763778  1
  O  O261  1  0.25981395  0.87245349  0.00958269  1
  O  O262  1  0.25737733  0.87586884  0.51277745  1
  O  O263  1  0.75349729  0.37917421  0.01006345  1
  O  O264  1  0.75900628  0.37528021  0.50789914  1
  O  O265  1  0.75458895  0.87332076  -0.00474912  1
  O  O266  1  0.76526888  0.87696859  0.50231595  1
  O  O267  1  0.13005541  0.49330721  0.24434948  1
  O  O268  1  0.13926958  0.50886654  0.74936416  1
  O  O269  1  0.12197179  0.98079279  0.24441372  1
  O  O270  1  0.13720706  1.00260787  0.74255076  1
  O  O271  1  0.63426676  0.48663434  0.25685603  1
  O  O272  1  0.61902440  0.48902837  0.74086411  1
  O  O273  1  0.63335113  0.99087642  0.25840636  1
  O  O274  1  0.62065533  0.98870715  0.73934090  1
  O  O275  1  0.37847189  0.01111890  0.26319533  1
  O  O276  1  0.36122590  0.00526881  0.75561058  1
  O  O277  1  0.37026083  0.50660437  0.25488324  1
  O  O278  1  0.36744379  0.50590529  0.75741020  1
  O  O279  1  0.86779692  0.00576276  0.25593464  1
  O  O280  1  0.88645272  0.01377984  0.75897201  1
  O  O281  1  0.86361277  0.50023866  0.25817070  1
  O  O282  1  0.87050094  0.51865631  0.75588909  1
  O  O283  1  0.12555152  0.36664331  0.36641040  1
  O  O284  1  0.11017689  0.37460401  0.88003322  1
  O  O285  1  0.11691590  0.87576053  0.36763731  1
  O  O286  1  0.11954967  0.86430097  0.88171325  1
  O  O287  1  0.61982233  0.36816089  0.37290803  1
  O  O288  1  0.62105119  0.37085305  0.87000003  1
  O  O289  1  0.62070278  0.86870885  0.37697317  1
  O  O290  1  0.60471838  0.87348981  0.87455370  1
  O  O291  1  0.38205333  0.13068414  0.13524628  1
  O  O292  1  0.38630943  0.13087334  0.62813359  1
  O  O293  1  0.38049668  0.63192872  0.13055479  1
  O  O294  1  0.37617786  0.63051877  0.63234841  1
  O  O295  1  0.88232664  0.12925652  0.12996452  1
  O  O296  1  0.88419839  0.12378403  0.62959406  1
  O  O297  1  0.88555496  0.62992486  0.12513101  1
  O  O298  1  0.86424606  0.62551030  0.63518970  1
  O  O299  1  0.26001922  0.25920294  0.12444051  1
  O  O300  1  0.25706341  0.24825792  0.61385353  1
  O  O301  1  0.26253161  0.75633951  0.12721518  1
  O  O302  1  0.25733698  0.75746242  0.62527671  1
  O  O303  1  0.74974301  0.26237614  0.13289691  1
  O  O304  1  0.74861855  0.26034312  0.62705162  1
  O  O305  1  0.76111665  0.74669771  0.12320724  1
  O  O306  1  0.75306746  0.76875019  0.61915370  1
  O  O307  1  0.24591275  0.24918206  0.38816525  1
  O  O308  1  0.24816356  0.24122207  0.87693352  1
  O  O309  1  0.25821035  0.73821581  0.37187365  1
  O  O310  1  0.24168294  0.74289281  0.87628868  1
  O  O311  1  0.74255822  0.23665003  0.37180707  1
  O  O312  1  0.74457847  0.24683254  0.86978434  1
  O  O313  1  0.74653827  0.73705516  0.37620598  1
  O  O314  1  0.74586224  0.73443845  0.88036058  1
  O  O315  1  0.00714083  0.12804346  0.00725928  1
  O  O316  1  -0.00589218  0.11708214  0.51066072  1
  O  O317  1  0.00545785  0.62396032  0.00877147  1
  O  O318  1  0.01392866  0.62407090  0.49169165  1
  O  O319  1  0.49580783  0.13008739  0.02517045  1
  O  O320  1  0.50933029  0.11770819  0.50898531  1
  O  O321  1  0.50292881  0.61786096  0.00696172  1
  O  O322  1  0.50508695  0.61778778  0.50690692  1
  O  O323  1  0.48995424  0.37758522  0.49454142  1
  O  O324  1  0.49688381  0.38164018  0.99462675  1
  O  O325  1  0.49729577  0.88434295  0.49966683  1
  O  O326  1  0.48541652  0.87160996  0.98953095  1
  O  O327  1  0.98385812  0.37101166  0.49670794  1
  O  O328  1  0.99269730  0.37630785  0.98746110  1
  O  O329  1  0.99905125  0.88043098  0.48699266  1
  O  O330  1  0.99537530  0.87811080  0.98801645  1
  O  O331  1  0.49483629  0.49024056  0.38208620  1
  O  O332  1  0.49402428  0.49183307  0.88392704  1
  O  O333  1  0.49747056  0.99862476  0.38886558  1
  O  O334  1  0.48136996  0.99112003  0.86544440  1
  O  O335  1  0.98567868  0.49712345  0.36519226  1
  O  O336  1  0.99762142  0.48910134  0.87566351  1
  O  O337  1  0.99452905  0.99761871  0.38072814  1
  O  O338  1  0.99587539  0.99351136  0.87519156  1
  O  O339  1  -0.00062079  0.01412705  0.12356528  1
  O  O340  1  0.00809701  0.00339819  0.61844569  1
  O  O341  1  0.00535210  0.50952000  0.12319111  1
  O  O342  1  -0.00436784  0.51439969  0.62795640  1
  O  O343  1  0.49820624  0.00605408  0.12525398  1
  O  O344  1  0.50826151  0.00522818  0.61766906  1
  O  O345  1  0.49215192  0.51000189  0.11603110  1
  O  O346  1  0.50739528  0.50449835  0.61958444  1
  O  O347  1  0.24578635  0.37903803  0.24447115  1
  O  O348  1  0.25295258  0.38967582  0.75196202  1
  O  O349  1  0.24168713  0.87367826  0.24490880  1
  O  O350  1  0.25396830  0.88274300  0.73787564  1
  O  O351  1  0.74219349  0.38098960  0.24483077  1
  O  O352  1  0.74319672  0.37571522  0.73765590  1
  O  O353  1  0.73982390  0.88584613  0.25711958  1
  O  O354  1  0.75154571  0.87142422  0.73878255  1
  O  O355  1  0.26676590  0.12441760  0.24499398  1
  O  O356  1  0.25106412  0.11947917  0.76157834  1
  O  O357  1  0.25363214  0.62074910  0.25464577  1
  O  O358  1  0.25899880  0.61577849  0.75482250  1
  O  O359  1  0.75358115  0.11915015  0.25810990  1
  O  O360  1  0.76846722  0.13193217  0.75129205  1
  O  O361  1  0.74729276  0.61596567  0.25701656  1
  O  O362  1  0.75393827  0.62761583  0.75983322  1
  O  O363  1  0.38238315  0.12043782  0.36400668  1
  O  O364  1  0.36900513  0.11934012  0.87722436  1
  O  O365  1  0.37142469  0.61916898  0.36911329  1
  O  O366  1  0.36907134  0.62008592  0.86982489  1
  O  O367  1  0.86834980  0.12182423  0.37104195  1
  O  O368  1  0.87154848  0.12388254  0.86729897  1
  O  O369  1  0.86724499  0.61693834  0.37310692  1
  O  O370  1  0.86102713  0.62270947  0.87646084  1
  O  O371  1  0.12983199  0.37806998  0.12968434  1
  O  O372  1  0.13041618  0.38015384  0.61770355  1
  O  O373  1  0.13566389  0.87659123  0.12855987  1
  O  O374  1  0.13340969  0.88681996  0.61813243  1
  O  O375  1  0.62904873  0.36914177  0.13548798  1
  O  O376  1  0.62925897  0.37893099  0.62952227  1
  O  O377  1  0.61723780  0.87141747  0.13854637  1
  O  O378  1  0.64741164  0.89085539  0.60993059  1
  O  O379  1  0.12082151  0.25414282  0.25530695  1
  O  O380  1  0.11166570  0.24595740  0.74930776  1
  O  O381  1  0.12217715  0.77041388  0.24345226  1
  O  O382  1  0.12420065  0.74184521  0.76050713  1
  O  O383  1  0.62596645  0.26020364  0.26569999  1
  O  O384  1  0.62106263  0.26840033  0.75625429  1
  O  O385  1  0.62027535  0.75736218  0.25920854  1
  O  O386  1  0.60867255  0.76629407  0.70564940  1
  O  O387  1  0.37462455  0.23746836  0.24625541  1
  O  O388  1  0.37038436  0.24845056  0.73640037  1
  O  O389  1  0.38286781  0.74599380  0.24523044  1
  O  O390  1  0.36845859  0.73870798  0.74194256  1
  O  O391  1  0.88385503  0.24433239  0.25028272  1
  O  O392  1  0.88862723  0.24236497  0.74355380  1
  O  O393  1  0.87149019  0.74507045  0.23528976  1
  O  O394  1  0.87267866  0.73181875  0.75763055  1
  O  O395  1  0.37862637  0.49113877  0.49660839  1
  O  O396  1  0.38249500  0.49460084  0.99442597  1
  O  O397  1  0.38587010  0.99623561  0.49800587  1
  O  O398  1  0.36950302  0.99147969  0.99023224  1
  O  O399  1  0.86883198  0.48659778  0.48730189  1
  O  O400  1  0.87565458  0.48681986  0.99739124  1
  O  O401  1  0.88784932  0.99026545  0.49340830  1
  O  O402  1  0.88048327  1.00145445  0.98670181  1
  O  O403  1  0.12383154  0.01333809  0.00473879  1
  O  O404  1  0.11343033  -0.00114836  0.50532624  1
  O  O405  1  0.12296669  0.51309864  0.00672189  1
  O  O406  1  0.13427703  0.51583984  0.49710165  1
  O  O407  1  0.61657554  0.02586345  -0.04983011  1
  O  O408  1  0.62078028  0.01288361  0.50600208  1
  O  O409  1  0.61131947  0.50947632  -0.00041735  1
  O  O410  1  0.61931434  0.50544167  0.50551842  1
  O  O411  1  0.37016525  0.36972092  0.12332754  1
  O  O412  1  0.37433025  0.36648466  0.61746687  1
  O  O413  1  0.37240885  0.86919782  0.12180942  1
  O  O414  1  0.37044903  0.86906339  0.62294050  1
  O  O415  1  0.86525090  0.37255672  0.11771995  1
  O  O416  1  0.86678119  0.37460789  0.61426326  1
  O  O417  1  0.88136946  0.86278052  0.12726825  1
  O  O418  1  0.86608828  0.88522954  0.61702842  1
  O  O419  1  0.12388191  0.13499993  0.36761031  1
  O  O420  1  0.13217360  0.12601456  0.88143000  1
  O  O421  1  0.13635527  0.62124268  0.38030671  1
  O  O422  1  0.12613653  0.63063630  0.88213784  1
  O  O423  1  0.62945057  0.13175982  0.38171894  1
  O  O424  1  0.64440912  0.14270320  0.84630647  1
  O  O425  1  0.63030925  0.62897177  0.38135969  1
  O  O426  1  0.63155616  0.62373309  0.88220898  1
