# generated using pymatgen
data_V85Zn86O256
_symmetry_space_group_name_H-M   'P 1'
_cell_length_a   16.96185187
_cell_length_b   16.97339114
_cell_length_c   16.95752804
_cell_angle_alpha   89.95712454
_cell_angle_beta   90.06711994
_cell_angle_gamma   90.01856658
_symmetry_Int_Tables_number   1
_chemical_formula_structural   V85Zn86O256
_chemical_formula_sum   'V85 Zn86 O256'
_cell_volume   4882.06983080
_cell_formula_units_Z   1
loop_
 _symmetry_equiv_pos_site_id
 _symmetry_equiv_pos_as_xyz
  1  'x, y, z'
loop_
 _atom_site_type_symbol
 _atom_site_label
 _atom_site_symmetry_multiplicity
 _atom_site_fract_x
 _atom_site_fract_y
 _atom_site_fract_z
 _atom_site_occupancy
  V  V0  1  0.87403857  0.75121289  0.62305878  1
  V  V1  1  0.50559794  0.61947484  0.63678462  1
  V  V2  1  0.00142631  0.24674462  0.24982429  1
  V  V3  1  0.12384713  0.87606760  0.74780692  1
  V  V4  1  0.12551626  0.12602955  0.50259454  1
  V  V5  1  0.75171050  0.25369290  -0.00485164  1
  V  V6  1  0.61744761  0.86933851  0.77185944  1
  V  V7  1  0.87476878  0.01059591  0.87255529  1
  V  V8  1  0.62412387  0.61835828  0.50273890  1
  V  V9  1  0.12451101  0.25110584  0.37661077  1
  V  V10  1  -0.00047279  0.50032976  0.49895634  1
  V  V11  1  0.89255365  0.62336329  0.24983439  1
  V  V12  1  -0.00165177  0.75195781  0.74899617  1
  V  V13  1  0.87174120  -0.00133318  0.36964089  1
  V  V14  1  0.87133036  0.87372098  0.49348377  1
  V  V15  1  0.74239443  0.61871469  0.35909319  1
  V  V16  1  0.88367207  0.38144374  -0.00003734  1
  V  V17  1  0.62510547  0.61980368  -0.00674364  1
  V  V18  1  -0.00262508  0.00081394  0.49730335  1
  V  V19  1  0.25292794  0.36880210  0.12163618  1
  V  V20  1  0.25129533  0.49535771  0.25278665  1
  V  V21  1  0.51107058  0.24877308  0.75359700  1
  V  V22  1  -0.00295244  0.62676569  0.62206055  1
  V  V23  1  0.75827076  0.37983356  0.13822996  1
  V  V24  1  0.25382503  0.12658813  0.37492411  1
  V  V25  1  0.87343405  0.87438306  0.00031545  1
  V  V26  1  0.13773180  0.74684830  0.87137681  1
  V  V27  1  0.62228756  0.12886813  0.01710668  1
  V  V28  1  0.12952296  0.24325052  0.87312130  1
  V  V29  1  0.24865731  0.00523894  0.76288704  1
  V  V30  1  -0.00515212  0.24945288  0.75042991  1
  V  V31  1  0.25045465  -0.00731486  0.24619006  1
  V  V32  1  0.50650339  0.74526978  0.24754023  1
  V  V33  1  0.11601023  0.49828026  0.11626696  1
  V  V34  1  0.37224192  0.12850954  0.75259733  1
  V  V35  1  0.87314055  0.37041503  0.50062118  1
  V  V36  1  0.62506103  0.26378893  0.37899639  1
  V  V37  1  0.73175286  -0.00359520  0.24562995  1
  V  V38  1  0.37566387  0.00176188  0.37309004  1
  V  V39  1  0.49564802  0.60991161  0.12533193  1
  V  V40  1  0.73323320  0.87607818  0.12544248  1
  V  V41  1  0.87094026  0.62637659  0.75249265  1
  V  V42  1  0.38502060  0.75194737  0.63824419  1
  V  V43  1  0.73991494  0.13114203  0.87147149  1
  V  V44  1  0.25538687  0.37947096  0.62478238  1
  V  V45  1  0.00533830  -0.00244425  -0.00158575  1
  V  V46  1  0.25032324  0.87738988  0.62447077  1
  V  V47  1  0.87787931  0.25008681  0.12382463  1
  V  V48  1  0.37803941  0.25435990  0.62364285  1
  V  V49  1  0.12589115  0.61795721  -0.01619071  1
  V  V50  1  0.63069648  0.49749200  0.12564893  1
  V  V51  1  0.50128199  0.00095156  0.50038951  1
  V  V52  1  0.50682234  0.87305792  0.36676141  1
  V  V53  1  0.74630651  0.12943074  0.37463509  1
  V  V54  1  0.75210323  0.00580940  0.74848718  1
  V  V55  1  -0.00542697  0.12470527  0.62971105  1
  V  V56  1  0.25598023  0.24401300  -0.00163838  1
  V  V57  1  0.43953207  0.53955531  -0.05965717  1
  V  V58  1  0.00459255  0.12292123  0.12298908  1
  V  V59  1  0.74632088  0.74986639  -0.00853911  1
  V  V60  1  0.12428034  0.62230884  0.49955764  1
  V  V61  1  0.86778330  0.24687082  0.62367300  1
  V  V62  1  0.87980819  0.50472470  0.87912551  1
  V  V63  1  0.36928182  0.74650290  0.12745312  1
  V  V64  1  0.00022888  0.87467049  0.87362377  1
  V  V65  1  0.12380642  0.37257790  0.24839748  1
  V  V66  1  0.48028452  0.37759595  0.39191386  1
  V  V67  1  0.37521523  0.37185030  -0.00933440  1
  V  V68  1  0.12557773  0.37673270  0.74926533  1
  V  V69  1  0.74532788  0.38206766  0.62321070  1
  V  V70  1  0.62571048  0.12903711  0.49854885  1
  V  V71  1  0.13577960  0.11860752  -0.00170444  1
  V  V72  1  0.37785154  0.61516912  0.25891788  1
  V  V73  1  0.12576995  -0.00126721  0.62488305  1
  V  V74  1  0.25305145  0.61750642  0.38001080  1
  V  V75  1  0.25133035  0.74942011  0.49922439  1
  V  V76  1  0.38378336  0.14024286  0.23634242  1
  V  V77  1  0.39049898  0.00429086  0.88034693  1
  V  V78  1  0.25678597  0.50854380  0.76090660  1
  V  V79  1  0.74347652  0.87547812  0.62586975  1
  V  V80  1  0.57691457  0.35166589  0.21467098  1
  V  V81  1  0.51202748  0.37235575  0.87645654  1
  V  V82  1  0.37765351  0.87357049  0.49972840  1
  V  V83  1  0.00211329  0.37339195  0.37648562  1
  V  V84  1  0.25274223  0.25324186  0.50455028  1
  Zn  Zn85  1  0.74781551  0.50173059  0.74867200  1
  Zn  Zn86  1  0.24839370  0.87175258  0.11499069  1
  Zn  Zn87  1  0.25172846  0.74360053  -0.00253265  1
  Zn  Zn88  1  0.39683490  0.85783697  -0.02495349  1
  Zn  Zn89  1  0.50180481  0.12577843  0.62544988  1
  Zn  Zn90  1  0.74694955  0.62700473  0.87358701  1
  Zn  Zn91  1  0.87227321  0.12301672  0.24639590  1
  Zn  Zn92  1  0.62282578  0.00038619  0.62784241  1
  Zn  Zn93  1  0.48852154  0.50167967  0.50489477  1
  Zn  Zn94  1  0.74555188  0.74634169  0.49587912  1
  Zn  Zn95  1  0.62787624  0.37743287  0.75027241  1
  Zn  Zn96  1  0.12605664  0.50236140  0.62805639  1
  Zn  Zn97  1  0.00116819  0.62809781  0.11401653  1
  Zn  Zn98  1  0.09157014  -0.04572083  0.16969794  1
  Zn  Zn99  1  0.51113504  0.00814480  0.02569052  1
  Zn  Zn100  1  0.37699536  0.62755642  0.76542945  1
  Zn  Zn101  1  0.62415653  0.74812538  0.37304864  1
  Zn  Zn102  1  0.00429908  0.86943929  0.34249523  1
  Zn  Zn103  1  0.00146710  0.37732105  0.87735784  1
  Zn  Zn104  1  0.86555935  0.49473130  0.37062771  1
  Zn  Zn105  1  0.12059194  0.75332153  0.35003041  1
  Zn  Zn106  1  0.87573670  0.75160599  0.13224242  1
  Zn  Zn107  1  0.19140249  0.18163294  0.18498026  1
  Zn  Zn108  1  0.18761997  0.18755364  0.68824913  1
  Zn  Zn109  1  0.18714116  0.67420343  0.18610535  1
  Zn  Zn110  1  0.18852390  0.68821932  0.68509083  1
  Zn  Zn111  1  0.69201623  0.19527224  0.19217278  1
  Zn  Zn112  1  0.68806644  0.18665196  0.68462938  1
  Zn  Zn113  1  0.68589808  0.68983104  0.17765575  1
  Zn  Zn114  1  0.68468151  0.69399877  0.68985004  1
  Zn  Zn115  1  0.30892298  0.31109681  0.31259625  1
  Zn  Zn116  1  0.31339549  0.31355700  0.81293415  1
  Zn  Zn117  1  0.31745300  0.80791062  0.31259123  1
  Zn  Zn118  1  0.31400183  0.82166799  0.81075628  1
  Zn  Zn119  1  0.81593326  0.30685743  0.31551263  1
  Zn  Zn120  1  0.81555632  0.31495115  0.81137101  1
  Zn  Zn121  1  0.80721106  0.80673454  0.30845861  1
  Zn  Zn122  1  0.80786788  0.81684368  0.81303020  1
  Zn  Zn123  1  0.30663402  0.44321307  0.44687175  1
  Zn  Zn124  1  0.18657547  0.43297232  0.93500053  1
  Zn  Zn125  1  0.18777422  0.93810802  0.43465127  1
  Zn  Zn126  1  0.19232919  0.92540717  0.94988819  1
  Zn  Zn127  1  0.68796830  0.44372228  0.44656187  1
  Zn  Zn128  1  0.69518568  0.44128262  0.93876090  1
  Zn  Zn129  1  0.68577039  0.93949688  0.43555216  1
  Zn  Zn130  1  0.68801197  0.94841399  0.94233650  1
  Zn  Zn131  1  0.35246107  0.04752412  0.08681270  1
  Zn  Zn132  1  0.31476679  0.06513693  0.56527303  1
  Zn  Zn133  1  0.30062953  0.56278799  0.06736102  1
  Zn  Zn134  1  0.31520665  0.56744669  0.57560598  1
  Zn  Zn135  1  0.81048128  0.06201857  0.06153798  1
  Zn  Zn136  1  0.80971674  0.06295111  0.55899794  1
  Zn  Zn137  1  0.81252793  0.56218365  0.06504273  1
  Zn  Zn138  1  0.81162038  0.56231872  0.55623086  1
  Zn  Zn139  1  0.43017068  0.42972381  0.18454407  1
  Zn  Zn140  1  0.43753393  0.43844970  0.69439321  1
  Zn  Zn141  1  0.46372601  0.91785922  0.16046762  1
  Zn  Zn142  1  0.43899045  0.93954078  0.69078724  1
  Zn  Zn143  1  0.93549506  0.44124284  0.19196198  1
  Zn  Zn144  1  0.93496322  0.43857639  0.68795362  1
  Zn  Zn145  1  0.92234257  0.93987753  0.18270256  1
  Zn  Zn146  1  0.93343331  0.93788440  0.68523826  1
  Zn  Zn147  1  0.06254933  0.06336484  0.31600203  1
  Zn  Zn148  1  0.06297494  0.06430944  0.81210391  1
  Zn  Zn149  1  0.06891145  0.55944326  0.31660299  1
  Zn  Zn150  1  0.05854347  0.56085092  0.80930339  1
  Zn  Zn151  1  0.55810610  0.06802878  0.30928473  1
  Zn  Zn152  1  0.56549273  0.06163549  0.81232076  1
  Zn  Zn153  1  0.56692517  0.54455652  0.31021656  1
  Zn  Zn154  1  0.57090240  0.56010164  0.80309063  1
  Zn  Zn155  1  0.44015230  0.19210762  0.43594165  1
  Zn  Zn156  1  0.43918042  0.18701840  0.93481302  1
  Zn  Zn157  1  0.43898735  0.68375599  0.44120012  1
  Zn  Zn158  1  0.44859622  0.70012764  0.93337084  1
  Zn  Zn159  1  0.93430337  0.18517894  0.43853778  1
  Zn  Zn160  1  0.93859150  0.18799738  0.93736088  1
  Zn  Zn161  1  0.93085036  0.68793415  0.42932690  1
  Zn  Zn162  1  0.94499699  0.69233328  0.94477803  1
  Zn  Zn163  1  0.06620117  0.30884597  0.06058577  1
  Zn  Zn164  1  0.06353001  0.31319508  0.56523165  1
  Zn  Zn165  1  0.06411952  0.79928328  0.16039511  1
  Zn  Zn166  1  0.05928796  0.81194023  0.49157462  1
  Zn  Zn167  1  0.56980284  0.31628715  0.04433651  1
  Zn  Zn168  1  0.56201396  0.31024338  0.56092472  1
  Zn  Zn169  1  0.55953211  0.81578281  0.01499482  1
  Zn  Zn170  1  0.56410493  0.80898816  0.55788583  1
  O  O171  1  0.11314082  0.12733231  0.11420865  1
  O  O172  1  0.11686500  0.11993982  0.62096592  1
  O  O173  1  0.12407250  0.61145870  0.11092072  1
  O  O174  1  0.11400848  0.62511247  0.61989946  1
  O  O175  1  0.62988392  0.13679738  0.11579692  1
  O  O176  1  0.62375599  0.12155631  0.61365895  1
  O  O177  1  0.61531722  0.61348603  0.12037309  1
  O  O178  1  0.61120050  0.63546046  0.62115948  1
  O  O179  1  0.37657726  0.37207308  0.38431069  1
  O  O180  1  0.38002146  0.37597744  0.88523359  1
  O  O181  1  0.38334828  0.88320050  0.38003181  1
  O  O182  1  0.37372602  0.90132924  0.86509219  1
  O  O183  1  0.88230236  0.37385854  0.38356147  1
  O  O184  1  0.87665860  0.38407586  0.88310019  1
  O  O185  1  0.87389515  0.88027952  0.37848974  1
  O  O186  1  0.87602717  0.88611699  0.88278342  1
  O  O187  1  0.25659279  0.00920177  0.37536568  1
  O  O188  1  0.24387209  -0.00137254  0.86270565  1
  O  O189  1  0.24604755  0.50955893  0.36958165  1
  O  O190  1  0.24589124  0.49436669  0.85864690  1
  O  O191  1  0.75375752  0.00381623  0.36544311  1
  O  O192  1  0.75685664  0.01065652  0.86892835  1
  O  O193  1  0.74912292  0.51387990  0.37824496  1
  O  O194  1  0.76470797  0.50619183  0.87268619  1
  O  O195  1  0.23798725  0.48893152  0.13365229  1
  O  O196  1  0.24670728  0.49292150  0.63588016  1
  O  O197  1  0.26221044  0.99531209  0.14311265  1
  O  O198  1  0.24596063  0.99516412  0.62956143  1
  O  O199  1  0.74315997  0.49168718  0.12573805  1
  O  O200  1  0.75942298  0.48439878  0.62475039  1
  O  O201  1  0.75261885  0.98740124  0.13172952  1
  O  O202  1  0.75096619  0.99426128  0.63231551  1
  O  O203  1  0.00379695  0.36771620  0.25543037  1
  O  O204  1  0.00898339  0.36694721  0.74712281  1
  O  O205  1  0.01000813  0.88800070  0.23102622  1
  O  O206  1  0.00440459  0.87280458  0.75299891  1
  O  O207  1  0.49308211  0.37739482  0.27251364  1
  O  O208  1  0.50190139  0.36718329  0.75874594  1
  O  O209  1  0.49356060  0.85895106  0.25462617  1
  O  O210  1  0.52053197  0.88621646  0.74777396  1
  O  O211  1  0.48293421  0.12908926  0.25430756  1
  O  O212  1  0.49534620  0.13244352  0.74835684  1
  O  O213  1  0.49342619  0.61892915  0.24721631  1
  O  O214  1  0.50007173  0.62910319  0.74050216  1
  O  O215  1  1.00031271  0.12734531  0.23988342  1
  O  O216  1  1.00371681  0.13277402  0.73731775  1
  O  O217  1  0.99351371  0.62341776  0.25443223  1
  O  O218  1  0.98811914  0.63082280  0.74170542  1
  O  O219  1  0.36265854  0.25426629  -0.00722895  1
  O  O220  1  0.36926889  0.24313688  0.51618175  1
  O  O221  1  0.37202814  0.73431397  0.02224539  1
  O  O222  1  0.36625428  0.75217670  0.50882819  1
  O  O223  1  0.86958309  0.25546545  0.00554768  1
  O  O224  1  0.88362604  0.26231092  0.50866727  1
  O  O225  1  0.86545755  0.76106384  -0.00468578  1
  O  O226  1  0.86941335  0.75800856  0.50615963  1
  O  O227  1  0.13084231  0.24483593  0.49774551  1
  O  O228  1  0.13152427  0.24233241  0.98983985  1
  O  O229  1  0.14253672  0.73713238  0.51340445  1
  O  O230  1  0.13032204  0.73316722  0.98060141  1
  O  O231  1  0.62163082  0.23676999  0.49311124  1
  O  O232  1  0.64375139  0.24390526  0.99884347  1
  O  O233  1  0.62518264  0.73679193  0.49331175  1
  O  O234  1  0.63526017  0.73325901  1.01063720  1
  O  O235  1  0.51543490  0.30965345  0.14655896  1
  O  O236  1  0.49231951  0.25023426  0.63314519  1
  O  O237  1  0.48583523  0.72721054  0.13436878  1
  O  O238  1  0.48746472  0.74741393  0.62124296  1
  O  O239  1  0.99693493  0.24236279  0.12831166  1
  O  O240  1  0.99360903  0.24311830  0.63048438  1
  O  O241  1  0.98529170  0.74116078  0.10751235  1
  O  O242  1  0.98307635  0.74777806  0.62926482  1
  O  O243  1  0.00471609  0.25109981  0.37052141  1
  O  O244  1  0.00556290  0.25103256  0.86509231  1
  O  O245  1  0.00710159  0.76146978  0.39441380  1
  O  O246  1  0.00601153  0.75833999  0.86648396  1
  O  O247  1  0.50764227  0.26871935  0.38235957  1
  O  O248  1  0.49588351  0.25938368  0.86413259  1
  O  O249  1  0.49662427  0.75655332  0.36607972  1
  O  O250  1  0.48964294  0.79767934  0.92518047  1
  O  O251  1  0.24470807  0.13104252  0.49592470  1
  O  O252  1  0.23731876  0.13042636  1.00650196  1
  O  O253  1  0.24429113  0.62910875  0.49718846  1
  O  O254  1  0.23295619  0.62348819  0.99842894  1
  O  O255  1  0.73985549  0.11675831  0.48414254  1
  O  O256  1  0.74539176  0.13414435  0.99452014  1
  O  O257  1  0.74071168  0.62582249  0.49323810  1
  O  O258  1  0.74291073  0.63307813  1.00151838  1
  O  O259  1  0.25342208  0.36517650  0.00331469  1
  O  O260  1  0.24794544  0.37008263  0.51692808  1
  O  O261  1  0.27293068  0.86162561  -0.00278279  1
  O  O262  1  0.25810097  0.86750665  0.50488927  1
  O  O263  1  0.76321724  0.36855333  0.00603735  1
  O  O264  1  0.76189563  0.37700105  0.51025222  1
  O  O265  1  0.75354287  0.87160310  0.00510926  1
  O  O266  1  0.75801369  0.87580277  0.50427945  1
  O  O267  1  0.13418646  0.49332047  0.24415174  1
  O  O268  1  0.13059505  0.49104922  0.74820498  1
  O  O269  1  0.14464202  1.01016693  0.25420611  1
  O  O270  1  0.13076957  0.99879066  0.74378035  1
  O  O271  1  0.61087180  0.46693953  0.23114601  1
  O  O272  1  0.63576726  0.49052962  0.74940696  1
  O  O273  1  0.63254434  1.00117367  0.25437299  1
  O  O274  1  0.63752571  0.99411639  0.74878028  1
  O  O275  1  0.36331253  0.01573535  0.26791547  1
  O  O276  1  0.36924432  0.01010043  0.75623599  1
  O  O277  1  0.35965696  0.49949088  0.24763041  1
  O  O278  1  0.36095002  0.50477193  0.75043391  1
  O  O279  1  0.86408243  0.00234776  0.26022624  1
  O  O280  1  0.86207979  -0.00552814  0.75817081  1
  O  O281  1  0.87761512  0.51522082  0.25641214  1
  O  O282  1  0.87137374  0.51104386  0.75456499  1
  O  O283  1  0.11671096  0.36416267  0.36510163  1
  O  O284  1  0.12208822  0.36383670  0.86403526  1
  O  O285  1  0.11334641  0.86527457  0.39723558  1
  O  O286  1  0.12091235  0.86542362  0.86823547  1
  O  O287  1  0.62810530  0.36530047  0.38721523  1
  O  O288  1  0.61518030  0.37610818  0.88174271  1
  O  O289  1  0.60986525  0.87288328  0.37841084  1
  O  O290  1  0.62951266  0.88175770  0.87140921  1
  O  O291  1  0.36112871  0.14896895  0.13853122  1
  O  O292  1  0.37869825  0.13256339  0.63603863  1
  O  O293  1  0.37716271  0.61973874  0.13944822  1
  O  O294  1  0.38705420  0.63964655  0.63304920  1
  O  O295  1  0.88679211  0.12991720  0.12251567  1
  O  O296  1  0.88347798  0.13309776  0.61552701  1
  O  O297  1  0.87823493  0.61939663  0.14048946  1
  O  O298  1  0.87616274  0.63305981  0.62896367  1
  O  O299  1  0.23689512  0.25988153  0.11185771  1
  O  O300  1  0.25688572  0.25783819  0.62445173  1
  O  O301  1  0.26323122  0.73734238  0.12654414  1
  O  O302  1  0.26248003  0.75616505  0.62080684  1
  O  O303  1  0.76098541  0.25832272  0.11906015  1
  O  O304  1  0.76468316  0.25410192  0.62741245  1
  O  O305  1  0.75476561  0.76164916  0.11654232  1
  O  O306  1  0.75872762  0.75840999  0.62298353  1
  O  O307  1  0.24423914  0.24390503  0.38403745  1
  O  O308  1  0.24004962  0.25303386  0.88226137  1
  O  O309  1  0.25182663  0.73853339  0.38462100  1
  O  O310  1  0.24031883  0.75146062  0.86533733  1
  O  O311  1  0.74098998  0.23954623  0.36976864  1
  O  O312  1  0.76245516  0.24212944  0.88306849  1
  O  O313  1  0.74389973  0.73513306  0.37453724  1
  O  O314  1  0.75095814  0.74870114  0.88743700  1
  O  O315  1  0.00677827  0.11592529  0.00362573  1
  O  O316  1  0.00473717  0.11942922  0.50779489  1
  O  O317  1  0.01875662  0.62010940  -0.00521173  1
  O  O318  1  0.00280587  0.61934787  0.50195860  1
  O  O319  1  0.51991284  0.13717885  -0.00003967  1
  O  O320  1  0.50640176  0.11662163  0.49796429  1
  O  O321  1  0.50183188  0.61076198  0.00456649  1
  O  O322  1  0.50629642  0.62541996  0.51306069  1
  O  O323  1  0.49651173  0.37822359  0.49569387  1
  O  O324  1  0.48856565  0.37287782  0.98888284  1
  O  O325  1  0.49485080  0.88168369  0.49212650  1
  O  O326  1  0.48676751  0.89548982  1.04481366  1
  O  O327  1  0.99692981  0.38213743  0.49746295  1
  O  O328  1  0.98764306  0.36672332  0.99834869  1
  O  O329  1  0.97821626  0.88821243  0.51379343  1
  O  O330  1  0.98974521  0.88947358  0.99028603  1
  O  O331  1  0.50423917  0.47920475  0.38248922  1
  O  O332  1  0.50017435  0.49048900  0.87113111  1
  O  O333  1  0.49285273  0.99465235  0.38024067  1
  O  O334  1  0.49221232  1.00866001  0.88582809  1
  O  O335  1  1.00286034  0.49325085  0.38761040  1
  O  O336  1  0.98522549  0.49483212  0.86660470  1
  O  O337  1  0.98913394  0.99840933  0.37907314  1
  O  O338  1  0.99263796  0.99708037  0.87725575  1
  O  O339  1  -0.00161735  0.00803924  0.11396055  1
  O  O340  1  0.00193546  0.00927311  0.62125511  1
  O  O341  1  0.01419148  0.49984636  0.12982571  1
  O  O342  1  -0.00092501  0.50491018  0.61366388  1
  O  O343  1  0.45775813  0.02369696  0.12725509  1
  O  O344  1  0.49939855  0.00141982  0.61061053  1
  O  O345  1  0.50213744  0.50473974  0.12728763  1
  O  O346  1  0.49466644  0.51715679  0.62911461  1
  O  O347  1  0.24472549  0.37692789  0.24253089  1
  O  O348  1  0.24400075  0.38102120  0.74334121  1
  O  O349  1  0.25547074  0.89234314  0.26131804  1
  O  O350  1  0.24308768  0.88529294  0.74192522  1
  O  O351  1  0.76437191  0.37321107  0.23770929  1
  O  O352  1  0.75313220  0.37206361  0.73394681  1
  O  O353  1  0.75021526  0.87966558  0.23435917  1
  O  O354  1  0.74175192  0.88403705  0.74265467  1
  O  O355  1  0.25674449  0.12041428  0.26067323  1
  O  O356  1  0.25878308  0.11686680  0.74376653  1
  O  O357  1  0.25650203  0.61251014  0.25962640  1
  O  O358  1  0.25172563  0.61229880  0.74644801  1
  O  O359  1  0.74894216  0.11727247  0.25792707  1
  O  O360  1  0.74747246  0.11840812  0.75703190  1
  O  O361  1  0.74238062  0.62308205  0.25829390  1
  O  O362  1  0.76135660  0.62980513  0.75060349  1
  O  O363  1  0.36402956  0.12004839  0.38273500  1
  O  O364  1  0.37737526  0.11915647  0.86069820  1
  O  O365  1  0.36892969  0.62545478  0.36621401  1
  O  O366  1  0.39264232  0.61741784  0.88276184  1
  O  O367  1  0.86476850  0.11724732  0.37415283  1
  O  O368  1  0.86890442  0.11416936  0.88007322  1
  O  O369  1  0.86218349  0.62209067  0.36432594  1
  O  O370  1  0.87737172  0.62252845  0.86760474  1
  O  O371  1  0.13122650  0.37920854  0.12785993  1
  O  O372  1  0.13279020  0.37409295  0.63698701  1
  O  O373  1  0.13575514  0.87477116  0.10650190  1
  O  O374  1  0.13012300  0.88615932  0.63048003  1
  O  O375  1  0.64214105  0.37823856  0.12058372  1
  O  O376  1  0.64422238  0.36619904  0.61915836  1
  O  O377  1  0.63669726  0.87055857  0.11352977  1
  O  O378  1  0.63759581  0.87799023  0.61729698  1
  O  O379  1  0.12068669  0.25152454  0.25449440  1
  O  O380  1  0.11772127  0.25442900  0.75474312  1
  O  O381  1  0.12613871  0.74732734  0.24021271  1
  O  O382  1  0.11768982  0.75475028  0.75137435  1
  O  O383  1  0.62591946  0.26904942  0.25688697  1
  O  O384  1  0.61413772  0.25391261  0.74447796  1
  O  O385  1  0.60945395  0.74029746  0.24954368  1
  O  O386  1  0.63090614  0.77062010  0.75361066  1
  O  O387  1  0.37373785  0.23668024  0.26309475  1
  O  O388  1  0.37985012  0.24445039  0.74316678  1
  O  O389  1  0.38076867  0.73244913  0.24692340  1
  O  O390  1  0.37244095  0.74978558  0.74131180  1
  O  O391  1  0.88444881  0.24443860  0.24292338  1
  O  O392  1  0.88894845  0.25439038  0.74122706  1
  O  O393  1  0.86925760  0.72946640  0.24980040  1
  O  O394  1  0.87708791  0.74724093  0.74420615  1
  O  O395  1  0.37442634  0.51042719  0.50197794  1
  O  O396  1  0.36855922  0.49185053  1.00159262  1
  O  O397  1  0.38078252  0.99653227  0.49204593  1
  O  O398  1  0.36448738  1.01198200  0.97795470  1
  O  O399  1  0.88359755  0.48958676  0.49590454  1
  O  O400  1  0.87345480  0.49283813  0.99353984  1
  O  O401  1  0.87409395  0.99474263  0.48655050  1
  O  O402  1  0.88064677  0.99613983  0.99136645  1
  O  O403  1  0.11636393  0.00655191  -0.01186067  1
  O  O404  1  0.11898295  0.00716615  0.50672338  1
  O  O405  1  0.12845619  0.50420711  0.00338616  1
  O  O406  1  0.11750681  0.51588438  0.50570931  1
  O  O407  1  0.62705466  0.02287626  0.00472008  1
  O  O408  1  0.61574012  0.00959061  0.49713619  1
  O  O409  1  0.63133265  0.50581974  0.01362460  1
  O  O410  1  0.61838047  0.51470907  0.50442127  1
  O  O411  1  0.35900290  0.37672879  0.11135871  1
  O  O412  1  0.36715207  0.36600967  0.63464772  1
  O  O413  1  0.36527993  0.84816012  0.14349376  1
  O  O414  1  0.37356841  0.86733345  0.62187562  1
  O  O415  1  0.87473090  0.37275178  0.11844777  1
  O  O416  1  0.87072649  0.36698856  0.61833932  1
  O  O417  1  0.86435304  0.87617021  0.10839272  1
  O  O418  1  0.86229408  0.86987507  0.61952159  1
  O  O419  1  0.13529104  0.13002299  0.38220497  1
  O  O420  1  0.11980236  0.13607368  0.88214133  1
  O  O421  1  0.13434877  0.62947337  0.38432084  1
  O  O422  1  0.12264520  0.62923636  0.87536833  1
  O  O423  1  0.62826416  0.13637519  0.37756453  1
  O  O424  1  0.63821020  0.12553540  0.87993285  1
  O  O425  1  0.63050633  0.61959850  0.37798528  1
  O  O426  1  0.62390815  0.61869766  0.88945965  1
