# generated using pymatgen
data_V85Zn86O256
_symmetry_space_group_name_H-M   'P 1'
_cell_length_a   16.96880026
_cell_length_b   16.96838187
_cell_length_c   16.95954229
_cell_angle_alpha   90.00197973
_cell_angle_beta   89.95879586
_cell_angle_gamma   89.95130126
_symmetry_Int_Tables_number   1
_chemical_formula_structural   V85Zn86O256
_chemical_formula_sum   'V85 Zn86 O256'
_cell_volume   4883.21026367
_cell_formula_units_Z   1
loop_
 _symmetry_equiv_pos_site_id
 _symmetry_equiv_pos_as_xyz
  1  'x, y, z'
loop_
 _atom_site_type_symbol
 _atom_site_label
 _atom_site_symmetry_multiplicity
 _atom_site_fract_x
 _atom_site_fract_y
 _atom_site_fract_z
 _atom_site_occupancy
  V  V0  1  0.93366530  0.55626479  0.82120667  1
  V  V1  1  0.00179288  0.24931421  0.75080199  1
  V  V2  1  0.50260341  0.37558925  0.87833143  1
  V  V3  1  0.36738579  0.74652891  0.62145253  1
  V  V4  1  0.00101229  0.75089704  0.24454972  1
  V  V5  1  0.25416887  0.00105009  0.25880827  1
  V  V6  1  0.13420203  0.73235287  0.38360735  1
  V  V7  1  0.36821550  0.87800137  0.49506742  1
  V  V8  1  0.37226351  0.37787121  0.50730539  1
  V  V9  1  0.87450692  0.24860538  0.62606496  1
  V  V10  1  0.26027420  0.12624798  0.38029461  1
  V  V11  1  -0.00878344  0.51548971  0.50950516  1
  V  V12  1  0.75095070  0.37674161  0.12418864  1
  V  V13  1  0.12658769  0.62460946  -0.00415955  1
  V  V14  1  0.62340166  0.12182358  0.00156548  1
  V  V15  1  0.62535463  0.24883070  0.37191058  1
  V  V16  1  0.50734006  0.50016517  0.01049834  1
  V  V17  1  0.73941485  0.37780356  0.63447961  1
  V  V18  1  0.75277001  0.24976079  0.00152055  1
  V  V19  1  0.62890902  0.87088466  0.25660265  1
  V  V20  1  0.49884175  0.75166050  0.74166612  1
  V  V21  1  0.74717026  0.11865188  0.86805341  1
  V  V22  1  0.00076285  0.00170865  0.50126642  1
  V  V23  1  0.38177722  0.50301128  0.88125226  1
  V  V24  1  0.62445212  0.25048065  0.87264874  1
  V  V25  1  0.74978004  0.64215778  0.38172386  1
  V  V26  1  0.12890383  0.87955248  0.74911077  1
  V  V27  1  0.62026223  0.12835887  0.50496952  1
  V  V28  1  0.62156333  -0.00578028  0.12533553  1
  V  V29  1  0.73653982  0.50499999  0.24630121  1
  V  V30  1  0.62221430  0.74407097  0.87161000  1
  V  V31  1  0.12549731  0.74966076  0.86706830  1
  V  V32  1  0.12363984  0.50235726  0.12431809  1
  V  V33  1  0.88015363  0.73590256  0.64704173  1
  V  V34  1  0.36721052  0.49928444  0.37389501  1
  V  V35  1  0.49415047  0.00468903  0.49669522  1
  V  V36  1  0.49895981  0.25007353  0.75118071  1
  V  V37  1  0.75273383  0.88181807  0.62761538  1
  V  V38  1  0.49844972  0.37845525  0.37603884  1
  V  V39  1  -0.01417546  0.23846181  0.23966810  1
  V  V40  1  0.49540543  0.12726439  0.62885489  1
  V  V41  1  0.25215155  0.74686110  0.00005330  1
  V  V42  1  0.87200825  0.86686534  0.50387223  1
  V  V43  1  -0.00174422  0.37421423  0.37301553  1
  V  V44  1  0.87804865  0.86980543  0.00526146  1
  V  V45  1  0.12292833  0.37279286  0.25125447  1
  V  V46  1  0.12496367  0.12812207  0.50029457  1
  V  V47  1  0.86919648  0.50105591  0.37055132  1
  V  V48  1  0.37912204  0.74569612  0.12850778  1
  V  V49  1  0.36785027  0.62566599  0.25596870  1
  V  V50  1  0.24855435  0.12613279  0.88744118  1
  V  V51  1  0.25643302  0.48550831  0.74941503  1
  V  V52  1  0.73951734  0.49372672  0.75867654  1
  V  V53  1  0.36229130  0.12119135  0.75035140  1
  V  V54  1  0.63206206  0.88146987  0.75507471  1
  V  V55  1  0.87341259  -0.00299363  0.87108061  1
  V  V56  1  0.00091408  0.12582444  0.62568739  1
  V  V57  1  0.24481535  0.26045859  0.50725582  1
  V  V58  1  0.00465313  0.00640183  0.00670595  1
  V  V59  1  0.75259741  0.86486274  0.12882181  1
  V  V60  1  0.87394347  0.62992875  0.23954031  1
  V  V61  1  0.87299103  0.00308793  0.37510767  1
  V  V62  1  0.76756586  0.02870806  0.22304244  1
  V  V63  1  0.24725528  0.87714965  0.12872469  1
  V  V64  1  -0.00434864  0.37343756  0.87398984  1
  V  V65  1  0.49919106  0.24522920  0.24655905  1
  V  V66  1  0.75069991  0.74679262  0.00016611  1
  V  V67  1  0.87632670  0.37014830  0.00539475  1
  V  V68  1  0.00125883  0.87211119  0.87023074  1
  V  V69  1  0.25023738  0.87904420  0.62582191  1
  V  V70  1  0.12888366  0.25189950  0.88109530  1
  V  V71  1  0.74778851  0.25205507  0.50226193  1
  V  V72  1  0.37634136  0.87482561  0.00077550  1
  V  V73  1  0.36795628  0.24508918  0.12212734  1
  V  V74  1  0.25874581  0.62448551  0.86646300  1
  V  V75  1  0.75110617  0.12188523  0.38154689  1
  V  V76  1  0.24616291  0.36940422  0.11656150  1
  V  V77  1  0.87173202  0.37489181  0.50128288  1
  V  V78  1  0.36838593  -0.00318779  0.87200091  1
  V  V79  1  0.62268425  0.37515245  0.24164526  1
  V  V80  1  0.00535901  0.87381898  0.37715624  1
  V  V81  1  -0.00781905  0.50188063  0.00179062  1
  V  V82  1  0.49884175  0.87993781  0.37445858  1
  V  V83  1  0.75294595  0.62365592  0.86579314  1
  V  V84  1  0.87368669  0.12170705  0.75072746  1
  Zn  Zn85  1  0.49875662  0.87527354  0.87469622  1
  Zn  Zn86  1  0.13786582  0.50510843  0.60878989  1
  Zn  Zn87  1  0.37231747  0.37136459  0.00268535  1
  Zn  Zn88  1  0.62854027  0.62105003  0.00754875  1
  Zn  Zn89  1  0.42168976  0.58915865  0.70781011  1
  Zn  Zn90  1  0.24544313  0.50299654  0.24820229  1
  Zn  Zn91  1  0.50902371  0.61183031  0.14247632  1
  Zn  Zn92  1  0.12409379  0.13521721  0.01197539  1
  Zn  Zn93  1  0.36754543  0.25450588  0.63078976  1
  Zn  Zn94  1  0.50259814  0.74803465  0.25654547  1
  Zn  Zn95  1  0.56011083  0.55586434  0.54196021  1
  Zn  Zn96  1  0.12308523  0.25348115  0.37549108  1
  Zn  Zn97  1  -0.00141733  0.63282017  0.12180430  1
  Zn  Zn98  1  0.12083272  0.00962493  0.13595893  1
  Zn  Zn99  1  0.62855947  0.00547886  0.63306634  1
  Zn  Zn100  1  0.37856056  0.12031714  0.25489634  1
  Zn  Zn101  1  0.12907331  0.00275574  0.63071783  1
  Zn  Zn102  1  0.49803069  0.12146829  0.12725836  1
  Zn  Zn103  1  0.12737030  0.87363488  0.25478621  1
  Zn  Zn104  1  0.59326674  0.71522707  0.42812789  1
  Zn  Zn105  1  0.49658656  -0.00130634  0.00098526  1
  Zn  Zn106  1  0.12801706  0.37811788  0.74310157  1
  Zn  Zn107  1  0.18331952  0.18725456  0.19195014  1
  Zn  Zn108  1  0.18602691  0.19160513  0.68961613  1
  Zn  Zn109  1  0.18609393  0.68933790  0.18993392  1
  Zn  Zn110  1  0.17734001  0.66848698  0.55796199  1
  Zn  Zn111  1  0.69931272  0.18541025  0.18241771  1
  Zn  Zn112  1  0.68558067  0.19042937  0.68890436  1
  Zn  Zn113  1  0.68380716  0.68672474  0.18892009  1
  Zn  Zn114  1  0.69624998  0.70263662  0.57098168  1
  Zn  Zn115  1  0.30856861  0.31198762  0.31143233  1
  Zn  Zn116  1  0.31731250  0.30853013  0.82146814  1
  Zn  Zn117  1  0.31171713  0.81224921  0.31644326  1
  Zn  Zn118  1  0.31200816  0.81004008  0.80763535  1
  Zn  Zn119  1  0.81097664  0.31095719  0.31054860  1
  Zn  Zn120  1  0.81510520  0.31149966  0.81658231  1
  Zn  Zn121  1  0.81908243  0.81758681  0.30916753  1
  Zn  Zn122  1  0.81141973  0.81129792  0.81192628  1
  Zn  Zn123  1  0.19490129  0.47560776  0.45230005  1
  Zn  Zn124  1  0.18451299  0.43917458  0.93379104  1
  Zn  Zn125  1  0.18674773  0.94062647  0.43914980  1
  Zn  Zn126  1  0.18947894  0.93823183  0.93848747  1
  Zn  Zn127  1  0.68695550  0.44238879  0.43312245  1
  Zn  Zn128  1  0.68597764  0.43780260  0.93404525  1
  Zn  Zn129  1  0.68376886  0.93488089  0.44467865  1
  Zn  Zn130  1  0.68900425  0.93469426  0.93878929  1
  Zn  Zn131  1  0.31019887  0.06043007  0.06771144  1
  Zn  Zn132  1  0.31084062  0.06177333  0.56370445  1
  Zn  Zn133  1  0.31437805  0.56161803  0.06382164  1
  Zn  Zn134  1  0.32042303  0.55471469  0.56180545  1
  Zn  Zn135  1  0.80890772  0.05594127  0.05324925  1
  Zn  Zn136  1  0.81249025  0.05861747  0.56266958  1
  Zn  Zn137  1  0.80998610  0.56067687  0.06304659  1
  Zn  Zn138  1  0.80453778  0.56119949  0.56814412  1
  Zn  Zn139  1  0.43219971  0.43373638  0.18997097  1
  Zn  Zn140  1  0.45264717  0.43214661  0.68687541  1
  Zn  Zn141  1  0.43508988  0.93657427  0.19032942  1
  Zn  Zn142  1  0.43800318  0.93777961  0.68772910  1
  Zn  Zn143  1  0.93550976  0.43721873  0.18778774  1
  Zn  Zn144  1  0.93720992  0.43340671  0.68464329  1
  Zn  Zn145  1  0.93740893  0.93517218  0.18883050  1
  Zn  Zn146  1  0.94247279  0.93678159  0.68863498  1
  Zn  Zn147  1  0.06757482  0.06387947  0.31441834  1
  Zn  Zn148  1  0.06355319  0.06140732  0.81713642  1
  Zn  Zn149  1  0.05729214  0.56103184  0.31269230  1
  Zn  Zn150  1  0.11346985  0.61129863  0.75106303  1
  Zn  Zn151  1  0.56909448  0.05901609  0.31263433  1
  Zn  Zn152  1  0.55385845  0.06063960  0.81617085  1
  Zn  Zn153  1  0.54591279  0.57699169  0.34648800  1
  Zn  Zn154  1  0.59057740  0.58282977  0.70155922  1
  Zn  Zn155  1  0.43665515  0.19838063  0.44096080  1
  Zn  Zn156  1  0.43650554  0.18476287  0.94065179  1
  Zn  Zn157  1  0.42626662  0.68738920  0.43940598  1
  Zn  Zn158  1  0.44341646  0.68555307  0.93866861  1
  Zn  Zn159  1  0.93711240  0.18948592  0.43374101  1
  Zn  Zn160  1  0.93610474  0.18792623  0.93833141  1
  Zn  Zn161  1  0.93407036  0.69080634  0.42927014  1
  Zn  Zn162  1  0.94032392  0.69296230  0.94016463  1
  Zn  Zn163  1  0.05882505  0.31053241  0.06632948  1
  Zn  Zn164  1  0.06427469  0.32343850  0.56497462  1
  Zn  Zn165  1  0.06605368  0.81466376  0.05977190  1
  Zn  Zn166  1  0.05865778  0.80798875  0.56498066  1
  Zn  Zn167  1  0.56237412  0.31101995  0.06265518  1
  Zn  Zn168  1  0.57841608  0.35374505  0.54206500  1
  Zn  Zn169  1  0.56271192  0.80735880  0.06412408  1
  Zn  Zn170  1  0.55804558  0.82227654  0.56855420  1
  O  O171  1  0.12857106  0.12146359  0.12254487  1
  O  O172  1  0.12050023  0.12604526  0.61663715  1
  O  O173  1  0.12331231  0.61713578  0.11854906  1
  O  O174  1  0.12595278  0.61379995  0.64099384  1
  O  O175  1  0.62773355  0.11440296  0.11637643  1
  O  O176  1  0.61557316  0.12600832  0.62265196  1
  O  O177  1  0.61715877  0.63302838  0.11967996  1
  O  O178  1  0.63717875  0.61618964  0.60698027  1
  O  O179  1  0.38062346  0.37669138  0.37803545  1
  O  O180  1  0.38728029  0.37735157  0.88324059  1
  O  O181  1  0.38258486  0.87409241  0.38467838  1
  O  O182  1  0.37075243  0.88026657  0.88284889  1
  O  O183  1  0.87347472  0.38291670  0.38091392  1
  O  O184  1  0.88774007  0.36841842  0.88814156  1
  O  O185  1  0.88368573  0.88222907  0.38490924  1
  O  O186  1  0.88176057  0.88033294  0.88096729  1
  O  O187  1  0.24694522  0.01251819  0.37184375  1
  O  O188  1  0.26013988  0.00757306  0.87813696  1
  O  O189  1  0.26383541  0.48585702  0.36378083  1
  O  O190  1  0.26610258  0.50313893  0.87809200  1
  O  O191  1  0.75844394  0.00747863  0.37938104  1
  O  O192  1  0.76063592  0.00712257  0.88259652  1
  O  O193  1  0.75670671  0.50556552  0.36697255  1
  O  O194  1  0.75316113  0.50343302  0.86830037  1
  O  O195  1  0.23635246  0.49341736  0.12439202  1
  O  O196  1  0.26588078  0.49501831  0.64941012  1
  O  O197  1  0.24716858  0.99067299  0.13439214  1
  O  O198  1  0.24655765  0.98570573  0.62173479  1
  O  O199  1  0.75030195  0.48910000  0.13287606  1
  O  O200  1  0.75845814  0.48935771  0.64573955  1
  O  O201  1  0.73775075  0.97949247  0.11819229  1
  O  O202  1  0.74815655  0.98965076  0.62668610  1
  O  O203  1  0.00213425  0.37087709  0.25634928  1
  O  O204  1  -0.00278399  0.36811439  0.75988218  1
  O  O205  1  0.00079403  0.86890550  0.26021614  1
  O  O206  1  0.00622756  0.87732451  0.76468510  1
  O  O207  1  0.50623416  0.36613825  0.25267594  1
  O  O208  1  0.49658247  0.35764457  0.76141131  1
  O  O209  1  0.50914550  0.88067858  0.25943629  1
  O  O210  1  0.50808316  0.86897062  0.75261662  1
  O  O211  1  0.50134569  0.13107579  0.25000848  1
  O  O212  1  0.48939951  0.13096596  0.74779329  1
  O  O213  1  0.48646497  0.62908503  0.25710119  1
  O  O214  1  0.50837967  0.64714014  0.75714806  1
  O  O215  1  1.00327165  0.14080313  0.26003235  1
  O  O216  1  0.99601906  0.12968847  0.74657471  1
  O  O217  1  0.99115588  0.63277968  0.24862999  1
  O  O218  1  0.99679544  0.61152843  0.77076633  1
  O  O219  1  0.38176974  0.25079006  0.01749743  1
  O  O220  1  0.36151675  0.26010389  0.50355927  1
  O  O221  1  0.37132638  0.75393064  0.00782494  1
  O  O222  1  0.38228453  0.76392815  0.51210887  1
  O  O223  1  0.86720350  0.25738530  -0.00166029  1
  O  O224  1  0.86660547  0.25626337  0.50352930  1
  O  O225  1  0.86852246  0.76238388  -0.00260620  1
  O  O226  1  0.87725613  0.76723015  0.49577521  1
  O  O227  1  0.12793711  0.24800371  0.49927310  1
  O  O228  1  0.11410195  0.25028614  0.98549521  1
  O  O229  1  0.12249918  0.74553461  0.49057123  1
  O  O230  1  0.13366804  0.74450588  0.99287481  1
  O  O231  1  0.63044157  0.25074372  0.49352561  1
  O  O232  1  0.62934837  0.24048890  0.99223636  1
  O  O233  1  0.63929517  0.77796233  0.50576946  1
  O  O234  1  0.63559706  0.75461898  0.99059234  1
  O  O235  1  0.49548177  0.24781786  0.13556853  1
  O  O236  1  0.49584115  0.23683377  0.63702085  1
  O  O237  1  0.48536572  0.75473895  0.13140110  1
  O  O238  1  0.48688854  0.75931896  0.63230523  1
  O  O239  1  0.99789688  0.25046604  0.14000874  1
  O  O240  1  0.99415051  0.24545877  0.63101467  1
  O  O241  1  1.00898674  0.75262506  0.13922699  1
  O  O242  1  0.97690851  0.75732979  0.62336666  1
  O  O243  1  -0.00201264  0.26430173  0.37011631  1
  O  O244  1  0.00399165  0.25498900  0.86915776  1
  O  O245  1  0.00800235  0.75727616  0.36793846  1
  O  O246  1  0.01300908  0.76180929  0.88552480  1
  O  O247  1  0.50379829  0.25541631  0.36185631  1
  O  O248  1  0.50526472  0.25241089  0.87300240  1
  O  O249  1  0.50034888  0.76892010  0.37541209  1
  O  O250  1  0.50823704  0.75485020  0.87232500  1
  O  O251  1  0.24240533  0.13346916  0.49821525  1
  O  O252  1  0.24856587  0.12179654  0.99010515  1
  O  O253  1  0.22342712  0.57339253  0.51162181  1
  O  O254  1  0.24509622  0.62768432  0.99355735  1
  O  O255  1  0.74246228  0.12970039  0.49683673  1
  O  O256  1  0.73989845  0.12745500  0.98866330  1
  O  O257  1  0.75512767  0.62678774  0.48480557  1
  O  O258  1  0.75425008  0.63449222  0.99382248  1
  O  O259  1  0.24646924  0.37782791  0.01291795  1
  O  O260  1  0.26312820  0.37363497  0.49554410  1
  O  O261  1  0.25885621  0.86933064  0.00751943  1
  O  O262  1  0.26247740  0.88171636  0.50376377  1
  O  O263  1  0.75713677  0.37396911  0.00473851  1
  O  O264  1  0.75733498  0.37388753  0.50923458  1
  O  O265  1  0.75833285  0.86427819  0.00424822  1
  O  O266  1  0.76672777  0.88633370  0.50785008  1
  O  O267  1  0.12050835  0.49152823  0.24111546  1
  O  O268  1  0.15287762  0.49680781  0.76729307  1
  O  O269  1  0.13665709  0.99415472  0.25339959  1
  O  O270  1  0.12017802  0.98493246  0.75096394  1
  O  O271  1  0.63495227  0.49182355  0.25748918  1
  O  O272  1  0.64075451  0.49596895  0.76011795  1
  O  O273  1  0.64122518  0.99673245  0.23819285  1
  O  O274  1  0.61725199  0.98546990  0.75516259  1
  O  O275  1  0.36000503  0.00239855  0.24773879  1
  O  O276  1  0.37864111  0.00870665  0.75975695  1
  O  O277  1  0.37166973  0.50699375  0.25516044  1
  O  O278  1  0.37487984  0.49719894  0.76433697  1
  O  O279  1  0.86636224  -0.00639319  0.26247910  1
  O  O280  1  0.88215748  0.00471200  0.76413403  1
  O  O281  1  0.86520257  0.50605573  0.25515495  1
  O  O282  1  0.87562036  0.50034017  0.75884716  1
  O  O283  1  0.11075295  0.37916777  0.36576902  1
  O  O284  1  0.11196638  0.36899674  0.87454905  1
  O  O285  1  0.11267326  0.87153540  0.38042870  1
  O  O286  1  0.12094801  0.87118101  0.87160879  1
  O  O287  1  0.61821535  0.36621761  0.36044315  1
  O  O288  1  0.61354703  0.36253520  0.88154353  1
  O  O289  1  0.61780472  0.88669776  0.36551189  1
  O  O290  1  0.62618423  0.86837917  0.86880273  1
  O  O291  1  0.37676044  0.13066946  0.13054455  1
  O  O292  1  0.37762342  0.12669433  0.63495791  1
  O  O293  1  0.38076375  0.63171073  0.13240534  1
  O  O294  1  0.37163684  0.64139662  0.61705317  1
  O  O295  1  0.80429470  0.10361908  0.15593872  1
  O  O296  1  0.87898542  0.12874755  0.63092311  1
  O  O297  1  0.87751321  0.62150004  0.13583153  1
  O  O298  1  0.86520600  0.63912887  0.62532297  1
  O  O299  1  0.25718468  0.25699603  0.13234339  1
  O  O300  1  0.24858533  0.24998739  0.61235057  1
  O  O301  1  0.25969880  0.75573499  0.12145395  1
  O  O302  1  0.26379164  0.76047536  0.61644021  1
  O  O303  1  0.74450379  0.26729148  0.11656918  1
  O  O304  1  0.75705403  0.25431997  0.62229641  1
  O  O305  1  0.74728254  0.75813196  0.11676649  1
  O  O306  1  0.77164973  0.77194173  0.62569154  1
  O  O307  1  0.24480712  0.24491310  0.38682362  1
  O  O308  1  0.24047426  0.24090224  0.87486316  1
  O  O309  1  0.23181051  0.75181985  0.37375439  1
  O  O310  1  0.24888087  0.74248144  0.88034769  1
  O  O311  1  0.74531979  0.24425481  0.38261186  1
  O  O312  1  0.74147575  0.24284776  0.88009511  1
  O  O313  1  0.75955104  0.74039329  0.37167944  1
  O  O314  1  0.74706506  0.74253377  0.88094758  1
  O  O315  1  -0.00291495  0.10861302  -0.00384124  1
  O  O316  1  0.00654241  0.12370850  0.50406131  1
  O  O317  1  0.00608354  0.61789670  0.00112884  1
  O  O318  1  -0.01163056  0.61322900  0.49158907  1
  O  O319  1  0.51282285  0.12196946  0.00316058  1
  O  O320  1  0.49917228  0.12487006  0.50922952  1
  O  O321  1  0.50111289  0.60708324  0.00178867  1
  O  O322  1  0.52056381  0.62543842  0.45685018  1
  O  O323  1  0.48006176  0.35200602  0.48368891  1
  O  O324  1  0.49979367  0.38244839  0.99624186  1
  O  O325  1  0.49187686  0.88846248  0.49510005  1
  O  O326  1  0.48557488  0.87328473  1.00083827  1
  O  O327  1  0.98148547  0.37346531  0.49187611  1
  O  O328  1  0.99348748  0.38122997  0.99662864  1
  O  O329  1  0.99169304  0.88201251  0.49551083  1
  O  O330  1  0.99380816  0.88142383  0.99350657  1
  O  O331  1  0.48619600  0.48145868  0.36344549  1
  O  O332  1  0.49187872  0.48857290  0.88613505  1
  O  O333  1  0.50217539  0.99438836  0.38439811  1
  O  O334  1  0.48367707  0.99617305  0.88137704  1
  O  O335  1  0.98289967  0.49098168  0.37453015  1
  O  O336  1  0.99422033  0.49150538  0.88312970  1
  O  O337  1  0.99402509  0.99390191  0.37932130  1
  O  O338  1  0.99336994  0.99239367  0.88609931  1
  O  O339  1  0.00044182  -0.00757790  0.11108111  1
  O  O340  1  0.00297539  0.00922422  0.61913457  1
  O  O341  1  0.00932454  0.50035497  0.11821437  1
  O  O342  1  -0.01717790  0.50483773  0.60966672  1
  O  O343  1  0.51091888  -0.00132996  0.12491841  1
  O  O344  1  0.50082376  0.01360091  0.62152248  1
  O  O345  1  0.49531628  0.49473111  0.11371896  1
  O  O346  1  0.49908117  0.52353398  0.64348260  1
  O  O347  1  0.23700619  0.37547559  0.23982926  1
  O  O348  1  0.25386015  0.38216015  0.76070296  1
  O  O349  1  0.25010779  0.88155410  0.24549489  1
  O  O350  1  0.24087169  0.87012007  0.73933897  1
  O  O351  1  0.74333342  0.38082682  0.24307192  1
  O  O352  1  0.75795887  0.38471852  0.74943433  1
  O  O353  1  0.74680745  0.87896079  0.24197410  1
  O  O354  1  0.73890667  0.87603303  0.74776121  1
  O  O355  1  0.24974282  0.12003577  0.26520388  1
  O  O356  1  0.25915154  0.12933701  0.75815315  1
  O  O357  1  0.26283265  0.62203261  0.24223327  1
  O  O358  1  0.25849622  0.61253629  0.76643214  1
  O  O359  1  0.72929570  0.12268052  0.27653851  1
  O  O360  1  0.75364806  0.12805729  0.76220887  1
  O  O361  1  0.75698600  0.62001895  0.25289500  1
  O  O362  1  0.75157578  0.60999533  0.76480775  1
  O  O363  1  0.36331775  0.13221656  0.37842455  1
  O  O364  1  0.36705914  0.11882618  0.87175716  1
  O  O365  1  0.37037704  0.61278910  0.36999021  1
  O  O366  1  0.37205727  0.61431439  0.88344578  1
  O  O367  1  0.86438262  0.11510992  0.38257617  1
  O  O368  1  0.86657792  0.11704812  0.87205107  1
  O  O369  1  0.86507925  0.61870829  0.36368575  1
  O  O370  1  0.87333877  0.62031811  0.87893048  1
  O  O371  1  0.12720551  0.38116912  0.13049944  1
  O  O372  1  0.11678676  0.39418769  0.63136447  1
  O  O373  1  0.13947852  0.87523032  0.12650526  1
  O  O374  1  0.13121491  0.87221712  0.63271329  1
  O  O375  1  0.62980881  0.37334942  0.13572980  1
  O  O376  1  0.64093783  0.36111275  0.63685084  1
  O  O377  1  0.62964003  0.87819562  0.13153135  1
  O  O378  1  0.63440112  0.88033447  0.64039789  1
  O  O379  1  0.11528221  0.26307020  0.25409680  1
  O  O380  1  0.11761894  0.25367280  0.76077039  1
  O  O381  1  0.11804055  0.75220448  0.26185602  1
  O  O382  1  0.12583191  0.76006517  0.76577844  1
  O  O383  1  0.61968378  0.25498395  0.25129027  1
  O  O384  1  0.61514556  0.23988557  0.76622855  1
  O  O385  1  0.62394789  0.76737297  0.24897990  1
  O  O386  1  0.61684094  0.76646449  0.75967810  1
  O  O387  1  0.38333608  0.24766712  0.24231894  1
  O  O388  1  0.38154498  0.24019152  0.75146455  1
  O  O389  1  0.37428560  0.74382400  0.24538340  1
  O  O390  1  0.38220039  0.75534164  0.73379049  1
  O  O391  1  0.88611124  0.25064408  0.25267214  1
  O  O392  1  0.88177270  0.24146812  0.74774457  1
  O  O393  1  0.88681570  0.74179688  0.25430771  1
  O  O394  1  0.87741341  0.74709352  0.74755548  1
  O  O395  1  0.38067344  0.48504742  0.49003468  1
  O  O396  1  0.38472002  0.49466842  0.99710993  1
  O  O397  1  0.38673355  0.99519782  0.50576751  1
  O  O398  1  0.37379239  0.99015362  0.99653936  1
  O  O399  1  0.87496924  0.49329802  0.49164082  1
  O  O400  1  0.88718171  0.49335494  1.00591195  1
  O  O401  1  0.88301107  0.99537082  0.49110127  1
  O  O402  1  0.88256697  0.99077896  0.99230955  1
  O  O403  1  0.10961274  -0.00153225  -0.00092134  1
  O  O404  1  0.11738408  0.01100021  0.50321374  1
  O  O405  1  0.11379044  0.50493300  0.00388117  1
  O  O406  1  0.09006190  0.48693031  0.49463736  1
  O  O407  1  0.62278972  0.00383171  0.00645698  1
  O  O408  1  0.61141320  0.00927200  0.50643457  1
  O  O409  1  0.61032847  0.49870875  -0.00354003  1
  O  O410  1  0.59896824  0.45855826  0.49617890  1
  O  O411  1  0.36211609  0.36645874  0.12627120  1
  O  O412  1  0.38559344  0.37343977  0.60988988  1
  O  O413  1  0.36548322  0.86939156  0.12006671  1
  O  O414  1  0.36783847  0.87197669  0.61868905  1
  O  O415  1  0.86750109  0.37875409  0.11360840  1
  O  O416  1  0.86840457  0.36605033  0.61757085  1
  O  O417  1  0.86548757  0.87950992  0.11635262  1
  O  O418  1  0.87273054  0.88187087  0.61494656  1
  O  O419  1  0.13097676  0.12973630  0.38994273  1
  O  O420  1  0.13301305  0.13217210  0.87814086  1
  O  O421  1  0.12369340  0.63346517  0.37180460  1
  O  O422  1  0.13762362  0.63495743  0.87426055  1
  O  O423  1  0.62642591  0.13084629  0.38818241  1
  O  O424  1  0.62953612  0.12600645  0.88123186  1
  O  O425  1  0.64701862  0.63315505  0.36133891  1
  O  O426  1  0.63815607  0.63891080  0.88372826  1
