# generated using pymatgen
data_V85Zn86O256
_symmetry_space_group_name_H-M   'P 1'
_cell_length_a   16.93114161
_cell_length_b   16.93111747
_cell_length_c   16.91443876
_cell_angle_alpha   89.97095412
_cell_angle_beta   89.98810224
_cell_angle_gamma   90.00058243
_symmetry_Int_Tables_number   1
_chemical_formula_structural   V85Zn86O256
_chemical_formula_sum   'V85 Zn86 O256'
_cell_volume   4848.74552459
_cell_formula_units_Z   1
loop_
 _symmetry_equiv_pos_site_id
 _symmetry_equiv_pos_as_xyz
  1  'x, y, z'
loop_
 _atom_site_type_symbol
 _atom_site_label
 _atom_site_symmetry_multiplicity
 _atom_site_fract_x
 _atom_site_fract_y
 _atom_site_fract_z
 _atom_site_occupancy
  V  V0  1  -0.00431801  0.87911516  0.38634219  1
  V  V1  1  0.75381952  0.24795788  0.00115152  1
  V  V2  1  0.24688582  0.87286270  0.12640015  1
  V  V3  1  0.00486653  0.13158548  0.12069299  1
  V  V4  1  0.86906589  0.25239544  0.62600943  1
  V  V5  1  0.25857433  0.62042517  0.87594939  1
  V  V6  1  0.89239657  0.12166742  0.25046257  1
  V  V7  1  0.25034881  0.00062959  0.75361824  1
  V  V8  1  0.62671262  0.62427485  -0.00074541  1
  V  V9  1  0.87135942  0.88425811  -0.00831682  1
  V  V10  1  0.63219242  0.37460959  0.73923738  1
  V  V11  1  0.50117602  0.25040849  0.74837686  1
  V  V12  1  0.76495849  0.87881195  0.61886993  1
  V  V13  1  0.24693616  0.12345018  0.38304014  1
  V  V14  1  0.25598204  0.61753200  0.37636349  1
  V  V15  1  0.74788426  0.75536545  0.00359858  1
  V  V16  1  0.24496312  0.36896634  0.12679317  1
  V  V17  1  0.50146542  -0.00322686  0.49616654  1
  V  V18  1  0.74786399  0.12244291  0.36290986  1
  V  V19  1  0.87672316  0.37572290  -0.00133905  1
  V  V20  1  0.12418045  0.00458784  0.11660578  1
  V  V21  1  0.50046064  0.50793301  0.49742698  1
  V  V22  1  0.00187252  0.50150490  0.00041014  1
  V  V23  1  0.61575398  0.12394536  0.01081001  1
  V  V24  1  0.50707758  0.24506526  0.24880681  1
  V  V25  1  0.24358683  -0.00062013  0.25092705  1
  V  V26  1  0.62721895  0.24947478  0.87435244  1
  V  V27  1  0.87409079  0.62974074  0.24835590  1
  V  V28  1  0.74852205  0.50066130  0.24991159  1
  V  V29  1  0.75152268  -0.00224325  0.75971754  1
  V  V30  1  0.50852996  0.37375603  0.37472366  1
  V  V31  1  0.00596805  0.37416612  0.36025640  1
  V  V32  1  0.49628411  0.37988704  0.87290279  1
  V  V33  1  0.74459232  0.25242510  0.49512063  1
  V  V34  1  0.87681618  0.50863930  0.87173040  1
  V  V35  1  0.25899188  0.50065265  0.75194809  1
  V  V36  1  -0.00001483  0.49959344  0.50162741  1
  V  V37  1  0.12108330  0.74893640  0.37217918  1
  V  V38  1  0.62508271  0.12661988  0.48872870  1
  V  V39  1  0.00115528  0.25482927  0.74764120  1
  V  V40  1  0.75015934  0.37654381  0.12541016  1
  V  V41  1  0.12147443  0.62418943  0.50428856  1
  V  V42  1  0.87164370  0.12332421  0.75522665  1
  V  V43  1  0.62989976  0.50858324  0.61908005  1
  V  V44  1  0.62222025  0.74768604  0.86654558  1
  V  V45  1  0.24940094  0.74876414  0.00146248  1
  V  V46  1  0.73814475  0.62610812  0.38105584  1
  V  V47  1  0.12437545  0.75211607  0.87195737  1
  V  V48  1  0.68832306  0.93497357  0.18086515  1
  V  V49  1  0.12113534  0.50118246  0.62768552  1
  V  V50  1  0.24795989  0.87511514  0.62612724  1
  V  V51  1  0.37511446  0.37712866  0.48997487  1
  V  V52  1  0.62470731  0.49884634  0.12528278  1
  V  V53  1  0.50057899  0.62271687  0.12935378  1
  V  V54  1  0.37577078  0.24982132  0.62069312  1
  V  V55  1  0.12445970  0.49769765  0.13348843  1
  V  V56  1  0.62640520  -0.00111447  0.62564402  1
  V  V57  1  0.37508835  0.12681958  0.24420964  1
  V  V58  1  0.12599025  0.62457564  0.00213691  1
  V  V59  1  0.25726304  0.49272780  0.25376202  1
  V  V60  1  0.25091315  0.74658161  0.50056797  1
  V  V61  1  0.62269055  0.76486484  0.38030473  1
  V  V62  1  0.37282741  0.12709642  0.75335911  1
  V  V63  1  0.37703736  0.00445076  0.87779078  1
  V  V64  1  0.38289946  -0.00214842  0.37144667  1
  V  V65  1  0.12667350  0.23425938  0.87479260  1
  V  V66  1  0.50474451  0.76044363  0.25410009  1
  V  V67  1  0.87380660  0.50135263  0.37422972  1
  V  V68  1  0.37720057  0.87361866  -0.00014672  1
  V  V69  1  0.36907420  0.37729306  -0.00489416  1
  V  V70  1  0.00004487  0.00505906  -0.01390784  1
  V  V71  1  0.24886406  0.37486907  0.62370426  1
  V  V72  1  0.87541168  -0.00251912  0.39011952  1
  V  V73  1  0.50021293  0.87200448  0.86720436  1
  V  V74  1  0.87342013  0.76408276  0.12591348  1
  V  V75  1  0.24698005  0.23480340  -0.00415110  1
  V  V76  1  0.87109120  0.37646154  0.50337001  1
  V  V77  1  0.11791664  0.24202212  0.36969657  1
  V  V78  1  0.87979588  0.73525215  0.61935667  1
  V  V79  1  0.75518500  0.50236095  0.74523879  1
  V  V80  1  0.37472310  0.74540575  0.12889234  1
  V  V81  1  0.49749957  0.49766425  -0.00140730  1
  V  V82  1  0.37826237  0.87298540  0.49425027  1
  V  V83  1  0.38384052  0.74748983  0.63287638  1
  V  V84  1  -0.00848816  0.73898521  0.74969938  1
  Zn  Zn85  1  -0.00451828  0.87777743  0.87046268  1
  Zn  Zn86  1  0.75113056  0.11753388  0.88100030  1
  Zn  Zn87  1  0.38598856  0.62415687  0.75695749  1
  Zn  Zn88  1  0.12682509  0.37629679  0.75433829  1
  Zn  Zn89  1  0.12425371  0.01182986  0.60782713  1
  Zn  Zn90  1  0.50384011  -0.00294064  0.01382962  1
  Zn  Zn91  1  0.50183931  0.12447917  0.62265342  1
  Zn  Zn92  1  0.37998900  0.61917719  0.25894347  1
  Zn  Zn93  1  0.37701531  0.24787417  0.12241555  1
  Zn  Zn94  1  -0.00017801  0.62958751  0.12667702  1
  Zn  Zn95  1  0.24037947  0.24398992  0.50342802  1
  Zn  Zn96  1  -0.00405308  0.75560979  0.25060727  1
  Zn  Zn97  1  0.74934125  0.75021619  0.50116832  1
  Zn  Zn98  1  0.11983685  0.87459136  0.74595488  1
  Zn  Zn99  1  0.62915093  0.36983910  0.25419395  1
  Zn  Zn100  1  0.11818860  0.87621321  0.24955163  1
  Zn  Zn101  1  0.00603003  0.37603616  0.87627485  1
  Zn  Zn102  1  0.62386098  0.87086387  0.74642326  1
  Zn  Zn103  1  0.51009263  0.63118977  0.62856828  1
  Zn  Zn104  1  0.88349072  0.25435432  0.13632536  1
  Zn  Zn105  1  0.75367224  0.62713565  0.87214585  1
  Zn  Zn106  1  0.00504748  0.12276304  0.61386430  1
  Zn  Zn107  1  0.18373118  0.18662126  0.19223284  1
  Zn  Zn108  1  0.18750821  0.18585277  0.68950605  1
  Zn  Zn109  1  0.18841444  0.68211904  0.19132587  1
  Zn  Zn110  1  0.18929156  0.68670155  0.68873688  1
  Zn  Zn111  1  0.69194520  0.19060519  0.18692155  1
  Zn  Zn112  1  0.68933520  0.18423827  0.68279697  1
  Zn  Zn113  1  0.68783522  0.69458956  0.18966649  1
  Zn  Zn114  1  0.69546309  0.68573547  0.68709280  1
  Zn  Zn115  1  0.30935504  0.30760033  0.31260782  1
  Zn  Zn116  1  0.30905190  0.31086343  0.81307709  1
  Zn  Zn117  1  0.31231598  0.80881807  0.31219922  1
  Zn  Zn118  1  0.31207897  0.81262575  0.81342305  1
  Zn  Zn119  1  0.81607203  0.30890253  0.31441365  1
  Zn  Zn120  1  0.81314785  0.31687038  0.81483562  1
  Zn  Zn121  1  0.80786055  0.81942121  0.31288365  1
  Zn  Zn122  1  0.81074084  0.81162825  0.81111024  1
  Zn  Zn123  1  0.18459257  0.43246639  0.43733022  1
  Zn  Zn124  1  0.18578797  0.43458608  0.93658307  1
  Zn  Zn125  1  0.19165702  0.93060743  0.43390250  1
  Zn  Zn126  1  0.18892881  0.93937273  0.93602087  1
  Zn  Zn127  1  0.68666070  0.43782922  0.43817447  1
  Zn  Zn128  1  0.68835783  0.43706589  0.93348824  1
  Zn  Zn129  1  0.69122647  0.94119519  0.43482570  1
  Zn  Zn130  1  0.68333148  0.93576901  0.94488305  1
  Zn  Zn131  1  0.31739235  0.05884453  0.06377340  1
  Zn  Zn132  1  0.31210800  0.06060225  0.56528042  1
  Zn  Zn133  1  0.31303632  0.55821643  0.06493303  1
  Zn  Zn134  1  0.31431104  0.56089869  0.56284496  1
  Zn  Zn135  1  0.81499276  0.06311413  0.06685030  1
  Zn  Zn136  1  0.81367003  0.06917573  0.56512381  1
  Zn  Zn137  1  0.81332145  0.56695293  0.06226851  1
  Zn  Zn138  1  0.80918132  0.56239822  0.56197599  1
  Zn  Zn139  1  0.43445357  0.43081649  0.18664451  1
  Zn  Zn140  1  0.44133580  0.43892175  0.68264908  1
  Zn  Zn141  1  0.43459799  0.93452877  0.18737257  1
  Zn  Zn142  1  0.43762848  0.93664922  0.68547020  1
  Zn  Zn143  1  0.93472412  0.44247380  0.18412489  1
  Zn  Zn144  1  0.93708070  0.43756181  0.68609023  1
  Zn  Zn145  1  0.93950672  0.94376928  0.19315985  1
  Zn  Zn146  1  0.94073081  0.93755178  0.69028900  1
  Zn  Zn147  1  0.05788885  0.06266247  0.44278266  1
  Zn  Zn148  1  0.05314371  0.05631179  0.78243132  1
  Zn  Zn149  1  0.06261043  0.56353908  0.31331602  1
  Zn  Zn150  1  0.06661360  0.56370016  0.81397887  1
  Zn  Zn151  1  0.55977639  0.06112870  0.19138227  1
  Zn  Zn152  1  0.56130242  0.06251662  0.81388008  1
  Zn  Zn153  1  0.56128202  0.55949114  0.31379396  1
  Zn  Zn154  1  0.56374823  0.56210955  0.80859742  1
  Zn  Zn155  1  0.43834450  0.18639279  0.43215941  1
  Zn  Zn156  1  0.43641809  0.19233109  0.93619317  1
  Zn  Zn157  1  0.44050737  0.68856561  0.43880016  1
  Zn  Zn158  1  0.44065856  0.68827964  0.93913164  1
  Zn  Zn159  1  0.93156029  0.19330047  0.43294146  1
  Zn  Zn160  1  0.93983080  0.18746919  0.93470278  1
  Zn  Zn161  1  0.93577848  0.68647182  0.43777827  1
  Zn  Zn162  1  0.93839047  0.69038344  0.94064855  1
  Zn  Zn163  1  0.06701045  0.31089125  0.05709676  1
  Zn  Zn164  1  0.06074890  0.30817363  0.55838711  1
  Zn  Zn165  1  0.05797150  0.81659869  0.06111178  1
  Zn  Zn166  1  0.06121124  0.81341660  0.56457512  1
  Zn  Zn167  1  0.56194998  0.31057836  0.06437650  1
  Zn  Zn168  1  0.56204974  0.31386026  0.56012922  1
  Zn  Zn169  1  0.56127105  0.81194240  0.06148469  1
  Zn  Zn170  1  0.56581835  0.81680310  0.55931367  1
  O  O171  1  0.11829694  0.11588147  0.12816547  1
  O  O172  1  0.12175754  0.12650192  0.62503137  1
  O  O173  1  0.12472649  0.61680833  0.11907526  1
  O  O174  1  0.13073806  0.61775525  0.61236898  1
  O  O175  1  0.62324636  0.13176909  0.11430828  1
  O  O176  1  0.62646889  0.11169191  0.61463480  1
  O  O177  1  0.61914699  0.62057307  0.11983759  1
  O  O178  1  0.62951083  0.61351776  0.62411575  1
  O  O179  1  0.37845280  0.37002020  0.38695271  1
  O  O180  1  0.38407914  0.36963805  0.88092945  1
  O  O181  1  0.36722225  0.88086937  0.38668417  1
  O  O182  1  0.38253596  0.87765763  0.88032190  1
  O  O183  1  0.88348943  0.38082960  0.38303660  1
  O  O184  1  0.87754666  0.38431438  0.88770393  1
  O  O185  1  0.87784773  0.88898915  0.37354180  1
  O  O186  1  0.87554709  0.87006128  0.88775721  1
  O  O187  1  0.25659994  0.00411394  0.36659974  1
  O  O188  1  0.26908741  -0.00796641  0.87015723  1
  O  O189  1  0.24156652  0.50462994  0.36606079  1
  O  O190  1  0.24435176  0.50835720  0.86522663  1
  O  O191  1  0.76260778  0.00960021  0.37825882  1
  O  O192  1  0.74190512  -0.00212776  0.86311825  1
  O  O193  1  0.75311978  0.50759451  0.36962778  1
  O  O194  1  0.75972247  0.50075822  0.86832338  1
  O  O195  1  0.24314008  0.49186361  0.13233223  1
  O  O196  1  0.24084209  0.49488349  0.62962973  1
  O  O197  1  0.24494463  0.99341613  0.12852122  1
  O  O198  1  0.25118792  0.99116776  0.63465736  1
  O  O199  1  0.74637662  0.49589710  0.12973734  1
  O  O200  1  0.74413266  0.49793736  0.63103754  1
  O  O201  1  0.74540760  0.99388090  0.12005034  1
  O  O202  1  0.74648203  0.99241251  0.62988898  1
  O  O203  1  -0.00868322  0.37965633  0.26213878  1
  O  O204  1  -0.00007268  0.36528062  0.75211091  1
  O  O205  1  0.00083014  0.87381195  0.26266851  1
  O  O206  1  0.00257446  0.86050333  0.75485886  1
  O  O207  1  0.49925680  0.36791963  0.25919288  1
  O  O208  1  0.50715250  0.37092005  0.75581275  1
  O  O209  1  0.49177113  0.85847246  0.25275766  1
  O  O210  1  0.50203626  0.87825811  0.76219591  1
  O  O211  1  0.49230281  0.13808704  0.25256009  1
  O  O212  1  0.49163673  0.13167684  0.74638164  1
  O  O213  1  0.49812179  0.62776959  0.24311916  1
  O  O214  1  0.49682735  0.61848545  0.74165313  1
  O  O215  1  0.99246288  0.12356232  0.23964160  1
  O  O216  1  0.98622502  0.14528169  0.75323763  1
  O  O217  1  0.98502701  0.62649267  0.25163803  1
  O  O218  1  1.00549306  0.63989575  0.75173006  1
  O  O219  1  0.36698112  0.25935305  0.00031264  1
  O  O220  1  0.37384800  0.25592051  0.50717017  1
  O  O221  1  0.36959172  0.75384453  0.00784715  1
  O  O222  1  0.37216592  0.75745156  0.50501221  1
  O  O223  1  0.86844148  0.25867163  -0.00032848  1
  O  O224  1  0.86683685  0.25930575  0.50570598  1
  O  O225  1  0.86760781  0.75683432  0.00665044  1
  O  O226  1  0.87498359  0.74753065  0.51525630  1
  O  O227  1  0.12863010  0.26376482  0.47896077  1
  O  O228  1  0.13238751  0.24702341  0.98492477  1
  O  O229  1  0.12782590  0.74068532  0.49378744  1
  O  O230  1  0.12902660  0.74356072  0.99507846  1
  O  O231  1  0.63372408  0.24082735  0.50770296  1
  O  O232  1  0.63133340  0.24393676  0.99414561  1
  O  O233  1  0.62403272  0.75005702  0.48503888  1
  O  O234  1  0.63114293  0.74399240  0.99446038  1
  O  O235  1  0.49420915  0.25988467  0.14290418  1
  O  O236  1  0.49265891  0.24922635  0.63052570  1
  O  O237  1  0.49678092  0.74365532  0.13624515  1
  O  O238  1  0.48725996  0.75218051  0.61799801  1
  O  O239  1  1.00221588  0.23692302  0.11679359  1
  O  O240  1  0.98784971  0.25381538  0.63132118  1
  O  O241  1  0.98968992  0.74891395  0.12781913  1
  O  O242  1  0.98821792  0.75273180  0.63506711  1
  O  O243  1  0.00695901  0.26299872  0.37452717  1
  O  O244  1  0.01066278  0.25367726  0.86960816  1
  O  O245  1  0.00576308  0.75398941  0.37402019  1
  O  O246  1  0.00648079  0.74867382  0.86608409  1
  O  O247  1  0.49437375  0.25904871  0.36090497  1
  O  O248  1  0.50752723  0.25998661  0.86828008  1
  O  O249  1  0.51150730  0.74344965  0.36537231  1
  O  O250  1  0.51025048  0.75799646  0.88006641  1
  O  O251  1  0.25783290  0.12400407  0.48668758  1
  O  O252  1  0.25861321  0.13605987  1.00106890  1
  O  O253  1  0.24249804  0.62613131  0.49505051  1
  O  O254  1  0.24500659  0.62726949  0.99553199  1
  O  O255  1  0.74432656  0.13279713  0.49398843  1
  O  O256  1  0.74241769  0.13368615  0.99991548  1
  O  O257  1  0.75462074  0.62955760  0.48632220  1
  O  O258  1  0.74086512  0.63110636  0.99721779  1
  O  O259  1  0.25569848  0.36820060  0.00452176  1
  O  O260  1  0.25824465  0.37787451  0.51029471  1
  O  O261  1  0.25669620  0.86784202  0.00569367  1
  O  O262  1  0.25946444  0.86645253  0.50711348  1
  O  O263  1  0.75678296  0.37026702  0.00468373  1
  O  O264  1  0.75906069  0.36626775  0.49147056  1
  O  O265  1  0.75743725  0.86715006  -0.00185670  1
  O  O266  1  0.74558476  0.87282700  0.51614585  1
  O  O267  1  0.13203464  0.50554617  0.23795944  1
  O  O268  1  0.13397155  0.50027310  0.74164406  1
  O  O269  1  0.13958328  0.99798713  0.23752968  1
  O  O270  1  0.14771050  0.99200653  0.76734842  1
  O  O271  1  0.63207246  0.49633574  0.24330306  1
  O  O272  1  0.63351446  0.49113079  0.74171255  1
  O  O273  1  0.63525726  0.99682951  0.24408657  1
  O  O274  1  0.63141677  1.00043410  0.74098627  1
  O  O275  1  0.36495289  0.00403750  0.25649113  1
  O  O276  1  0.37185393  0.00726434  0.75496316  1
  O  O277  1  0.36150008  0.50091672  0.24557504  1
  O  O278  1  0.36223180  0.50107509  0.74059046  1
  O  O279  1  0.87563105  0.01637232  0.25758851  1
  O  O280  1  0.86411019  0.01128644  0.74679920  1
  O  O281  1  0.86712111  0.50868987  0.25380131  1
  O  O282  1  0.86871213  0.49225802  0.75943382  1
  O  O283  1  0.11002635  0.37354648  0.37161392  1
  O  O284  1  0.12360227  0.36572247  0.87179536  1
  O  O285  1  0.11896187  0.86299131  0.37155645  1
  O  O286  1  0.12719722  0.85917634  0.87660919  1
  O  O287  1  0.61297489  0.37414083  0.37433643  1
  O  O288  1  0.61887290  0.36460407  0.86899164  1
  O  O289  1  0.62728264  0.86356350  0.37660533  1
  O  O290  1  0.61673351  0.86631670  0.87565567  1
  O  O291  1  0.36607975  0.12871153  0.14027388  1
  O  O292  1  0.37652591  0.13645276  0.62955590  1
  O  O293  1  0.38305482  0.63035314  0.12453470  1
  O  O294  1  0.37313693  0.64232966  0.62255487  1
  O  O295  1  0.88404526  0.12692327  0.13548647  1
  O  O296  1  0.87545570  0.13616449  0.63720814  1
  O  O297  1  0.87583052  0.63490137  0.13293065  1
  O  O298  1  0.87251186  0.63671555  0.62613699  1
  O  O299  1  0.24547505  0.25507545  0.11609613  1
  O  O300  1  0.25697922  0.25875709  0.62349196  1
  O  O301  1  0.25392794  0.75143195  0.12206603  1
  O  O302  1  0.25854011  0.75561386  0.61927829  1
  O  O303  1  0.75373277  0.25778118  0.11443073  1
  O  O304  1  0.76144989  0.24733891  0.61473617  1
  O  O305  1  0.75709920  0.74471318  0.11132464  1
  O  O306  1  0.76392439  0.75919517  0.62680654  1
  O  O307  1  0.24192191  0.23967586  0.37807479  1
  O  O308  1  0.23729834  0.24929326  0.87990497  1
  O  O309  1  0.24133367  0.74165217  0.38143614  1
  O  O310  1  0.24431537  0.74288224  0.88064762  1
  O  O311  1  0.75527215  0.23928677  0.38731770  1
  O  O312  1  0.74267239  0.25402574  0.88702346  1
  O  O313  1  0.73709481  0.74576375  0.37462922  1
  O  O314  1  0.74321794  0.74790750  0.88514848  1
  O  O315  1  -0.00783694  0.11543272  0.00738254  1
  O  O316  1  -0.01090933  0.12834059  0.50102196  1
  O  O317  1  0.00956098  0.61976985  0.00181740  1
  O  O318  1  0.00709638  0.60940231  0.49241461  1
  O  O319  1  0.51404988  0.13202340  -0.00229127  1
  O  O320  1  0.50606166  0.11560627  0.49884808  1
  O  O321  1  0.50637684  0.61849279  0.00767819  1
  O  O322  1  0.49587042  0.61129757  0.50381550  1
  O  O323  1  0.49336122  0.37852325  0.49199863  1
  O  O324  1  0.49235067  0.37592610  0.99268786  1
  O  O325  1  0.49260981  0.88781300  0.50206000  1
  O  O326  1  0.49176252  0.87548154  0.99067253  1
  O  O327  1  0.99328255  0.38562432  0.49170750  1
  O  O328  1  0.99224039  0.38256034  1.00117263  1
  O  O329  1  1.00104906  0.86901446  0.48655457  1
  O  O330  1  0.99130793  0.88536904  0.99432809  1
  O  O331  1  0.50197077  0.49005306  0.38469211  1
  O  O332  1  0.50810443  0.48599839  0.88112639  1
  O  O333  1  0.48411243  1.00147565  0.38184320  1
  O  O334  1  0.49131115  0.99199899  0.87750369  1
  O  O335  1  0.99589803  0.49130003  0.37962259  1
  O  O336  1  0.99553578  0.49904458  0.88089114  1
  O  O337  1  0.98497362  0.99346910  0.37633440  1
  O  O338  1  1.00869108  1.00159386  0.88305254  1
  O  O339  1  0.00893145  0.00807451  0.11747964  1
  O  O340  1  0.02033761  0.01320377  0.66754376  1
  O  O341  1  0.00846559  0.50348309  0.11973210  1
  O  O342  1  0.01264511  0.49542665  0.61825350  1
  O  O343  1  0.48667273  0.00838539  0.12498742  1
  O  O344  1  0.50798197  0.00118449  0.61691288  1
  O  O345  1  0.50422665  0.50206357  0.11983739  1
  O  O346  1  0.51244633  0.49842755  0.61502977  1
  O  O347  1  0.25339246  0.37980562  0.24056436  1
  O  O348  1  0.25095500  0.38156686  0.73844449  1
  O  O349  1  0.24923324  0.88062997  0.24365541  1
  O  O350  1  0.25425269  0.88128584  0.74074638  1
  O  O351  1  0.75172896  0.37976417  0.24480612  1
  O  O352  1  0.74037189  0.38508643  0.75641760  1
  O  O353  1  0.74525449  0.86892664  0.23500124  1
  O  O354  1  0.74840092  0.88205451  0.73964747  1
  O  O355  1  0.25508529  0.11776921  0.26011052  1
  O  O356  1  0.26550234  0.11748282  0.74718568  1
  O  O357  1  0.25284834  0.61431920  0.26012216  1
  O  O358  1  0.25459274  0.61834757  0.75873627  1
  O  O359  1  0.75315529  0.12937113  0.26088658  1
  O  O360  1  0.75369699  0.11613623  0.75160511  1
  O  O361  1  0.75827859  0.62212339  0.25493534  1
  O  O362  1  0.74785267  0.60818107  0.75453709  1
  O  O363  1  0.36729007  0.11694969  0.36600677  1
  O  O364  1  0.38297981  0.11717257  0.86622697  1
  O  O365  1  0.35971054  0.62764425  0.37988838  1
  O  O366  1  0.36286774  0.62953185  0.87717095  1
  O  O367  1  0.87027521  0.11701170  0.36630360  1
  O  O368  1  0.86696256  0.13564652  0.86075808  1
  O  O369  1  0.86665245  0.62035254  0.36727180  1
  O  O370  1  0.87477069  0.61211108  0.88283196  1
  O  O371  1  0.13615886  0.38287207  0.11811701  1
  O  O372  1  0.13359064  0.38182525  0.62524069  1
  O  O373  1  0.13071591  0.88116731  0.12679725  1
  O  O374  1  0.13927582  0.87279879  0.62626191  1
  O  O375  1  0.63426538  0.38077177  0.12515980  1
  O  O376  1  0.62212350  0.37939581  0.63603521  1
  O  O377  1  0.62125118  0.88362492  0.12187063  1
  O  O378  1  0.63231218  0.88523216  0.62657833  1
  O  O379  1  0.13080377  0.25398724  0.26968847  1
  O  O380  1  0.11835395  0.25380099  0.75757731  1
  O  O381  1  0.12306460  0.74557054  0.26329064  1
  O  O382  1  0.11831362  0.74997381  0.75639969  1
  O  O383  1  0.61157263  0.25048809  0.24766288  1
  O  O384  1  0.62428814  0.25529387  0.75426348  1
  O  O385  1  0.61186781  0.74769089  0.25870842  1
  O  O386  1  0.63371205  0.74990339  0.76285545  1
  O  O387  1  0.38089410  0.24131645  0.24934937  1
  O  O388  1  0.37850152  0.24443800  0.74354625  1
  O  O389  1  0.38500609  0.74303088  0.24774688  1
  O  O390  1  0.37232274  0.75001187  0.73531367  1
  O  O391  1  0.87207249  0.23083083  0.25137233  1
  O  O392  1  0.87673060  0.25130588  0.74237245  1
  O  O393  1  0.87121796  0.74534242  0.24276366  1
  O  O394  1  0.88492122  0.74931264  0.74370904  1
  O  O395  1  0.38636798  0.48751683  0.51027544  1
  O  O396  1  0.38047425  0.48563931  1.00270099  1
  O  O397  1  0.38027848  0.99255060  0.49570256  1
  O  O398  1  0.37810010  0.99238321  0.99259561  1
  O  O399  1  0.88082665  0.49568955  0.49543482  1
  O  O400  1  0.88078109  0.49456592  0.99605414  1
  O  O401  1  0.87121784  1.00351267  0.48936406  1
  O  O402  1  0.88457557  0.99344649  1.00288692  1
  O  O403  1  0.11847649  -0.00465596  0.00898089  1
  O  O404  1  0.12648579  -0.00689768  0.49648703  1
  O  O405  1  0.12252494  0.50602164  0.00877954  1
  O  O406  1  0.11862078  0.50389239  0.50628041  1
  O  O407  1  0.62077033  0.02078033  -0.00834746  1
  O  O408  1  0.61759702  0.00400347  0.50348340  1
  O  O409  1  0.61978630  0.50425537  0.00472929  1
  O  O410  1  0.61625553  0.49251327  0.50950658  1
  O  O411  1  0.36117845  0.37136939  0.11564239  1
  O  O412  1  0.37056582  0.36475213  0.61911835  1
  O  O413  1  0.36683102  0.86453569  0.11996872  1
  O  O414  1  0.36873290  0.86633348  0.61686951  1
  O  O415  1  0.86969969  0.37444082  0.11501248  1
  O  O416  1  0.87729565  0.37087088  0.61073027  1
  O  O417  1  0.88206275  0.86669468  0.11706827  1
  O  O418  1  0.86708064  0.87139400  0.62830943  1
  O  O419  1  0.12987557  0.13500606  0.37588763  1
  O  O420  1  0.11980531  0.13702474  0.86230077  1
  O  O421  1  0.13185919  0.62845590  0.38496789  1
  O  O422  1  0.13552414  0.63413380  0.88145192  1
  O  O423  1  0.63468172  0.12031247  0.38767510  1
  O  O424  1  0.62663360  0.13920412  0.87870552  1
  O  O425  1  0.63566768  0.63052528  0.36804296  1
  O  O426  1  0.62474766  0.63097693  0.88359476  1
