# generated using pymatgen
data_V85Zn86O256
_symmetry_space_group_name_H-M   'P 1'
_cell_length_a   16.94253681
_cell_length_b   16.95897447
_cell_length_c   16.94017741
_cell_angle_alpha   89.97341795
_cell_angle_beta   90.05719654
_cell_angle_gamma   89.94625412
_symmetry_Int_Tables_number   1
_chemical_formula_structural   V85Zn86O256
_chemical_formula_sum   'V85 Zn86 O256'
_cell_volume   4867.38303732
_cell_formula_units_Z   1
loop_
 _symmetry_equiv_pos_site_id
 _symmetry_equiv_pos_as_xyz
  1  'x, y, z'
loop_
 _atom_site_type_symbol
 _atom_site_label
 _atom_site_symmetry_multiplicity
 _atom_site_fract_x
 _atom_site_fract_y
 _atom_site_fract_z
 _atom_site_occupancy
  V  V0  1  0.36468206  0.49929795  0.37361770  1
  V  V1  1  0.75772981  0.61748131  0.87507063  1
  V  V2  1  0.62630265  0.62029397  0.00781935  1
  V  V3  1  0.12673894  0.12685528  0.00012588  1
  V  V4  1  0.75055811  0.25173779  0.49852429  1
  V  V5  1  0.87720058  0.87514315  0.00513189  1
  V  V6  1  0.38169458  0.49833255  0.87656846  1
  V  V7  1  0.62351487  0.12282966  0.49838717  1
  V  V8  1  0.75760896  0.38913649  0.12646899  1
  V  V9  1  0.12301447  0.88202367  0.25018409  1
  V  V10  1  0.74842139  -0.00371117  0.24946666  1
  V  V11  1  0.36967876  0.62571638  0.24784969  1
  V  V12  1  0.49873538  0.37621062  0.37213768  1
  V  V13  1  0.15324009  0.75247368  0.87413677  1
  V  V14  1  0.37590316  0.13842319  0.24601866  1
  V  V15  1  0.87428900  0.12911406  0.24656108  1
  V  V16  1  0.75042887  0.12523130  0.37292216  1
  V  V17  1  0.37440248  0.87631012  0.48192722  1
  V  V18  1  0.38202316  0.36729971  0.00022070  1
  V  V19  1  0.36831432  0.37514067  0.49840821  1
  V  V20  1  0.25195471  0.24863275  0.49921715  1
  V  V21  1  -0.00409209  0.25529126  0.25221152  1
  V  V22  1  0.62593463  0.74803428  0.87609334  1
  V  V23  1  0.24865175  0.86611610  0.12108836  1
  V  V24  1  0.62669745  0.62305670  0.49694013  1
  V  V25  1  0.87414467  0.74710822  0.62848239  1
  V  V26  1  0.87358871  0.12138829  0.75104718  1
  V  V27  1  0.00648670  0.11778631  0.62479653  1
  V  V28  1  0.49720716  -0.00416076  0.48584687  1
  V  V29  1  0.26384983  0.00094495  0.24666872  1
  V  V30  1  -0.00047311  0.12990104  0.12581030  1
  V  V31  1  0.36930808  0.62563432  0.75264036  1
  V  V32  1  0.62723514  0.25613448  0.88120600  1
  V  V33  1  0.89013318  0.38063202  0.49521324  1
  V  V34  1  0.61836936  0.87426793  0.25478102  1
  V  V35  1  0.62355547  0.25225300  0.36874748  1
  V  V36  1  0.12270971  0.25410036  0.37498959  1
  V  V37  1  0.50039781  0.62197733  0.12686479  1
  V  V38  1  0.10706597  0.72937614  0.34332191  1
  V  V39  1  0.24182396  0.75344418  0.50411774  1
  V  V40  1  0.11623613  0.62682551  0.50769669  1
  V  V41  1  0.87420127  0.00171920  0.87621842  1
  V  V42  1  0.00070407  0.00309719  0.00116215  1
  V  V43  1  0.24799036  0.37321724  0.62936633  1
  V  V44  1  0.37798190  0.00163343  0.87286666  1
  V  V45  1  0.00259288  0.86916375  0.37226862  1
  V  V46  1  0.37204434  0.86642874  -0.00108394  1
  V  V47  1  0.11076339  0.49868932  0.10773066  1
  V  V48  1  0.88118292  0.37988141  -0.01464758  1
  V  V49  1  0.89174866  0.73625299  0.13342161  1
  V  V50  1  0.76178843  0.60972066  0.36694122  1
  V  V51  1  0.11928174  0.49594617  0.62396325  1
  V  V52  1  0.75191438  0.24106947  0.01276974  1
  V  V53  1  0.07118389  0.42107526  0.80150948  1
  V  V54  1  0.25553284  0.11534308  0.37459839  1
  V  V55  1  0.49796314  0.62593470  0.62375995  1
  V  V56  1  0.12746602  0.24951823  0.87109420  1
  V  V57  1  0.62809239  0.49373259  0.63287247  1
  V  V58  1  0.75048028  0.74956458  0.00634525  1
  V  V59  1  0.25336574  0.49564132  0.75519969  1
  V  V60  1  0.24377296  -0.00135537  0.73796453  1
  V  V61  1  0.12701326  0.12217750  0.50027662  1
  V  V62  1  0.00706140  -0.00539352  0.50264219  1
  V  V63  1  0.50889992  0.26797166  0.75225491  1
  V  V64  1  0.13410511  0.63331390  -0.00362078  1
  V  V65  1  0.37099858  0.76137352  0.62392318  1
  V  V66  1  0.87832527  -0.00276061  0.37388616  1
  V  V67  1  0.74704039  -0.00343092  0.74719143  1
  V  V68  1  0.12151394  0.37514645  0.24504688  1
  V  V69  1  0.87354737  0.24772116  0.62502675  1
  V  V70  1  0.25627303  0.36934275  0.12323315  1
  V  V71  1  0.50131896  0.13324961  0.11783120  1
  V  V72  1  0.25385529  0.12498917  0.87476223  1
  V  V73  1  0.24150132  0.50379376  0.24527574  1
  V  V74  1  0.50233512  0.87392955  0.87619104  1
  V  V75  1  -0.00275027  0.75054937  0.75980934  1
  V  V76  1  0.50486744  0.49564577  0.00075177  1
  V  V77  1  0.49432518  0.75332908  0.25629589  1
  V  V78  1  0.50075975  0.74889989  0.74898533  1
  V  V79  1  0.62944749  0.39101203  0.24383281  1
  V  V80  1  0.75148298  0.74880954  0.49690153  1
  V  V81  1  0.49684275  0.50058285  0.49891735  1
  V  V82  1  0.50178414  0.12252408  0.62817690  1
  V  V83  1  0.00215512  0.24607731  0.75494531  1
  V  V84  1  0.50808364  0.00046297  0.00054884  1
  Zn  Zn85  1  0.62523464  0.87311439  0.74581000  1
  Zn  Zn86  1  0.37874556  0.25121170  0.62796751  1
  Zn  Zn87  1  0.74949585  0.87092288  0.12936698  1
  Zn  Zn88  1  -0.09184753  0.49472267  0.36767682  1
  Zn  Zn89  1  0.87396570  0.87324786  0.49955479  1
  Zn  Zn90  1  -0.00326690  0.61714221  0.63555790  1
  Zn  Zn91  1  0.75470366  0.47809871  0.76559661  1
  Zn  Zn92  1  0.12472962  0.87625882  0.73860618  1
  Zn  Zn93  1  0.24684626  0.62581858  0.37911587  1
  Zn  Zn94  1  0.12989321  0.00210894  0.12276645  1
  Zn  Zn95  1  0.74365482  0.36906212  0.62833686  1
  Zn  Zn96  1  0.00659671  0.87501755  0.87664360  1
  Zn  Zn97  1  0.62507159  -0.00039322  0.12271966  1
  Zn  Zn98  1  0.73826636  0.11992684  0.88414375  1
  Zn  Zn99  1  0.25828700  0.24595136  0.00414670  1
  Zn  Zn100  1  0.62415966  -0.00537999  0.62152142  1
  Zn  Zn101  1  0.74758020  0.87347010  0.62170903  1
  Zn  Zn102  1  0.36929248  0.74548659  0.12064204  1
  Zn  Zn103  1  0.62404382  0.74927676  0.37460932  1
  Zn  Zn104  1  0.49667857  0.25708519  0.24162173  1
  Zn  Zn105  1  0.37863067  0.12795136  0.74818014  1
  Zn  Zn106  1  0.87559042  0.61734643  0.75496763  1
  Zn  Zn107  1  0.18691766  0.18834318  0.18706334  1
  Zn  Zn108  1  0.18937788  0.18547635  0.68819851  1
  Zn  Zn109  1  0.16924095  0.68137383  0.18510837  1
  Zn  Zn110  1  0.18733854  0.68831186  0.69026170  1
  Zn  Zn111  1  0.68171424  0.18621806  0.18618585  1
  Zn  Zn112  1  0.68515381  0.18459166  0.69078543  1
  Zn  Zn113  1  0.68831983  0.68630904  0.19063700  1
  Zn  Zn114  1  0.68758800  0.68449298  0.68654363  1
  Zn  Zn115  1  0.30555566  0.31262629  0.31252091  1
  Zn  Zn116  1  0.32142156  0.31249660  0.81436792  1
  Zn  Zn117  1  0.29772812  0.80613930  0.31167544  1
  Zn  Zn118  1  0.31901045  0.82206744  0.80364376  1
  Zn  Zn119  1  0.81257092  0.31812827  0.31219084  1
  Zn  Zn120  1  0.80560111  0.30788926  0.81333744  1
  Zn  Zn121  1  0.81366810  0.80693529  0.31176892  1
  Zn  Zn122  1  0.81352103  0.81279767  0.81667756  1
  Zn  Zn123  1  0.12478037  0.46605854  0.41050233  1
  Zn  Zn124  1  0.19805717  0.43826064  0.94002082  1
  Zn  Zn125  1  0.19068401  0.93592641  0.56229552  1
  Zn  Zn126  1  0.18883815  0.93855926  0.93498605  1
  Zn  Zn127  1  0.68888573  0.43609414  0.44067166  1
  Zn  Zn128  1  0.68767518  0.43245118  0.94360841  1
  Zn  Zn129  1  0.68512148  0.93455441  0.43461636  1
  Zn  Zn130  1  0.69025258  0.93366815  0.93643105  1
  Zn  Zn131  1  0.31924933  0.05979221  0.06198108  1
  Zn  Zn132  1  0.32305124  0.06469002  0.55873522  1
  Zn  Zn133  1  0.31078979  0.56036605  0.06075653  1
  Zn  Zn134  1  0.30689386  0.56482043  0.56629712  1
  Zn  Zn135  1  0.81340386  0.06265020  0.06760180  1
  Zn  Zn136  1  0.81516086  0.06083084  0.56139465  1
  Zn  Zn137  1  0.81945960  0.55941257  0.06024208  1
  Zn  Zn138  1  0.81327128  0.56136692  0.56394275  1
  Zn  Zn139  1  0.43691472  0.43998234  0.18567574  1
  Zn  Zn140  1  0.43694683  0.43919675  0.68352307  1
  Zn  Zn141  1  0.43620387  0.93813351  0.18493904  1
  Zn  Zn142  1  0.44120522  0.94020460  0.68710159  1
  Zn  Zn143  1  0.93153984  0.43987008  0.18203214  1
  Zn  Zn144  1  0.92552335  0.43552386  0.68641164  1
  Zn  Zn145  1  0.93820473  0.93813586  0.18551367  1
  Zn  Zn146  1  0.93781792  0.93099154  0.68760260  1
  Zn  Zn147  1  0.06650481  0.06158100  0.31434280  1
  Zn  Zn148  1  0.06327726  0.06230298  0.81509603  1
  Zn  Zn149  1  0.02708280  0.56116702  0.28047337  1
  Zn  Zn150  1  0.04047848  0.59194166  0.85286126  1
  Zn  Zn151  1  0.56024810  0.06539314  0.30716825  1
  Zn  Zn152  1  0.56751926  0.06658340  0.81387933  1
  Zn  Zn153  1  0.55952962  0.56540555  0.31578791  1
  Zn  Zn154  1  0.56293784  0.56301968  0.81510948  1
  Zn  Zn155  1  0.43783389  0.18656240  0.43510445  1
  Zn  Zn156  1  0.44637218  0.18806039  0.93236666  1
  Zn  Zn157  1  0.43263623  0.68695395  0.43623921  1
  Zn  Zn158  1  0.43658498  0.68327457  0.93591879  1
  Zn  Zn159  1  0.93815408  0.18629467  0.43602513  1
  Zn  Zn160  1  0.93252092  0.19307850  0.93982285  1
  Zn  Zn161  1  0.93647690  0.68196187  0.44025666  1
  Zn  Zn162  1  0.94043667  0.68732288  0.95110690  1
  Zn  Zn163  1  0.06179136  0.31102390  0.06048458  1
  Zn  Zn164  1  0.06482019  0.30802496  0.56693658  1
  Zn  Zn165  1  0.06606946  0.81298518  0.05977790  1
  Zn  Zn166  1  0.05467890  0.80972069  0.56844238  1
  Zn  Zn167  1  0.56981554  0.31405647  0.06217813  1
  Zn  Zn168  1  0.55909554  0.31131321  0.55975606  1
  Zn  Zn169  1  0.56134532  0.81159644  0.06950790  1
  Zn  Zn170  1  0.56110525  0.81397479  0.55959398  1
  O  O171  1  0.11922529  0.12372025  0.11790891  1
  O  O172  1  0.11376742  0.13010983  0.61818407  1
  O  O173  1  0.12267332  0.61197357  0.10618564  1
  O  O174  1  0.12475441  0.61506734  0.62433400  1
  O  O175  1  0.60588252  0.11742597  0.13223070  1
  O  O176  1  0.61872341  0.12223440  0.61500719  1
  O  O177  1  0.61810098  0.63009133  0.11495997  1
  O  O178  1  0.61963378  0.61747533  0.61435130  1
  O  O179  1  0.37521884  0.38062978  0.37944677  1
  O  O180  1  0.37509278  0.38887234  0.88388212  1
  O  O181  1  0.36919949  0.86724259  0.38420847  1
  O  O182  1  0.38208067  0.88295121  0.88023694  1
  O  O183  1  0.87175856  0.37919543  0.39007431  1
  O  O184  1  0.86955521  0.36870321  0.88592562  1
  O  O185  1  0.88695145  0.87770490  0.37254722  1
  O  O186  1  0.87396215  0.88623490  0.88836723  1
  O  O187  1  0.24833623  0.01509831  0.36258979  1
  O  O188  1  0.25831790  0.01034544  0.86912998  1
  O  O189  1  0.23965017  0.50197654  0.35700831  1
  O  O190  1  0.25956260  0.49519065  0.86086883  1
  O  O191  1  0.75522788  0.00456623  0.36552632  1
  O  O192  1  0.75627598  0.00197644  0.86965088  1
  O  O193  1  0.75000321  0.50958019  0.37872343  1
  O  O194  1  0.73877036  0.51470544  0.87770063  1
  O  O195  1  0.24597784  0.49000897  0.13154672  1
  O  O196  1  0.24481729  0.49224240  0.63649269  1
  O  O197  1  0.25074680  0.99542199  0.13194547  1
  O  O198  1  0.25375328  1.00749422  0.63417391  1
  O  O199  1  0.75104746  0.48810655  0.12364703  1
  O  O200  1  0.73207419  0.49850466  0.61842196  1
  O  O201  1  0.74788835  0.99898890  0.13903073  1
  O  O202  1  0.75093724  0.99736252  0.63282716  1
  O  O203  1  0.00500389  0.35919640  0.23786365  1
  O  O204  1  0.00486064  0.36367150  0.74349460  1
  O  O205  1  0.01142116  0.88422591  0.25637627  1
  O  O206  1  0.00347118  0.86759185  0.75657394  1
  O  O207  1  0.51051022  0.37587325  0.25242235  1
  O  O208  1  0.50220587  0.36590086  0.74458481  1
  O  O209  1  0.50393156  0.86544779  0.24377444  1
  O  O210  1  0.50051110  0.86724787  0.75880904  1
  O  O211  1  0.49117444  0.12995091  0.24007084  1
  O  O212  1  0.50120604  0.12377018  0.73612392  1
  O  O213  1  0.49169285  0.62791180  0.24339878  1
  O  O214  1  0.49051731  0.62998361  0.74550148  1
  O  O215  1  0.99409138  0.12929917  0.24519287  1
  O  O216  1  0.99523073  0.12622792  0.74276446  1
  O  O217  1  1.07555009  0.66217017  0.26417493  1
  O  O218  1  0.99594286  0.63456299  0.75563647  1
  O  O219  1  0.37970354  0.26406879  -0.00968831  1
  O  O220  1  0.37037185  0.25836979  0.50046306  1
  O  O221  1  0.38018263  0.76269190  -0.00188395  1
  O  O222  1  0.36896510  0.75836263  0.50450870  1
  O  O223  1  0.85567998  0.25530904  -0.00139203  1
  O  O224  1  0.86812573  0.25125272  0.50440378  1
  O  O225  1  0.86907511  0.75858186  0.00651922  1
  O  O226  1  0.86794975  0.74912565  0.50819879  1
  O  O227  1  0.13097689  0.24351638  0.49290486  1
  O  O228  1  0.12878786  0.24518877  0.98635235  1
  O  O229  1  0.13142560  0.73921343  0.51447743  1
  O  O230  1  0.12834676  0.74381651  0.98775601  1
  O  O231  1  0.63058583  0.24633894  0.48938718  1
  O  O232  1  0.63608167  0.25239035  0.99170210  1
  O  O233  1  0.63112481  0.74068690  0.49754257  1
  O  O234  1  0.63136706  0.74459806  0.99670264  1
  O  O235  1  0.50470349  0.23735135  0.12226273  1
  O  O236  1  0.50398157  0.24374027  0.63591066  1
  O  O237  1  0.49487552  0.73784201  0.13379891  1
  O  O238  1  0.49342316  0.74349048  0.62899987  1
  O  O239  1  1.00676984  0.23605757  0.13480720  1
  O  O240  1  0.99563062  0.24014248  0.63524902  1
  O  O241  1  0.99089948  0.75183715  0.11973328  1
  O  O242  1  0.99052771  0.74578717  0.64116633  1
  O  O243  1  0.01090422  0.24127861  0.36494616  1
  O  O244  1  0.00739221  0.24050928  0.86212050  1
  O  O245  1  0.00555543  0.75338795  0.38017331  1
  O  O246  1  -0.00448974  0.75337087  0.86725410  1
  O  O247  1  0.50823757  0.25860552  0.37293392  1
  O  O248  1  0.51159672  0.25042733  0.86199001  1
  O  O249  1  0.50011570  0.74066754  0.35965132  1
  O  O250  1  0.50774343  0.75213912  0.87094067  1
  O  O251  1  0.24883960  0.12704705  0.49227560  1
  O  O252  1  0.24921252  0.12606755  0.99195336  1
  O  O253  1  0.24559128  0.63945557  0.50314552  1
  O  O254  1  0.23510182  0.61856010  0.99721597  1
  O  O255  1  0.74635838  0.13249718  0.49231656  1
  O  O256  1  0.75128432  0.13625221  1.00541066  1
  O  O257  1  0.74229046  0.62867271  0.49442563  1
  O  O258  1  0.74306540  0.62942928  0.99475417  1
  O  O259  1  0.26356683  0.37164192  0.00645322  1
  O  O260  1  0.26157636  0.36956368  0.50670860  1
  O  O261  1  0.26084653  0.88555940  0.00854923  1
  O  O262  1  0.26263218  0.86460049  0.50310267  1
  O  O263  1  0.75316927  0.36612548  0.01432132  1
  O  O264  1  0.75301718  0.36041375  0.50513924  1
  O  O265  1  0.75758539  0.86630133  0.00379358  1
  O  O266  1  0.75246848  0.86357576  0.49747253  1
  O  O267  1  0.12671492  0.49380932  0.22865719  1
  O  O268  1  0.13423772  0.48696030  0.74650021  1
  O  O269  1  0.13778727  0.99370780  0.25007679  1
  O  O270  1  0.14132076  1.00256515  0.75445730  1
  O  O271  1  0.62216854  0.48864951  0.25513613  1
  O  O272  1  0.62642496  0.50789913  0.73511864  1
  O  O273  1  0.63168556  0.99298567  0.25176664  1
  O  O274  1  0.63467445  0.99707778  0.74868823  1
  O  O275  1  0.36757533  0.01092742  0.24682270  1
  O  O276  1  0.36869272  0.00080334  0.75994746  1
  O  O277  1  0.36330281  0.50451753  0.25490741  1
  O  O278  1  0.37283638  0.50569939  0.75488391  1
  O  O279  1  0.86819376  0.00621547  0.25488752  1
  O  O280  1  0.87094817  0.00171511  0.75874908  1
  O  O281  1  0.92183928  0.51986616  0.25576631  1
  O  O282  1  0.86181655  0.50670198  0.73852238  1
  O  O283  1  0.13198825  0.35985354  0.36380524  1
  O  O284  1  0.12991708  0.36797908  0.87094752  1
  O  O285  1  0.10982574  0.85907405  0.36449246  1
  O  O286  1  0.12704269  0.86214054  0.87481978  1
  O  O287  1  0.62262267  0.37007747  0.36616078  1
  O  O288  1  0.63043074  0.35778333  0.87655890  1
  O  O289  1  0.62677503  0.86884379  0.36052237  1
  O  O290  1  0.62168032  0.86079536  0.87498142  1
  O  O291  1  0.38843840  0.12317226  0.13200429  1
  O  O292  1  0.38683832  0.13121694  0.62534764  1
  O  O293  1  0.38023290  0.62568751  0.12926731  1
  O  O294  1  0.38143545  0.63085422  0.63129876  1
  O  O295  1  0.88270960  0.12290477  0.13925128  1
  O  O296  1  0.88476317  0.13298205  0.62673475  1
  O  O297  1  0.87907562  0.63773348  0.11551719  1
  O  O298  1  0.87594907  0.63583379  0.62600148  1
  O  O299  1  0.24523135  0.26429005  0.12296245  1
  O  O300  1  0.25243829  0.25628778  0.61951463  1
  O  O301  1  0.24818209  0.76349598  0.12563684  1
  O  O302  1  0.26041898  0.74659679  0.61929350  1
  O  O303  1  0.74121694  0.25425814  0.11497964  1
  O  O304  1  0.75774824  0.24205303  0.61581002  1
  O  O305  1  0.75398091  0.74784436  0.11451298  1
  O  O306  1  0.75483014  0.74688157  0.61469070  1
  O  O307  1  0.24271803  0.24107270  0.38074913  1
  O  O308  1  0.24690153  0.23852220  0.87157280  1
  O  O309  1  0.22867424  0.74657343  0.38413945  1
  O  O310  1  0.25111644  0.75775025  0.87076980  1
  O  O311  1  0.74356309  0.24666774  0.38028774  1
  O  O312  1  0.74054452  0.24251318  0.88572019  1
  O  O313  1  0.75270156  0.73872094  0.38649325  1
  O  O314  1  0.74409314  0.74411477  0.88773334  1
  O  O315  1  0.00238884  0.12491327  0.00827705  1
  O  O316  1  0.00499004  0.11742615  0.50617586  1
  O  O317  1  0.02715593  0.61660229  -0.03008477  1
  O  O318  1  0.01364279  0.62992142  0.51293218  1
  O  O319  1  0.49388876  0.11704969  0.01051606  1
  O  O320  1  0.50353482  0.11985016  0.50690890  1
  O  O321  1  0.50698836  0.61959530  0.00729481  1
  O  O322  1  0.50505352  0.62051621  0.50263474  1
  O  O323  1  0.48743568  0.37943158  0.49354655  1
  O  O324  1  0.49687918  0.38753661  1.01033469  1
  O  O325  1  0.48529885  0.88022644  0.49798009  1
  O  O326  1  0.49369332  0.88059161  0.99619256  1
  O  O327  1  0.98834153  0.36425373  0.50137543  1
  O  O328  1  0.97904884  0.35832173  1.00121319  1
  O  O329  1  0.99762759  0.88081794  0.49127996  1
  O  O330  1  0.99343471  0.88382570  0.99888402  1
  O  O331  1  0.48928536  0.49471211  0.38075035  1
  O  O332  1  0.49485299  0.50428313  0.88704476  1
  O  O333  1  0.49980345  1.00893197  0.38695207  1
  O  O334  1  0.49512300  0.99601478  0.87832918  1
  O  O335  1  1.02415743  0.50247956  0.37824235  1
  O  O336  1  1.01356635  0.47978950  0.85447128  1
  O  O337  1  0.99902391  0.99207385  0.38219450  1
  O  O338  1  0.99175353  1.00002687  0.88266024  1
  O  O339  1  0.00275158  0.01264151  0.11937531  1
  O  O340  1  -0.00972128  0.00841014  0.61634590  1
  O  O341  1  0.01371776  0.48966114  0.11072809  1
  O  O342  1  0.01650478  0.49469872  0.63299340  1
  O  O343  1  0.49932580  0.00709046  0.11451256  1
  O  O344  1  0.50041780  0.00783124  0.61421645  1
  O  O345  1  0.49603319  0.51427617  0.11770901  1
  O  O346  1  0.50685539  0.50659161  0.61819853  1
  O  O347  1  0.24197962  0.38112086  0.24128782  1
  O  O348  1  0.26104718  0.38047443  0.73968582  1
  O  O349  1  0.25134974  0.88785701  0.24051299  1
  O  O350  1  0.24956023  0.89506461  0.75020078  1
  O  O351  1  0.74029250  0.37234053  0.23922384  1
  O  O352  1  0.74851184  0.36826464  0.74043822  1
  O  O353  1  0.74394150  0.88173469  0.25088517  1
  O  O354  1  0.75038574  0.88615008  0.75134310  1
  O  O355  1  0.25809326  0.12219465  0.25180834  1
  O  O356  1  0.25554679  0.11596068  0.75595974  1
  O  O357  1  0.25201522  0.61783042  0.24483824  1
  O  O358  1  0.26346705  0.61447056  0.74299968  1
  O  O359  1  0.75618014  0.12023680  0.25362348  1
  O  O360  1  0.75762630  0.11247106  0.75053706  1
  O  O361  1  0.74636528  0.62756720  0.26946693  1
  O  O362  1  0.74808756  0.63064279  0.77073835  1
  O  O363  1  0.36668257  0.13078896  0.36308894  1
  O  O364  1  0.37122796  0.11824388  0.87338664  1
  O  O365  1  0.36666421  0.61725549  0.36821323  1
  O  O366  1  0.37828688  0.61295036  0.86541183  1
  O  O367  1  0.87079039  0.11762848  0.36546127  1
  O  O368  1  0.87262698  0.11286905  0.87290662  1
  O  O369  1  0.86543255  0.61275170  0.38495650  1
  O  O370  1  0.85927033  0.62834816  0.88289386  1
  O  O371  1  0.13264255  0.38285212  0.12142806  1
  O  O372  1  0.13968354  0.38029664  0.61682857  1
  O  O373  1  0.13138644  0.88143407  0.12920912  1
  O  O374  1  0.12020204  0.87885680  0.62542261  1
  O  O375  1  0.63327491  0.37477326  0.13873162  1
  O  O376  1  0.62037506  0.39115247  0.61676538  1
  O  O377  1  0.62812192  0.87804500  0.13753969  1
  O  O378  1  0.62817527  0.87591809  0.62744425  1
  O  O379  1  0.11819828  0.25312094  0.25630317  1
  O  O380  1  0.11904938  0.24419185  0.76083096  1
  O  O381  1  0.15201094  0.77754615  0.25084778  1
  O  O382  1  0.12184574  0.75245651  0.76344880  1
  O  O383  1  0.62322485  0.25688342  0.26029697  1
  O  O384  1  0.61477758  0.24813358  0.75669870  1
  O  O385  1  0.61436900  0.75590814  0.25052182  1
  O  O386  1  0.61939550  0.74717891  0.75944935  1
  O  O387  1  0.37521268  0.24278859  0.24999736  1
  O  O388  1  0.39435552  0.24824859  0.75087088  1
  O  O389  1  0.37593959  0.74251915  0.24821628  1
  O  O390  1  0.37896232  0.74370780  0.74289726  1
  O  O391  1  0.88294487  0.24065223  0.25979625  1
  O  O392  1  0.88151523  0.24052809  0.74327151  1
  O  O393  1  0.87323676  0.75210333  0.23160075  1
  O  O394  1  0.87925500  0.74764632  0.74644446  1
  O  O395  1  0.37400708  0.49451459  0.49419455  1
  O  O396  1  0.38324510  0.49512903  0.99280467  1
  O  O397  1  0.37906883  0.98337441  0.49955722  1
  O  O398  1  0.38485432  0.99254087  0.98766254  1
  O  O399  1  0.87685670  0.48156844  0.50802302  1
  O  O400  1  0.87182895  0.48016724  0.99922127  1
  O  O401  1  0.88619742  0.99870298  0.49121344  1
  O  O402  1  0.87874464  0.99516815  0.99642174  1
  O  O403  1  0.11782168  0.00933450  -0.00259113  1
  O  O404  1  0.11420727  0.00553131  0.50040312  1
  O  O405  1  0.13116352  0.50380804  0.00419041  1
  O  O406  1  0.13929660  0.51813689  0.51335425  1
  O  O407  1  0.61211757  -0.00699626  -0.00189681  1
  O  O408  1  0.61709699  0.00489708  0.49778858  1
  O  O409  1  0.61681162  0.50866454  -0.00195936  1
  O  O410  1  0.61623411  0.50621920  0.50439194  1
  O  O411  1  0.36821960  0.37999406  0.11490988  1
  O  O412  1  0.36733567  0.37459749  0.61570560  1
  O  O413  1  0.36771219  0.87301821  0.11502133  1
  O  O414  1  0.38048308  0.86316813  0.62288545  1
  O  O415  1  0.85978966  0.37156181  0.12550510  1
  O  O416  1  0.87545115  0.35728277  0.61385981  1
  O  O417  1  0.87319984  0.87218426  0.11457251  1
  O  O418  1  0.87118359  0.86028562  0.62229410  1
  O  O419  1  0.13366113  0.13331287  0.37983175  1
  O  O420  1  0.13454610  0.13058883  0.87988421  1
  O  O421  1  0.12806017  0.63299849  0.40025177  1
  O  O422  1  0.14128874  0.64559003  0.87619949  1
  O  O423  1  0.62991030  0.13434199  0.37676308  1
  O  O424  1  0.62477741  0.14214333  0.87384816  1
  O  O425  1  0.63040946  0.62450272  0.38665823  1
  O  O426  1  0.62873146  0.63483615  0.88673910  1
