# generated using pymatgen
data_V85Zn86O256
_symmetry_space_group_name_H-M   'P 1'
_cell_length_a   16.94802880
_cell_length_b   16.95791006
_cell_length_c   16.94850487
_cell_angle_alpha   90.05813558
_cell_angle_beta   90.03803989
_cell_angle_gamma   90.02353962
_symmetry_Int_Tables_number   1
_chemical_formula_structural   V85Zn86O256
_chemical_formula_sum   'V85 Zn86 O256'
_cell_volume   4871.04966109
_cell_formula_units_Z   1
loop_
 _symmetry_equiv_pos_site_id
 _symmetry_equiv_pos_as_xyz
  1  'x, y, z'
loop_
 _atom_site_type_symbol
 _atom_site_label
 _atom_site_symmetry_multiplicity
 _atom_site_fract_x
 _atom_site_fract_y
 _atom_site_fract_z
 _atom_site_occupancy
  V  V0  1  0.62270942  0.76198228  0.36977646  1
  V  V1  1  0.12600076  0.00451442  0.62560781  1
  V  V2  1  0.12008647  0.37544159  0.74904311  1
  V  V3  1  0.39544633  0.88055622  0.49899522  1
  V  V4  1  0.00133100  0.23691986  0.74987647  1
  V  V5  1  0.86837339  0.62238483  0.74035385  1
  V  V6  1  0.62333097  0.25621006  0.86435446  1
  V  V7  1  0.00165366  0.37748480  0.37593773  1
  V  V8  1  0.00480907  0.63014465  0.62293280  1
  V  V9  1  0.25021960  0.12704582  0.87670945  1
  V  V10  1  0.74734608  0.25275502  0.50099434  1
  V  V11  1  0.87936060  0.24153254  0.62521307  1
  V  V12  1  0.25245596  -0.00329794  0.74596238  1
  V  V13  1  0.62776115  0.12540095  -0.00747480  1
  V  V14  1  0.50281344  0.75006290  0.74507095  1
  V  V15  1  0.62058386  0.62587876  0.50480099  1
  V  V16  1  0.75141134  0.75031918  0.50872797  1
  V  V17  1  0.50031151  0.87505167  0.87226595  1
  V  V18  1  0.12348246  0.12896557  0.50529304  1
  V  V19  1  0.12114408  0.49736322  0.11643901  1
  V  V20  1  0.62716540  0.62618878  -0.00201955  1
  V  V21  1  0.63540381  0.74903793  0.87342125  1
  V  V22  1  0.37662853  0.37341492  0.49931620  1
  V  V23  1  0.24563438  0.62910671  0.38912177  1
  V  V24  1  0.85995782  0.12061038  0.75142206  1
  V  V25  1  0.50276303  0.00038871  0.00419986  1
  V  V26  1  0.12687454  0.25052750  0.88072307  1
  V  V27  1  0.11417075  0.62935537  -0.00562298  1
  V  V28  1  0.75288371  0.49561891  0.24736627  1
  V  V29  1  0.86365320  0.00144776  0.87197140  1
  V  V30  1  0.13100683  0.12637532  0.00139235  1
  V  V31  1  0.25415763  -0.00249669  0.25199659  1
  V  V32  1  0.37794416  0.62741890  0.74427050  1
  V  V33  1  0.25076080  0.50346804  0.24522008  1
  V  V34  1  0.75066692  0.24816036  -0.00575472  1
  V  V35  1  0.37681033  0.13344946  0.74709555  1
  V  V36  1  0.75579698  0.60779952  0.87385119  1
  V  V37  1  0.62932138  0.00074339  0.61706112  1
  V  V38  1  0.12818245  0.86755650  0.75597210  1
  V  V39  1  0.86776722  0.25169708  0.12176299  1
  V  V40  1  0.00680470  0.50468998  0.50416252  1
  V  V41  1  0.25302099  0.37417466  0.62637703  1
  V  V42  1  0.62573802  0.37148838  0.24952931  1
  V  V43  1  0.87382324  0.38742417  0.00195746  1
  V  V44  1  0.87000945  0.74903189  0.11966915  1
  V  V45  1  0.38823685  -0.00346313  0.37494141  1
  V  V46  1  0.87252580  0.00056724  0.37403027  1
  V  V47  1  0.13252084  0.37500893  0.24330725  1
  V  V48  1  -0.00098672  0.00822433  0.50273372  1
  V  V49  1  0.24838259  0.50146930  0.74874231  1
  V  V50  1  0.49675095  0.49515778  0.00088239  1
  V  V51  1  0.20259723  0.82087425  0.56750229  1
  V  V52  1  0.49466563  0.12493094  0.61611775  1
  V  V53  1  0.62794655  0.49602750  0.63256456  1
  V  V54  1  0.37361698  0.75111433  0.12532722  1
  V  V55  1  0.37541858  0.00150685  0.87408943  1
  V  V56  1  0.62863935  0.49225562  0.12385658  1
  V  V57  1  0.74931283  0.62352486  0.37447279  1
  V  V58  1  -0.00485260  0.38374007  0.87984210  1
  V  V59  1  0.49945669  0.62368727  0.13112701  1
  V  V60  1  0.74791309  0.12758596  0.37337528  1
  V  V61  1  -0.00165062  -0.00412304  -0.00129737  1
  V  V62  1  0.50234031  0.76786030  0.25104254  1
  V  V63  1  0.37265339  0.12610370  0.24949205  1
  V  V64  1  0.49919085  0.50468087  0.50153333  1
  V  V65  1  0.50457205  0.12907882  0.12344533  1
  V  V66  1  0.37370541  0.50082970  0.87428383  1
  V  V67  1  0.12439430  0.86871253  0.25286454  1
  V  V68  1  0.12520472  0.24977181  0.37626860  1
  V  V69  1  0.87229760  0.87365555  0.50524945  1
  V  V70  1  0.63384059  0.88571491  0.75143209  1
  V  V71  1  0.36125066  0.25368190  0.11867562  1
  V  V72  1  0.87517108  0.12702296  0.24934314  1
  V  V73  1  -0.00004012  0.87275801  0.37149570  1
  V  V74  1  0.00192849  0.86849307  0.87603605  1
  V  V75  1  0.37408598  0.87303927  -0.00109460  1
  V  V76  1  0.00060998  0.25195817  0.24820241  1
  V  V77  1  0.24675982  0.63433917  0.87599285  1
  V  V78  1  0.87546101  0.37747704  0.50438830  1
  V  V79  1  0.35830207  0.37374315  0.00078269  1
  V  V80  1  0.38099350  0.75214709  0.61664661  1
  V  V81  1  0.12120363  -0.00257988  0.12666141  1
  V  V82  1  0.24916126  0.87136401  0.12560074  1
  V  V83  1  -0.00041485  0.12443897  0.12353616  1
  V  V84  1  0.25466656  0.24934058  0.50578080  1
  Zn  Zn85  1  0.49738974  0.25959505  0.74123934  1
  Zn  Zn86  1  -0.00129461  0.74170281  0.25151160  1
  Zn  Zn87  1  0.72800059  0.87383022  0.12231349  1
  Zn  Zn88  1  0.37504182  0.50259111  0.37329994  1
  Zn  Zn89  1  0.73949781  0.37251210  0.64347763  1
  Zn  Zn90  1  0.49989373  0.37558161  0.37441690  1
  Zn  Zn91  1  0.12565350  0.50337090  0.62151477  1
  Zn  Zn92  1  0.12695310  0.74613777  0.38974182  1
  Zn  Zn93  1  0.49369727  0.25659591  0.24942397  1
  Zn  Zn94  1  0.61993533  0.12386044  0.49692376  1
  Zn  Zn95  1  0.62084806  0.25337529  0.37657307  1
  Zn  Zn96  1  0.87833314  0.62400211  0.24881899  1
  Zn  Zn97  1  0.24382432  0.75118408  -0.00237713  1
  Zn  Zn98  1  0.50159072  0.37954661  0.86510733  1
  Zn  Zn99  1  0.72301427  -0.00756433  0.24433242  1
  Zn  Zn100  1  0.75912735  0.87857716  0.63349130  1
  Zn  Zn101  1  0.37276358  0.62646760  0.25327188  1
  Zn  Zn102  1  0.86067971  0.86580290  -0.00354906  1
  Zn  Zn103  1  0.87682751  0.50188514  0.37458807  1
  Zn  Zn104  1  -0.00505878  0.75083877  0.75041559  1
  Zn  Zn105  1  0.25175023  0.12416326  0.37824758  1
  Zn  Zn106  1  -0.00264986  0.61987511  0.12694008  1
  Zn  Zn107  1  0.18776697  0.18716777  0.18706371  1
  Zn  Zn108  1  0.18812692  0.18776165  0.68834334  1
  Zn  Zn109  1  0.18478624  0.68275830  0.18588200  1
  Zn  Zn110  1  0.18625051  0.68324317  0.68819805  1
  Zn  Zn111  1  0.68784121  0.18306976  0.18474652  1
  Zn  Zn112  1  0.68687990  0.18577459  0.68353966  1
  Zn  Zn113  1  0.68875832  0.68739188  0.18831060  1
  Zn  Zn114  1  0.68834254  0.68362876  0.68833650  1
  Zn  Zn115  1  0.31079261  0.31250313  0.31542831  1
  Zn  Zn116  1  0.31252412  0.31436641  0.81495748  1
  Zn  Zn117  1  0.31567014  0.80920062  0.31730302  1
  Zn  Zn118  1  0.31395504  0.81304496  0.80871791  1
  Zn  Zn119  1  0.81224332  0.31535395  0.31376192  1
  Zn  Zn120  1  0.81060291  0.30728030  0.81721074  1
  Zn  Zn121  1  0.81069681  0.80732660  0.31010384  1
  Zn  Zn122  1  0.81583936  0.80834940  0.81367586  1
  Zn  Zn123  1  0.18909607  0.43970860  0.43368027  1
  Zn  Zn124  1  0.18399052  0.44289384  0.93300241  1
  Zn  Zn125  1  0.18653322  0.94330893  0.43182020  1
  Zn  Zn126  1  0.18759587  0.93835343  0.93683964  1
  Zn  Zn127  1  0.68754916  0.43801692  0.43794517  1
  Zn  Zn128  1  0.68922691  0.43288429  0.94019566  1
  Zn  Zn129  1  0.68850681  0.93858772  0.43760676  1
  Zn  Zn130  1  0.68646225  0.93565179  0.94376721  1
  Zn  Zn131  1  0.31416289  0.06070439  0.06523828  1
  Zn  Zn132  1  0.31330359  0.05805884  0.56152902  1
  Zn  Zn133  1  0.30761267  0.56352785  0.06303438  1
  Zn  Zn134  1  0.31543337  0.56165245  0.56455776  1
  Zn  Zn135  1  0.80983232  0.06114178  0.05768559  1
  Zn  Zn136  1  0.80885520  0.06433251  0.56301469  1
  Zn  Zn137  1  0.80885003  0.56796624  0.06308961  1
  Zn  Zn138  1  0.81212557  0.56027780  0.56328523  1
  Zn  Zn139  1  0.43561835  0.43564907  0.18638106  1
  Zn  Zn140  1  0.44022384  0.44190867  0.68205265  1
  Zn  Zn141  1  0.55431254  0.94226424  0.18721191  1
  Zn  Zn142  1  0.44218967  0.93975970  0.68244829  1
  Zn  Zn143  1  0.93971875  0.43798468  0.18597212  1
  Zn  Zn144  1  0.90053221  0.42054511  0.71460427  1
  Zn  Zn145  1  0.86692528  0.93410091  0.18868414  1
  Zn  Zn146  1  0.94177616  0.94102605  0.68995446  1
  Zn  Zn147  1  0.06192693  0.06177646  0.31409891  1
  Zn  Zn148  1  0.06138225  0.05798701  0.81476063  1
  Zn  Zn149  1  0.06651060  0.56245721  0.31436871  1
  Zn  Zn150  1  0.05800304  0.56307096  0.80893956  1
  Zn  Zn151  1  0.55765324  0.07405421  0.31588473  1
  Zn  Zn152  1  0.56168643  0.06678878  0.81092329  1
  Zn  Zn153  1  0.56447569  0.56107904  0.31550851  1
  Zn  Zn154  1  0.55923555  0.56391173  0.81222685  1
  Zn  Zn155  1  0.43681809  0.19054230  0.43498652  1
  Zn  Zn156  1  0.43973908  0.19146763  0.93594161  1
  Zn  Zn157  1  0.43680983  0.68761396  0.43377837  1
  Zn  Zn158  1  0.43939913  0.68606572  0.93626697  1
  Zn  Zn159  1  0.93693740  0.18912999  0.43762106  1
  Zn  Zn160  1  0.93929399  0.18443843  0.93539802  1
  Zn  Zn161  1  0.93536361  0.68855318  0.43771958  1
  Zn  Zn162  1  0.93437387  0.68581150  0.93604245  1
  Zn  Zn163  1  0.06106909  0.31307132  0.06188477  1
  Zn  Zn164  1  0.06072450  0.31452573  0.56693651  1
  Zn  Zn165  1  0.05357685  0.80779018  0.06629448  1
  Zn  Zn166  1  0.03937449  0.81729709  0.56632727  1
  Zn  Zn167  1  0.55891332  0.31110898  0.06099085  1
  Zn  Zn168  1  0.56085742  0.31306370  0.56516299  1
  Zn  Zn169  1  0.56088530  0.80734846  0.05758283  1
  Zn  Zn170  1  0.56722280  0.81296010  0.56372172  1
  O  O171  1  0.12063637  0.11946555  0.11891622  1
  O  O172  1  0.12658519  0.11920270  0.61429963  1
  O  O173  1  0.12409539  0.61616941  0.11101844  1
  O  O174  1  0.11035945  0.62362763  0.62626015  1
  O  O175  1  0.61096632  0.13524886  0.11148769  1
  O  O176  1  0.61888823  0.11457185  0.62222642  1
  O  O177  1  0.61806191  0.61970741  0.11601663  1
  O  O178  1  0.62935183  0.61957887  0.61027050  1
  O  O179  1  0.37219197  0.37948871  0.38817655  1
  O  O180  1  0.37413471  0.38330044  0.88453612  1
  O  O181  1  0.37181765  0.88093451  0.38989700  1
  O  O182  1  0.38046209  0.88036241  0.87826603  1
  O  O183  1  0.88436496  0.37289033  0.38723552  1
  O  O184  1  0.88752026  0.36745552  0.88940524  1
  O  O185  1  0.88138502  0.88369480  0.38379560  1
  O  O186  1  0.88231774  0.88427418  0.87606694  1
  O  O187  1  0.25533525  0.00292156  0.36310354  1
  O  O188  1  0.25554470  0.00742369  0.86737314  1
  O  O189  1  0.24945123  0.51019494  0.36485408  1
  O  O190  1  0.25555418  0.50991823  0.86651086  1
  O  O191  1  0.75783564  0.00872613  0.37325470  1
  O  O192  1  0.76543943  -0.00380183  0.87747647  1
  O  O193  1  0.75176225  0.50736900  0.36883176  1
  O  O194  1  0.74304070  0.51012856  0.87371404  1
  O  O195  1  0.23961437  0.50443176  0.13711432  1
  O  O196  1  0.24611918  0.49382150  0.63084013  1
  O  O197  1  0.24488387  0.99300433  0.13597048  1
  O  O198  1  0.23810349  1.00325127  0.63238147  1
  O  O199  1  0.73800945  0.50589184  0.13304933  1
  O  O200  1  0.73247223  0.49696566  0.61637061  1
  O  O201  1  0.77588723  0.99282121  0.13744910  1
  O  O202  1  0.73540024  0.99918917  0.62531914  1
  O  O203  1  0.00910340  0.37006300  0.25612843  1
  O  O204  1  -0.00303056  0.36294924  0.76439050  1
  O  O205  1  0.00777612  0.87665088  0.26567805  1
  O  O206  1  0.00944405  0.87332245  0.75645249  1
  O  O207  1  0.50975389  0.37597733  0.25071244  1
  O  O208  1  0.48631443  0.37137075  0.75235259  1
  O  O209  1  0.49158838  0.86580407  0.25050858  1
  O  O210  1  0.50788526  0.86916257  0.75448561  1
  O  O211  1  0.48506457  0.13073530  0.23967524  1
  O  O212  1  0.49036629  0.12988510  0.74221686  1
  O  O213  1  0.50040192  0.62423074  0.23829432  1
  O  O214  1  0.48558582  0.63506262  0.75474398  1
  O  O215  1  0.99706964  0.13363384  0.24598216  1
  O  O216  1  0.99817921  0.13395282  0.75465556  1
  O  O217  1  0.99785576  0.62313749  0.24992384  1
  O  O218  1  0.99696486  0.63067532  0.73837622  1
  O  O219  1  0.37684867  0.25821950  0.00930175  1
  O  O220  1  0.36449635  0.25805340  0.49857766  1
  O  O221  1  0.37562491  0.75539438  0.00626255  1
  O  O222  1  0.38340170  0.76197947  0.50863156  1
  O  O223  1  0.86745071  0.24885819  0.00366842  1
  O  O224  1  0.86849373  0.25215421  0.50782728  1
  O  O225  1  0.87723163  0.74626294  0.01322593  1
  O  O226  1  0.86426840  0.76259011  0.49383208  1
  O  O227  1  0.12844413  0.24396038  0.49855671  1
  O  O228  1  0.11997279  0.23911069  0.99289038  1
  O  O229  1  0.13501861  0.76784242  0.51234761  1
  O  O230  1  0.12549016  0.73367908  1.00466426  1
  O  O231  1  0.63846935  0.25064685  0.50147010  1
  O  O232  1  0.63203818  0.24652961  0.99383535  1
  O  O233  1  0.62909809  0.74465298  0.49058097  1
  O  O234  1  0.61091268  0.73293418  0.98616728  1
  O  O235  1  0.48856397  0.24245952  0.12581465  1
  O  O236  1  0.50864267  0.23039186  0.62678086  1
  O  O237  1  0.49269013  0.74063997  0.13217541  1
  O  O238  1  0.49549601  0.75449264  0.63597571  1
  O  O239  1  0.99238573  0.24352336  0.12920686  1
  O  O240  1  0.99192138  0.25155373  0.63638391  1
  O  O241  1  0.99119117  0.73931859  0.13009860  1
  O  O242  1  0.99469868  0.73554035  0.62630532  1
  O  O243  1  0.00576947  0.25634454  0.36956844  1
  O  O244  1  0.01097836  0.25234172  0.86991247  1
  O  O245  1  0.00698760  0.75871380  0.37839593  1
  O  O246  1  -0.00312650  0.76480368  0.87643093  1
  O  O247  1  0.50235872  0.25469837  0.36816161  1
  O  O248  1  0.51209712  0.25374395  0.87114800  1
  O  O249  1  0.51387801  0.74435553  0.36516176  1
  O  O250  1  0.50512805  0.75416396  0.86300811  1
  O  O251  1  0.24380867  0.13292429  0.50164482  1
  O  O252  1  0.23782131  0.11617193  0.99560271  1
  O  O253  1  0.25175797  0.61943188  0.48815024  1
  O  O254  1  0.24287762  0.62753975  0.98994598  1
  O  O255  1  0.75016954  0.13356640  0.48918331  1
  O  O256  1  0.73898571  0.13402822  1.00318909  1
  O  O257  1  0.74548274  0.63274550  0.49399760  1
  O  O258  1  0.73791215  0.61998513  0.98672658  1
  O  O259  1  0.25909415  0.38017847  -0.00466575  1
  O  O260  1  0.25297343  0.36952209  0.50649949  1
  O  O261  1  0.25405884  0.87266230  0.00591298  1
  O  O262  1  0.25464580  0.87854549  0.50361933  1
  O  O263  1  0.76597000  0.36549994  -0.00299126  1
  O  O264  1  0.76001090  0.36760432  0.49974763  1
  O  O265  1  0.74870412  0.87330053  0.00825113  1
  O  O266  1  0.75773931  0.86954829  0.50162904  1
  O  O267  1  0.13202562  0.49148912  0.24302014  1
  O  O268  1  0.13103243  0.49239262  0.74919745  1
  O  O269  1  0.13071901  0.99030740  0.24785415  1
  O  O270  1  0.13027833  0.99345428  0.74158582  1
  O  O271  1  0.62982087  0.49119666  0.24254963  1
  O  O272  1  0.61805354  0.51167229  0.73046137  1
  O  O273  1  0.61587662  1.01790796  0.24096562  1
  O  O274  1  0.62119107  0.99196952  0.74434169  1
  O  O275  1  0.36563247  0.00926604  0.25701365  1
  O  O276  1  0.36814564  0.00590697  0.75272520  1
  O  O277  1  0.36481795  0.50097340  0.24945787  1
  O  O278  1  0.36871007  0.51208363  0.75026746  1
  O  O279  1  0.89140324  0.01228484  0.26850396  1
  O  O280  1  0.88119300  0.00639509  0.76215092  1
  O  O281  1  0.86625277  0.49852157  0.25147066  1
  O  O282  1  0.89084633  0.52591507  0.75792977  1
  O  O283  1  0.11936412  0.36874112  0.36761210  1
  O  O284  1  0.11633601  0.36711868  0.87192961  1
  O  O285  1  0.11951517  0.87213833  0.37001670  1
  O  O286  1  0.11732270  0.88200227  0.86518228  1
  O  O287  1  0.62451314  0.37377095  0.36420605  1
  O  O288  1  0.62205006  0.36072260  0.88033850  1
  O  O289  1  0.62915919  0.86076510  0.37653724  1
  O  O290  1  0.61956882  0.86745352  0.86845511  1
  O  O291  1  0.38036337  0.13436509  0.12778279  1
  O  O292  1  0.38724420  0.11615913  0.63110729  1
  O  O293  1  0.38185179  0.63468495  0.12396195  1
  O  O294  1  0.36966119  0.63863316  0.63265075  1
  O  O295  1  0.88208575  0.13359630  0.12840677  1
  O  O296  1  0.87279417  0.13356149  0.63153555  1
  O  O297  1  0.87670254  0.63234605  0.12605775  1
  O  O298  1  0.87963465  0.62270614  0.63455375  1
  O  O299  1  0.26248434  0.24379332  0.12086221  1
  O  O300  1  0.24459684  0.25817659  0.61472193  1
  O  O301  1  0.25726856  0.75314629  0.12479417  1
  O  O302  1  0.25814297  0.75531310  0.62503972  1
  O  O303  1  0.76244525  0.24609838  0.11638896  1
  O  O304  1  0.75793404  0.25317984  0.61799560  1
  O  O305  1  0.76524292  0.74946674  0.13178520  1
  O  O306  1  0.74176457  0.75477747  0.61147738  1
  O  O307  1  0.24228198  0.24862596  0.38808502  1
  O  O308  1  0.23484715  0.24349888  0.86910629  1
  O  O309  1  0.24695668  0.73500309  0.37328724  1
  O  O310  1  0.25421452  0.73789041  0.87345554  1
  O  O311  1  0.75127688  0.24374870  0.38296787  1
  O  O312  1  0.73856964  0.25021708  0.88479856  1
  O  O313  1  0.73905955  0.74367217  0.38021339  1
  O  O314  1  0.73701767  0.74065205  0.87121774  1
  O  O315  1  0.01048527  0.11590095  0.00142281  1
  O  O316  1  0.00654890  0.11581814  0.49689328  1
  O  O317  1  0.01233965  0.62183538  -0.00541751  1
  O  O318  1  -0.00896905  0.61881607  0.51209446  1
  O  O319  1  0.50366619  0.12002946  0.00432468  1
  O  O320  1  0.49832069  0.12610858  0.51191272  1
  O  O321  1  0.50330908  0.61341494  0.00827358  1
  O  O322  1  0.50911556  0.61866684  0.49389812  1
  O  O323  1  0.49061226  0.38050926  0.50055033  1
  O  O324  1  0.49264204  0.38755416  0.99954300  1
  O  O325  1  0.49393507  0.87762680  0.49940347  1
  O  O326  1  0.49488396  0.88304386  0.99181253  1
  O  O327  1  0.99551374  0.38044220  0.49463941  1
  O  O328  1  0.99022404  0.36914226  0.98856090  1
  O  O329  1  0.99311535  0.88732760  0.49055414  1
  O  O330  1  1.00507691  0.88565750  0.99299801  1
  O  O331  1  0.49776064  0.49743479  0.38616222  1
  O  O332  1  0.49215811  0.50218149  0.88431197  1
  O  O333  1  0.48692319  1.00556375  0.37448041  1
  O  O334  1  0.49276365  0.99755732  0.88195230  1
  O  O335  1  0.99827851  0.49245425  0.38191493  1
  O  O336  1  1.00614077  0.48151560  0.87407779  1
  O  O337  1  0.99615371  0.99498727  0.38533945  1
  O  O338  1  0.99572267  0.99055748  0.88214809  1
  O  O339  1  0.00581182  0.00768149  0.11394901  1
  O  O340  1  0.01552666  -0.00569221  0.61603289  1
  O  O341  1  0.01620440  0.50022452  0.12730767  1
  O  O342  1  0.00107606  0.51295454  0.61683253  1
  O  O343  1  0.49344438  0.01151729  0.10942635  1
  O  O344  1  0.51339519  0.01430145  0.63007811  1
  O  O345  1  0.50496920  0.50656101  0.11956500  1
  O  O346  1  0.51047254  0.50123614  0.60983482  1
  O  O347  1  0.23812986  0.38257210  0.25674791  1
  O  O348  1  0.24556959  0.37938628  0.74279020  1
  O  O349  1  0.24477904  0.88023334  0.24762677  1
  O  O350  1  0.24438637  0.88882536  0.75571065  1
  O  O351  1  0.74381522  0.38745387  0.25341258  1
  O  O352  1  0.79387968  0.38290921  0.74037268  1
  O  O353  1  0.76923320  0.88555311  0.24185266  1
  O  O354  1  0.73802823  0.86709789  0.74952599  1
  O  O355  1  0.25778112  0.11709487  0.24872956  1
  O  O356  1  0.25432846  0.11481895  0.75393490  1
  O  O357  1  0.25007949  0.61599693  0.25485963  1
  O  O358  1  0.25708059  0.62267759  0.75575250  1
  O  O359  1  0.75719679  0.12802422  0.26101595  1
  O  O360  1  0.76093047  0.12694064  0.74935227  1
  O  O361  1  0.74722276  0.61224022  0.25836713  1
  O  O362  1  0.75888741  0.62423983  0.75829094  1
  O  O363  1  0.37185502  0.12001264  0.36538671  1
  O  O364  1  0.37047609  0.12127324  0.86851030  1
  O  O365  1  0.36297977  0.62331410  0.37254224  1
  O  O366  1  0.36749605  0.62039465  0.86795195  1
  O  O367  1  0.86842383  0.12041366  0.37211780  1
  O  O368  1  0.87935787  0.11031065  0.86751956  1
  O  O369  1  0.86011201  0.62489406  0.37487591  1
  O  O370  1  0.85829320  0.62449645  0.87483692  1
  O  O371  1  0.12278598  0.38035206  0.13260623  1
  O  O372  1  0.13459412  0.37664039  0.63245598  1
  O  O373  1  0.12780736  0.87938707  0.13260405  1
  O  O374  1  0.13197777  0.87915842  0.62534041  1
  O  O375  1  0.61986250  0.38686471  0.12775111  1
  O  O376  1  0.62500005  0.38962511  0.62334309  1
  O  O377  1  0.61496865  0.86710195  0.13095113  1
  O  O378  1  0.62467031  0.88785610  0.63268852  1
  O  O379  1  0.12240452  0.25636732  0.25340093  1
  O  O380  1  0.11797234  0.25492707  0.75584141  1
  O  O381  1  0.12398982  0.76300925  0.24790085  1
  O  O382  1  0.12634539  0.76528209  0.74343059  1
  O  O383  1  0.62860912  0.26475197  0.24381541  1
  O  O384  1  0.62761975  0.24718440  0.76219933  1
  O  O385  1  0.61867117  0.74434422  0.26280733  1
  O  O386  1  0.61774051  0.75300966  0.75450460  1
  O  O387  1  0.36902691  0.24453346  0.23878423  1
  O  O388  1  0.36939629  0.23558376  0.75227502  1
  O  O389  1  0.38409316  0.74773833  0.24299770  1
  O  O390  1  0.38163664  0.74891698  0.73848546  1
  O  O391  1  0.87884433  0.24796627  0.24132799  1
  O  O392  1  0.88274717  0.23685527  0.74563362  1
  O  O393  1  0.87936479  0.74525910  0.24129125  1
  O  O394  1  0.87845903  0.73091017  0.75815411  1
  O  O395  1  0.38290561  0.49322025  0.50023352  1
  O  O396  1  0.37918897  0.49456115  0.99806017  1
  O  O397  1  0.37236078  0.98790201  0.49172714  1
  O  O398  1  0.38020742  0.99344406  0.99454550  1
  O  O399  1  0.88366525  0.49103129  0.49897561  1
  O  O400  1  0.87015141  0.48557963  1.00608358  1
  O  O401  1  0.88121846  0.99994451  0.49192536  1
  O  O402  1  0.88516052  1.00153242  0.98670422  1
  O  O403  1  0.11853234  0.00618947  0.00494794  1
  O  O404  1  0.12003274  0.00816010  0.50502947  1
  O  O405  1  0.13170283  0.51083615  0.00781680  1
  O  O406  1  0.11046093  0.49255516  0.50045739  1
  O  O407  1  0.61363297  0.01207355  -0.00982641  1
  O  O408  1  0.62629216  0.00120451  0.51270006  1
  O  O409  1  0.61760813  0.50464793  0.00572833  1
  O  O410  1  0.61822466  0.50813552  0.50273805  1
  O  O411  1  0.37570044  0.36122090  0.11788924  1
  O  O412  1  0.36036803  0.38106456  0.61383945  1
  O  O413  1  0.36796724  0.85982955  0.11761976  1
  O  O414  1  0.37918684  0.87133018  0.61016472  1
  O  O415  1  0.88563793  0.36477879  0.10993804  1
  O  O416  1  0.88395286  0.36245588  0.61035718  1
  O  O417  1  0.89236678  0.85525205  0.11388962  1
  O  O418  1  0.87709678  0.88521871  0.61106726  1
  O  O419  1  0.12715566  0.13032435  0.38677699  1
  O  O420  1  0.12922527  0.12956483  0.88227009  1
  O  O421  1  0.13897909  0.62793476  0.37666508  1
  O  O422  1  0.13161519  0.61849100  0.88536846  1
  O  O423  1  0.63387024  0.13260662  0.37923457  1
  O  O424  1  0.61806471  0.13893632  0.88528198  1
  O  O425  1  0.63509521  0.62907050  0.38385162  1
  O  O426  1  0.63075265  0.62887267  0.87859707  1
