# generated using pymatgen
data_V85Zn86O256
_symmetry_space_group_name_H-M   'P 1'
_cell_length_a   16.99755040
_cell_length_b   16.97731483
_cell_length_c   16.97724599
_cell_angle_alpha   89.93652786
_cell_angle_beta   90.02015366
_cell_angle_gamma   89.96951474
_symmetry_Int_Tables_number   1
_chemical_formula_structural   V85Zn86O256
_chemical_formula_sum   'V85 Zn86 O256'
_cell_volume   4899.16680523
_cell_formula_units_Z   1
loop_
 _symmetry_equiv_pos_site_id
 _symmetry_equiv_pos_as_xyz
  1  'x, y, z'
loop_
 _atom_site_type_symbol
 _atom_site_label
 _atom_site_symmetry_multiplicity
 _atom_site_fract_x
 _atom_site_fract_y
 _atom_site_fract_z
 _atom_site_occupancy
  V  V0  1  0.24123216  0.75910793  -0.01182305  1
  V  V1  1  0.87469598  -0.00633780  0.37081674  1
  V  V2  1  0.62373853  0.62341207  -0.00349222  1
  V  V3  1  0.00617009  0.36358486  0.88187524  1
  V  V4  1  -0.00092615  0.50509408  0.00883138  1
  V  V5  1  0.87554595  0.24511518  0.13504334  1
  V  V6  1  0.75291642  0.24759640  0.00354893  1
  V  V7  1  0.62529230  0.00066189  0.62367124  1
  V  V8  1  0.37245629  0.62428315  0.25163535  1
  V  V9  1  -0.05687226  0.44258455  0.54781533  1
  V  V10  1  0.37220548  0.00301754  0.36833305  1
  V  V11  1  0.75432182  -0.00118693  0.74739600  1
  V  V12  1  0.88257040  0.62502367  0.24177838  1
  V  V13  1  0.37327825  0.25240015  0.11507103  1
  V  V14  1  0.37165677  0.74888174  0.62833950  1
  V  V15  1  0.50318189  0.00007979  0.00364013  1
  V  V16  1  0.24405196  0.62218908  0.37364067  1
  V  V17  1  0.49767850  0.74950330  0.25279214  1
  V  V18  1  0.74779122  0.37341775  0.12823677  1
  V  V19  1  0.48132329  0.36935223  0.37605957  1
  V  V20  1  0.62699362  0.87454165  0.74872614  1
  V  V21  1  0.24713853  0.12901894  0.36891713  1
  V  V22  1  0.38153744  0.00594736  0.87316595  1
  V  V23  1  0.74967870  0.62486390  0.37420879  1
  V  V24  1  0.50361247  0.13239041  0.62637407  1
  V  V25  1  0.75337851  0.12344846  0.87603772  1
  V  V26  1  0.49726776  0.62322203  0.12161450  1
  V  V27  1  0.12680754  0.37330968  0.26009045  1
  V  V28  1  0.50385268  0.87404697  0.87749249  1
  V  V29  1  0.75567524  0.75165333  -0.00017163  1
  V  V30  1  0.87369657  -0.00844540  0.88360289  1
  V  V31  1  0.75032842  0.00398286  0.25050959  1
  V  V32  1  0.62326307  0.74801293  0.37363467  1
  V  V33  1  0.37788243  0.13101899  0.25052072  1
  V  V34  1  0.13082325  0.49902895  0.62966388  1
  V  V35  1  0.25655100  0.49691661  0.25054142  1
  V  V36  1  0.00247214  0.87147243  0.88649609  1
  V  V37  1  0.75029037  0.13262940  0.37873885  1
  V  V38  1  0.49389571  0.75581345  0.75012660  1
  V  V39  1  0.23314332  0.23213801  -0.00867255  1
  V  V40  1  0.75253510  0.48657656  0.74368626  1
  V  V41  1  0.24850742  0.87773319  0.13102055  1
  V  V42  1  0.00356599  0.24732965  0.26111084  1
  V  V43  1  0.25173637  0.25856268  0.49338051  1
  V  V44  1  0.88176632  0.49473521  0.37438852  1
  V  V45  1  0.00185923  0.75272291  0.75378858  1
  V  V46  1  0.62397099  0.25385353  0.87217131  1
  V  V47  1  0.50049812  0.00275617  0.49876030  1
  V  V48  1  0.24931503  0.88116057  0.62757243  1
  V  V49  1  0.12852494  0.36680043  0.75418621  1
  V  V50  1  0.37364403  0.87406835  0.49862062  1
  V  V51  1  0.62335650  0.62426469  0.50138895  1
  V  V52  1  0.13275346  0.00850247  0.13269802  1
  V  V53  1  0.62632312  0.12269850  0.00256746  1
  V  V54  1  0.75684055  0.87425864  0.12459490  1
  V  V55  1  -0.00215752  0.12539605  0.13004163  1
  V  V56  1  0.00050843  0.62676589  0.62431248  1
  V  V57  1  0.37767638  0.25257820  0.62224293  1
  V  V58  1  0.62070234  0.49709520  0.12167537  1
  V  V59  1  0.87806351  0.37509693  0.00298248  1
  V  V60  1  0.12391629  0.87228119  0.25845480  1
  V  V61  1  0.41564485  0.58602907  0.80411483  1
  V  V62  1  0.75483042  0.75973147  0.49757300  1
  V  V63  1  0.74969256  0.26882980  0.51146055  1
  V  V64  1  0.50239052  0.13013771  0.13094467  1
  V  V65  1  0.24959385  0.37696889  0.11538436  1
  V  V66  1  0.22209581  0.02220665  0.78707832  1
  V  V67  1  0.11815836  0.62245559  0.49667403  1
  V  V68  1  0.61391932  0.36196424  0.25978678  1
  V  V69  1  0.37997031  0.12369234  0.74905538  1
  V  V70  1  0.12766702  0.00342123  0.61847724  1
  V  V71  1  -0.00078154  0.00277169  0.00712494  1
  V  V72  1  0.49944710  0.62049580  0.62304490  1
  V  V73  1  0.87192741  0.62968979  0.75251137  1
  V  V74  1  0.49777371  0.87398310  0.37309594  1
  V  V75  1  0.74550037  0.49917540  0.25235319  1
  V  V76  1  0.25675646  0.37724589  0.63075418  1
  V  V77  1  0.37344428  0.87832088  0.00222927  1
  V  V78  1  0.11871348  0.63410509  0.00666366  1
  V  V79  1  0.12359936  0.87473749  0.75559778  1
  V  V80  1  -0.00509013  -0.00408608  0.49690198  1
  V  V81  1  0.87761321  0.76044952  0.62016541  1
  V  V82  1  0.12249575  0.13164331  0.49244172  1
  V  V83  1  0.24193490  0.75105038  0.49482726  1
  V  V84  1  0.23810485  0.61250717  0.86986738  1
  Zn  Zn85  1  0.75117005  0.62365903  0.87560097  1
  Zn  Zn86  1  0.37308221  0.75367045  0.12504928  1
  Zn  Zn87  1  -0.00142499  0.24687319  0.74873165  1
  Zn  Zn88  1  0.12041030  0.50517924  0.13119614  1
  Zn  Zn89  1  0.62583973  0.87435737  0.24799328  1
  Zn  Zn90  1  0.00065501  0.37305356  0.37915577  1
  Zn  Zn91  1  0.87643414  0.25013838  0.62246428  1
  Zn  Zn92  1  0.88479766  0.75055173  0.11988467  1
  Zn  Zn93  1  0.33834083  0.42888844  -0.06387268  1
  Zn  Zn94  1  0.49380773  0.36591942  -0.11029654  1
  Zn  Zn95  1  0.47024272  0.48335701  0.49695710  1
  Zn  Zn96  1  0.87486797  0.50180800  0.87901049  1
  Zn  Zn97  1  0.87701898  0.12976197  0.74699719  1
  Zn  Zn98  1  0.62326966  0.13285893  0.49166537  1
  Zn  Zn99  1  0.63164796  0.49237211  0.62024023  1
  Zn  Zn100  1  0.00999220  0.74129349  0.25091370  1
  Zn  Zn101  1  0.75482678  0.87836477  0.62028282  1
  Zn  Zn102  1  0.62609685  -0.00291910  0.12765664  1
  Zn  Zn103  1  0.62540866  0.74583962  0.87399927  1
  Zn  Zn104  1  0.99438969  0.86191998  0.38028050  1
  Zn  Zn105  1  -0.00259978  0.12714747  0.62652305  1
  Zn  Zn106  1  0.60461961  0.35358585  0.72741358  1
  Zn  Zn107  1  0.18819969  0.19197899  0.18738312  1
  Zn  Zn108  1  0.18734194  0.18865117  0.68296573  1
  Zn  Zn109  1  0.18914199  0.69366182  0.18295614  1
  Zn  Zn110  1  0.18491696  0.69103746  0.68784625  1
  Zn  Zn111  1  0.68930873  0.18341387  0.19194942  1
  Zn  Zn112  1  0.69262028  0.18671721  0.68482278  1
  Zn  Zn113  1  0.68788287  0.68679807  0.18518496  1
  Zn  Zn114  1  0.68730235  0.68954358  0.68606147  1
  Zn  Zn115  1  0.31588808  0.31048115  0.30518679  1
  Zn  Zn116  1  0.30285521  0.29634452  0.81150285  1
  Zn  Zn117  1  0.30934763  0.81000615  0.31309122  1
  Zn  Zn118  1  0.31007187  0.82460415  0.81357094  1
  Zn  Zn119  1  0.81165010  0.31467535  0.31433959  1
  Zn  Zn120  1  0.81595532  0.31040998  0.81455218  1
  Zn  Zn121  1  0.81317526  0.81308851  0.31015245  1
  Zn  Zn122  1  0.81310823  0.81151196  0.81536107  1
  Zn  Zn123  1  0.18886472  0.44126568  0.44102358  1
  Zn  Zn124  1  0.17511753  0.43987316  0.94256890  1
  Zn  Zn125  1  0.19068207  0.94407537  0.43852686  1
  Zn  Zn126  1  0.18085472  0.95554849  0.94111544  1
  Zn  Zn127  1  0.68152410  0.43896398  0.43552486  1
  Zn  Zn128  1  0.69516023  0.43932701  0.93886297  1
  Zn  Zn129  1  0.68455422  0.93762469  0.43323742  1
  Zn  Zn130  1  0.68835487  0.93355783  0.93977207  1
  Zn  Zn131  1  0.31360839  0.06500651  0.06211011  1
  Zn  Zn132  1  0.31259730  0.06753307  0.55739517  1
  Zn  Zn133  1  0.30292755  0.57018787  0.06365363  1
  Zn  Zn134  1  0.30887941  0.56398114  0.57025045  1
  Zn  Zn135  1  0.81638120  0.06080401  0.06589735  1
  Zn  Zn136  1  0.81637588  0.06479339  0.55837657  1
  Zn  Zn137  1  0.80803567  0.56130062  0.06337838  1
  Zn  Zn138  1  0.80923439  0.57358254  0.56549811  1
  Zn  Zn139  1  0.43839854  0.43746526  0.07746533  1
  Zn  Zn140  1  0.41652792  0.41134044  0.74111290  1
  Zn  Zn141  1  0.43722569  0.94197326  0.18891550  1
  Zn  Zn142  1  0.43729416  0.94028882  0.68612877  1
  Zn  Zn143  1  0.93779193  0.43482174  0.19064572  1
  Zn  Zn144  1  0.94167567  0.43866400  0.70898629  1
  Zn  Zn145  1  0.93816999  0.93397029  0.19198991  1
  Zn  Zn146  1  0.94103684  0.94234372  0.68877483  1
  Zn  Zn147  1  0.06160335  0.06084215  0.31098389  1
  Zn  Zn148  1  0.05482936  0.06273652  0.81619749  1
  Zn  Zn149  1  0.06327918  0.55789740  0.31459561  1
  Zn  Zn150  1  0.06012267  0.55721201  0.81753236  1
  Zn  Zn151  1  0.56541623  0.06448959  0.31081218  1
  Zn  Zn152  1  0.56563408  0.06529788  0.81144017  1
  Zn  Zn153  1  0.55603819  0.55414423  0.31301642  1
  Zn  Zn154  1  0.57244394  0.51991249  0.81803096  1
  Zn  Zn155  1  0.43902418  0.19406950  0.43745939  1
  Zn  Zn156  1  0.43802008  0.18850817  0.94023186  1
  Zn  Zn157  1  0.41757454  0.65762852  0.45300934  1
  Zn  Zn158  1  0.43481671  0.69258657  0.94351741  1
  Zn  Zn159  1  0.92779697  0.18284619  0.43945107  1
  Zn  Zn160  1  0.93785148  0.18365440  0.94357547  1
  Zn  Zn161  1  0.93750488  0.68633611  0.43162543  1
  Zn  Zn162  1  0.93857078  0.68883169  0.93719505  1
  Zn  Zn163  1  0.06542364  0.31210626  0.07025542  1
  Zn  Zn164  1  0.06941523  0.30567090  0.56821515  1
  Zn  Zn165  1  0.06110253  0.81337140  0.07104388  1
  Zn  Zn166  1  0.06326225  0.81486603  0.56292055  1
  Zn  Zn167  1  0.56427351  0.30937288  0.06155333  1
  Zn  Zn168  1  0.56536754  0.31415061  0.54891072  1
  Zn  Zn169  1  0.56834481  0.80998117  0.06609801  1
  Zn  Zn170  1  0.56305400  0.81114984  0.56140003  1
  O  O171  1  0.11927092  0.11288184  0.13361816  1
  O  O172  1  0.12519470  0.11787272  0.61305868  1
  O  O173  1  0.13189685  0.62492434  0.11073740  1
  O  O174  1  0.11945041  0.61760723  0.62321617  1
  O  O175  1  0.61808331  0.12332043  0.12101127  1
  O  O176  1  0.61811101  0.11858008  0.62347557  1
  O  O177  1  0.61748223  0.61808524  0.11830834  1
  O  O178  1  0.61649465  0.62998357  0.61753743  1
  O  O179  1  0.38218407  0.37867320  0.36591478  1
  O  O180  1  0.38050444  0.36993941  0.85129201  1
  O  O181  1  0.37708876  0.88396004  0.37830733  1
  O  O182  1  0.38777855  0.88096533  0.88383633  1
  O  O183  1  0.87556005  0.39003468  0.37157975  1
  O  O184  1  0.88052286  0.37440440  0.89180236  1
  O  O185  1  0.87451466  0.88815692  0.37335221  1
  O  O186  1  0.88348946  0.88608760  0.87234669  1
  O  O187  1  0.26635678  0.01302179  0.38425270  1
  O  O188  1  0.27731977  -0.01688404  0.87828335  1
  O  O189  1  0.24604581  0.51430992  0.36831197  1
  O  O190  1  0.24987232  0.51156918  0.88177325  1
  O  O191  1  0.75781848  0.00062972  0.36943539  1
  O  O192  1  0.75619049  0.00298752  0.87181238  1
  O  O193  1  0.75396547  0.50520370  0.36772939  1
  O  O194  1  0.75379533  0.50422626  0.86307539  1
  O  O195  1  0.24509595  0.49241473  0.13291338  1
  O  O196  1  0.24355623  0.49009618  0.62506257  1
  O  O197  1  0.23783163  0.99633851  0.12031462  1
  O  O198  1  0.23807054  0.99574935  0.61258146  1
  O  O199  1  0.74229264  0.49376466  0.13380103  1
  O  O200  1  0.75698236  0.50430232  0.63979818  1
  O  O201  1  0.75140077  0.99465626  0.13383496  1
  O  O202  1  0.74573672  0.99817438  0.63223133  1
  O  O203  1  0.00973099  0.36682222  0.25143232  1
  O  O204  1  0.00861207  0.37032204  0.76540896  1
  O  O205  1  0.01713878  0.87952631  0.25692948  1
  O  O206  1  0.00668805  0.87515430  0.76012325  1
  O  O207  1  0.51381036  0.37584939  0.26047653  1
  O  O208  1  0.52383264  0.41052513  0.78396934  1
  O  O209  1  0.49906463  0.86715173  0.25486430  1
  O  O210  1  0.50678233  0.87277138  0.75469977  1
  O  O211  1  0.49269423  0.12175374  0.24151298  1
  O  O212  1  0.49330365  0.11882155  0.73770445  1
  O  O213  1  0.49137678  0.62924149  0.24482064  1
  O  O214  1  0.48987364  0.63747056  0.74352853  1
  O  O215  1  1.00415901  0.13312098  0.24051787  1
  O  O216  1  0.99715283  0.12750671  0.75075271  1
  O  O217  1  0.98503736  0.61828020  0.25108286  1
  O  O218  1  0.99234570  0.62921782  0.74603214  1
  O  O219  1  0.36379458  0.23993468  0.01113789  1
  O  O220  1  0.36509497  0.24278718  0.51496031  1
  O  O221  1  0.36747336  0.76687194  0.00265533  1
  O  O222  1  0.36192030  0.75378307  0.50864022  1
  O  O223  1  0.87135447  0.25603072  0.01151969  1
  O  O224  1  0.85516978  0.24585042  0.50145506  1
  O  O225  1  0.85975737  0.74115263  0.00267570  1
  O  O226  1  0.86696347  0.74328936  0.50859175  1
  O  O227  1  0.13591932  0.23876818  0.50049776  1
  O  O228  1  0.13477043  0.24902601  1.00645740  1
  O  O229  1  0.13694766  0.74239033  0.51117485  1
  O  O230  1  0.12983552  0.74743996  1.00237002  1
  O  O231  1  0.64484578  0.24642199  0.49895608  1
  O  O232  1  0.63575513  0.23922794  0.99656379  1
  O  O233  1  0.63403481  0.74600609  0.49280973  1
  O  O234  1  0.63365099  0.74001458  0.99851022  1
  O  O235  1  0.49061117  0.23622167  0.11839169  1
  O  O236  1  0.49344295  0.23889905  0.61719488  1
  O  O237  1  0.50056756  0.74378038  0.13784593  1
  O  O238  1  0.49162521  0.75088905  0.63376901  1
  O  O239  1  0.99372001  0.24281512  0.13318351  1
  O  O240  1  0.99606621  0.24607774  0.62671519  1
  O  O241  1  0.99517077  0.75585176  0.13849703  1
  O  O242  1  0.99480098  0.74817921  0.63166538  1
  O  O243  1  -0.01096664  0.24973193  0.36357599  1
  O  O244  1  -0.00309200  0.26080779  0.88231476  1
  O  O245  1  -0.00404261  0.75096853  0.36395276  1
  O  O246  1  -0.00493598  0.76284531  0.86850332  1
  O  O247  1  0.49638233  0.26647823  0.37373635  1
  O  O248  1  0.52063620  0.24491881  0.88060277  1
  O  O249  1  0.50127800  0.75209348  0.36278661  1
  O  O250  1  0.50108412  0.75499332  0.86689975  1
  O  O251  1  0.24417300  0.13470368  0.48931122  1
  O  O252  1  0.24366143  0.13259952  1.00551674  1
  O  O253  1  0.23807007  0.63308991  0.49351366  1
  O  O254  1  0.24108520  0.64042554  0.98926504  1
  O  O255  1  0.74517274  0.12173431  0.48640776  1
  O  O256  1  0.74636499  0.12590050  0.99527725  1
  O  O257  1  0.74273499  0.63743188  0.49449367  1
  O  O258  1  0.73996328  0.63127982  1.00062531  1
  O  O259  1  0.24835511  0.37235494  0.00407328  1
  O  O260  1  0.24623721  0.36586215  0.51034979  1
  O  O261  1  0.25469038  0.87732571  0.00789307  1
  O  O262  1  0.25420647  0.86844835  0.50348648  1
  O  O263  1  0.75953801  0.36952330  0.00906814  1
  O  O264  1  0.74905933  0.36670318  0.49568569  1
  O  O265  1  0.74649156  0.86369374  0.00891351  1
  O  O266  1  0.74530466  0.86329795  0.49988641  1
  O  O267  1  0.13393424  0.49348008  0.24832993  1
  O  O268  1  0.11363404  0.49004732  0.73586716  1
  O  O269  1  0.12482726  0.99242340  0.23798757  1
  O  O270  1  0.12326108  0.99362469  0.73383238  1
  O  O271  1  0.63162873  0.49462338  0.24052764  1
  O  O272  1  0.64994214  0.51640201  0.74010997  1
  O  O273  1  0.63535440  0.99568229  0.24858330  1
  O  O274  1  0.63640418  0.99528696  0.74663117  1
  O  O275  1  0.37728090  0.01251542  0.25944074  1
  O  O276  1  0.37495012  0.00855216  0.75778326  1
  O  O277  1  0.35767710  0.51195540  0.24578086  1
  O  O278  1  0.36964057  0.51840404  0.74885252  1
  O  O279  1  0.86850384  -0.00205215  0.26274635  1
  O  O280  1  0.86417988  -0.00115705  0.75922644  1
  O  O281  1  0.86697356  0.50619157  0.25513101  1
  O  O282  1  0.86650884  0.50996731  0.75472356  1
  O  O283  1  0.12509452  0.38059630  0.36396401  1
  O  O284  1  0.11775380  0.37905413  0.86649084  1
  O  O285  1  0.13534458  0.88493920  0.35850030  1
  O  O286  1  0.11459651  0.88675459  0.86645263  1
  O  O287  1  0.62861047  0.37218603  0.36083272  1
  O  O288  1  0.63392620  0.35474872  0.88773696  1
  O  O289  1  0.61445676  0.86604436  0.37267252  1
  O  O290  1  0.61940583  0.87386738  0.86634104  1
  O  O291  1  0.38197661  0.12711273  0.13257143  1
  O  O292  1  0.38381325  0.12743027  0.62920728  1
  O  O293  1  0.38046663  0.63128941  0.13405541  1
  O  O294  1  0.37983574  0.64462459  0.62887815  1
  O  O295  1  0.88309283  0.13498196  0.12550781  1
  O  O296  1  0.87876483  0.12384797  0.62876961  1
  O  O297  1  0.86929440  0.62164141  0.14016879  1
  O  O298  1  0.88352008  0.63680120  0.63200629  1
  O  O299  1  0.25465220  0.25672308  0.11586077  1
  O  O300  1  0.25705121  0.25795370  0.61667319  1
  O  O301  1  0.25202273  0.76337675  0.11236595  1
  O  O302  1  0.25598709  0.75906828  0.62275869  1
  O  O303  1  0.75829275  0.25199270  0.12321507  1
  O  O304  1  0.75391896  0.25396403  0.61588662  1
  O  O305  1  0.75192707  0.75650011  0.11816276  1
  O  O306  1  0.75964916  0.75320219  0.61598462  1
  O  O307  1  0.25947249  0.24392167  0.38463561  1
  O  O308  1  0.24640037  0.24364614  0.89192168  1
  O  O309  1  0.25082055  0.73998111  0.38526861  1
  O  O310  1  0.24827379  0.76045981  0.88629893  1
  O  O311  1  0.75704459  0.23486760  0.37573280  1
  O  O312  1  0.74777590  0.23929707  0.88359441  1
  O  O313  1  0.74549587  0.74495035  0.37991058  1
  O  O314  1  0.74543846  0.74662504  0.88343748  1
  O  O315  1  -0.00236479  0.11624762  0.01638957  1
  O  O316  1  0.00903745  0.11569851  0.49465007  1
  O  O317  1  0.00713348  0.61810222  -0.00441735  1
  O  O318  1  0.01171838  0.63225004  0.50753616  1
  O  O319  1  0.50681346  0.11837243  0.00732481  1
  O  O320  1  0.50263463  0.11795933  0.50470293  1
  O  O321  1  0.50583965  0.63658073  0.01524394  1
  O  O322  1  0.51485752  0.64812225  0.51273199  1
  O  O323  1  0.49183781  0.37322579  0.48521107  1
  O  O324  1  0.49538039  0.37330835  1.00197509  1
  O  O325  1  0.49235796  0.88017248  0.49363918  1
  O  O326  1  0.49432689  0.87914053  0.99969288  1
  O  O327  1  1.00536305  0.37774562  0.49817548  1
  O  O328  1  0.99512891  0.37929197  1.00068843  1
  O  O329  1  1.01356090  0.89105832  0.49333300  1
  O  O330  1  1.00445798  0.88148140  0.99163509  1
  O  O331  1  0.50961802  0.47905763  0.38125144  1
  O  O332  1  0.47487749  0.53864035  0.87024669  1
  O  O333  1  0.49192914  0.99707123  0.38092788  1
  O  O334  1  0.49694053  0.99551964  0.88149633  1
  O  O335  1  0.98831349  0.49620141  0.37529306  1
  O  O336  1  0.99650250  0.48720839  0.88947211  1
  O  O337  1  0.98725267  0.99956760  0.37789408  1
  O  O338  1  0.99049890  0.99563404  0.88849107  1
  O  O339  1  0.00326356  0.00646487  0.12565708  1
  O  O340  1  0.01072420  0.00082890  0.61464793  1
  O  O341  1  -0.00000054  0.49378033  0.11302074  1
  O  O342  1  0.00077065  0.50084506  0.61713229  1
  O  O343  1  0.50195770  0.01012427  0.11957614  1
  O  O344  1  0.50388535  0.00802660  0.61625612  1
  O  O345  1  0.50991709  0.51181648  0.13121613  1
  O  O346  1  0.49986914  0.51964758  0.61714836  1
  O  O347  1  0.24455750  0.38110450  0.24452274  1
  O  O348  1  0.24254010  0.36977524  0.73970972  1
  O  O349  1  0.24596774  0.87306888  0.23739192  1
  O  O350  1  0.23893114  0.89617391  0.75053355  1
  O  O351  1  0.74571171  0.38537630  0.24581932  1
  O  O352  1  0.74906908  0.38685613  0.75448232  1
  O  O353  1  0.74813836  0.88462762  0.24458003  1
  O  O354  1  0.74416057  0.88160478  0.74896012  1
  O  O355  1  0.25654338  0.13131568  0.26249535  1
  O  O356  1  0.25604511  0.11081763  0.74212621  1
  O  O357  1  0.25110461  0.62286919  0.25477418  1
  O  O358  1  0.23669421  0.63270619  0.77173007  1
  O  O359  1  0.74903603  0.11166392  0.25918773  1
  O  O360  1  0.75046180  0.11470749  0.76042512  1
  O  O361  1  0.75211393  0.61255029  0.25345709  1
  O  O362  1  0.76500117  0.63177412  0.75039726  1
  O  O363  1  0.37294335  0.12167762  0.36781933  1
  O  O364  1  0.38515790  0.11673287  0.86463991  1
  O  O365  1  0.36226242  0.63451667  0.35610811  1
  O  O366  1  0.35603356  0.64184440  0.87052440  1
  O  O367  1  0.85960014  0.10928294  0.37703270  1
  O  O368  1  0.86442982  0.11410951  0.87902774  1
  O  O369  1  0.86641925  0.61294148  0.36691138  1
  O  O370  1  0.87540795  0.62363063  0.86547629  1
  O  O371  1  0.13722244  0.37684598  0.13566546  1
  O  O372  1  0.13459761  0.38165600  0.63144540  1
  O  O373  1  0.13214662  0.88687391  0.13509088  1
  O  O374  1  0.13145659  0.88350045  0.63099140  1
  O  O375  1  0.62930342  0.38164080  0.13190498  1
  O  O376  1  0.61714550  0.38026890  0.62237113  1
  O  O377  1  0.63833720  0.87689405  0.12820144  1
  O  O378  1  0.62535426  0.88218172  0.63321518  1
  O  O379  1  0.11530682  0.25953574  0.24718729  1
  O  O380  1  0.12396241  0.26263199  0.74516580  1
  O  O381  1  0.12969587  0.76833274  0.24671945  1
  O  O382  1  0.11846365  0.76784998  0.74388636  1
  O  O383  1  0.62836502  0.26454207  0.24190222  1
  O  O384  1  0.63412905  0.24861149  0.76693229  1
  O  O385  1  0.61685908  0.74799003  0.25678328  1
  O  O386  1  0.61303468  0.75637016  0.75033025  1
  O  O387  1  0.36990739  0.23661985  0.23418453  1
  O  O388  1  0.36616503  0.23019708  0.73749424  1
  O  O389  1  0.38167463  0.74601777  0.24568701  1
  O  O390  1  0.38488874  0.76740258  0.74333142  1
  O  O391  1  0.88272350  0.25914164  0.23914620  1
  O  O392  1  0.87739494  0.24943210  0.74502920  1
  O  O393  1  0.86587447  0.72900438  0.25045659  1
  O  O394  1  0.88211955  0.74624931  0.74384341  1
  O  O395  1  0.38452929  0.55211326  0.49200687  1
  O  O396  1  0.37171128  0.50106821  1.01125453  1
  O  O397  1  0.38591836  0.99669842  0.49408460  1
  O  O398  1  0.38328178  0.99455443  0.99543129  1
  O  O399  1  0.87723450  0.50431344  0.49504487  1
  O  O400  1  0.87919904  0.49212911  1.00203644  1
  O  O401  1  0.88462553  0.99979383  0.48833576  1
  O  O402  1  0.88596149  0.99933316  0.99598954  1
  O  O403  1  0.10915699  -0.00421588  0.02152331  1
  O  O404  1  0.12027327  0.01133234  0.50192225  1
  O  O405  1  0.11464889  0.51133964  0.00706478  1
  O  O406  1  0.12883085  0.51100422  0.51474039  1
  O  O407  1  0.61998247  0.00579963  0.00163128  1
  O  O408  1  0.61148014  -0.00256626  0.50346257  1
  O  O409  1  0.63264186  0.50569026  0.01386422  1
  O  O410  1  0.63106962  0.51846713  0.50208642  1
  O  O411  1  0.36086901  0.36326242  0.12881305  1
  O  O412  1  0.37051192  0.36344428  0.64359525  1
  O  O413  1  0.36701596  0.88080056  0.11807003  1
  O  O414  1  0.36893718  0.87150142  0.61814829  1
  O  O415  1  0.86993612  0.36862422  0.11821564  1
  O  O416  1  0.89115587  0.38817169  0.61397621  1
  O  O417  1  0.86130676  0.87234711  0.13248154  1
  O  O418  1  0.87695191  0.86396503  0.62976296  1
  O  O419  1  0.13594640  0.11837920  0.38005826  1
  O  O420  1  0.15590002  0.05684231  0.86434225  1
  O  O421  1  0.12995271  0.62107930  0.38527873  1
  O  O422  1  0.13189891  0.62058858  0.88684104  1
  O  O423  1  0.64366467  0.11677361  0.37483376  1
  O  O424  1  0.63682887  0.12984195  0.88080947  1
  O  O425  1  0.62861968  0.62995794  0.38029466  1
  O  O426  1  0.62230258  0.61784900  0.89074854  1
