# generated using pymatgen
data_V85Zn86O256
_symmetry_space_group_name_H-M   'P 1'
_cell_length_a   16.91452934
_cell_length_b   16.91420830
_cell_length_c   16.91639736
_cell_angle_alpha   90.00257906
_cell_angle_beta   89.99346548
_cell_angle_gamma   90.02075351
_symmetry_Int_Tables_number   1
_chemical_formula_structural   V85Zn86O256
_chemical_formula_sum   'V85 Zn86 O256'
_cell_volume   4839.71110731
_cell_formula_units_Z   1
loop_
 _symmetry_equiv_pos_site_id
 _symmetry_equiv_pos_as_xyz
  1  'x, y, z'
loop_
 _atom_site_type_symbol
 _atom_site_label
 _atom_site_symmetry_multiplicity
 _atom_site_fract_x
 _atom_site_fract_y
 _atom_site_fract_z
 _atom_site_occupancy
  V  V0  1  0.37670701  0.37580893  0.00133508  1
  V  V1  1  0.75674553  0.37170832  0.12599712  1
  V  V2  1  0.86878167  0.88868310  0.49765138  1
  V  V3  1  0.62600886  0.12352413  -0.00049501  1
  V  V4  1  0.49931594  0.74870249  0.75050272  1
  V  V5  1  0.62707651  0.37615441  0.25173247  1
  V  V6  1  0.62516111  -0.00016649  0.12527460  1
  V  V7  1  0.12604790  0.74714837  0.88805914  1
  V  V8  1  0.25080407  0.37402523  0.12632665  1
  V  V9  1  0.62689187  0.87454157  0.25235918  1
  V  V10  1  0.49512445  0.87779228  0.87510251  1
  V  V11  1  0.24703085  0.49688287  0.74387464  1
  V  V12  1  0.11800350  0.87389333  0.23591081  1
  V  V13  1  0.37228459  0.62342356  0.75100154  1
  V  V14  1  0.50293404  0.37649424  0.87481018  1
  V  V15  1  0.75350342  0.24790986  0.00310168  1
  V  V16  1  0.13434779  0.62258183  0.49458786  1
  V  V17  1  0.50125692  0.37657391  0.37545981  1
  V  V18  1  0.62734439  0.00247915  0.62099454  1
  V  V19  1  0.87760772  0.00259706  0.87104758  1
  V  V20  1  0.75419218  -0.00251091  0.74560889  1
  V  V21  1  0.12501474  0.37146445  0.74515117  1
  V  V22  1  0.74812223  0.49661830  0.73630288  1
  V  V23  1  0.12666023  0.12257973  0.00663694  1
  V  V24  1  0.00414653  0.89026937  0.38502434  1
  V  V25  1  0.12531804  0.24668587  0.87451871  1
  V  V26  1  0.36210210  0.75320858  0.12141842  1
  V  V27  1  0.24480871  0.62570051  0.88745660  1
  V  V28  1  0.62532643  0.74400950  0.87905622  1
  V  V29  1  0.62666833  0.25197038  0.87394523  1
  V  V30  1  0.86528560  0.75362166  0.61143767  1
  V  V31  1  0.62725601  0.37851905  0.73540149  1
  V  V32  1  0.12344878  0.50656658  0.11819886  1
  V  V33  1  0.37351571  0.12576737  0.24703274  1
  V  V34  1  0.24598068  0.24543234  0.50005512  1
  V  V35  1  0.36994604  0.37613465  0.50376997  1
  V  V36  1  0.00093712  0.62480231  0.61245988  1
  V  V37  1  0.74932122  0.74181811  0.00155428  1
  V  V38  1  0.88443977  0.63445873  0.25210846  1
  V  V39  1  0.00320585  -0.00042113  0.00621808  1
  V  V40  1  0.49650121  0.24450977  0.75171739  1
  V  V41  1  0.50177092  0.62260275  0.62555958  1
  V  V42  1  0.12215060  0.74869881  0.37170217  1
  V  V43  1  0.36863409  0.74956357  0.62385687  1
  V  V44  1  0.37343048  0.50128205  0.87463982  1
  V  V45  1  0.50489981  0.50339169  0.00059875  1
  V  V46  1  0.74635433  0.24788613  0.50717820  1
  V  V47  1  0.87480223  0.49884526  0.87172021  1
  V  V48  1  0.87233828  0.12713939  0.24683612  1
  V  V49  1  0.50513618  0.62915674  0.12274752  1
  V  V50  1  0.75234297  0.62960055  0.37985827  1
  V  V51  1  0.37267262  0.62743314  0.25520758  1
  V  V52  1  0.49976480  0.00784031  0.49801211  1
  V  V53  1  0.87824625  0.37156096  0.00037827  1
  V  V54  1  -0.00432460  0.23476304  0.75048244  1
  V  V55  1  -0.00882397  0.25385896  0.24025761  1
  V  V56  1  0.74979971  0.87532945  0.12570399  1
  V  V57  1  0.24970384  0.50348674  0.25896490  1
  V  V58  1  0.36493409  0.87360097  0.00046086  1
  V  V59  1  0.36659561  -0.00152658  0.37451589  1
  V  V60  1  0.49678717  0.12435671  0.62608674  1
  V  V61  1  0.87285800  0.87529240  -0.00121366  1
  V  V62  1  0.12426262  0.87171849  0.74732702  1
  V  V63  1  0.49794576  0.87467401  0.37520269  1
  V  V64  1  0.75357177  0.50276472  0.25219088  1
  V  V65  1  0.24303339  -0.00482968  0.23137195  1
  V  V66  1  0.49611868  -0.00097711  -0.00202871  1
  V  V67  1  0.62775523  0.75056774  0.38174501  1
  V  V68  1  0.87582655  0.62839727  0.74821552  1
  V  V69  1  0.87105681  0.23383838  0.63279477  1
  V  V70  1  0.50607787  0.49888898  0.50558759  1
  V  V71  1  0.12025860  0.48979680  0.61735153  1
  V  V72  1  0.75567550  0.00017050  0.26027392  1
  V  V73  1  0.87170162  0.38002983  0.51419778  1
  V  V74  1  0.36892493  0.24986397  0.62844330  1
  V  V75  1  0.63274006  0.50656845  0.11650452  1
  V  V76  1  0.62473880  0.24068499  0.37974231  1
  V  V77  1  0.12308461  0.37272239  0.25227202  1
  V  V78  1  0.26286866  0.12093580  0.87115551  1
  V  V79  1  -0.00577096  0.37677419  0.38194544  1
  V  V80  1  0.62821574  0.87346105  0.74353994  1
  V  V81  1  0.11171658  0.00880648  0.62624255  1
  V  V82  1  0.62964399  0.62366603  0.50696214  1
  V  V83  1  0.75198848  0.12431889  0.86867535  1
  V  V84  1  0.26508932  -0.00058107  0.74942683  1
  Zn  Zn85  1  0.00492048  0.50501504  -0.00568516  1
  Zn  Zn86  1  0.49941624  0.75083686  0.24876272  1
  Zn  Zn87  1  -0.00020107  0.87292819  0.87322060  1
  Zn  Zn88  1  0.24338763  0.12300197  0.37599019  1
  Zn  Zn89  1  0.88171666  0.75596804  0.13347633  1
  Zn  Zn90  1  0.37304563  0.50578188  0.37921453  1
  Zn  Zn91  1  0.25348713  0.74891817  0.48861692  1
  Zn  Zn92  1  0.74785417  0.62225921  0.87648739  1
  Zn  Zn93  1  0.50105280  0.12885814  0.12518301  1
  Zn  Zn94  1  -0.00566102  0.12976490  0.12127415  1
  Zn  Zn95  1  0.12206764  0.24518440  0.37610225  1
  Zn  Zn96  1  -0.00020288  0.75104157  0.74750469  1
  Zn  Zn97  1  0.00125690  0.37485418  0.87508507  1
  Zn  Zn98  1  0.08796620  0.09481145  0.48071139  1
  Zn  Zn99  1  0.37961932  0.25237086  0.12721452  1
  Zn  Zn100  1  0.87907082  0.50191932  0.38217852  1
  Zn  Zn101  1  0.75230295  0.12196403  0.38195872  1
  Zn  Zn102  1  0.50033095  0.24957483  0.24940913  1
  Zn  Zn103  1  0.24795213  0.87710527  0.62089624  1
  Zn  Zn104  1  0.37309197  0.87421533  0.50103331  1
  Zn  Zn105  1  0.00954736  0.63880904  0.12063453  1
  Zn  Zn106  1  0.25219683  0.24830922  -0.00046500  1
  Zn  Zn107  1  0.18941831  0.18869265  0.18868941  1
  Zn  Zn108  1  0.18894434  0.18379575  0.68876674  1
  Zn  Zn109  1  0.18696008  0.68985485  0.19162920  1
  Zn  Zn110  1  0.18512286  0.68314532  0.68902131  1
  Zn  Zn111  1  0.68719239  0.18815666  0.18968512  1
  Zn  Zn112  1  0.68477816  0.18573995  0.68656328  1
  Zn  Zn113  1  0.69083774  0.68933714  0.19099999  1
  Zn  Zn114  1  0.69135537  0.68742903  0.68791229  1
  Zn  Zn115  1  0.31301150  0.31247321  0.31609502  1
  Zn  Zn116  1  0.31055126  0.31284459  0.81202453  1
  Zn  Zn117  1  0.30623742  0.81354591  0.30846785  1
  Zn  Zn118  1  0.30943946  0.81157565  0.81453073  1
  Zn  Zn119  1  0.81318301  0.30995889  0.31693305  1
  Zn  Zn120  1  0.81126858  0.31439951  0.80977308  1
  Zn  Zn121  1  0.81482721  0.81596798  0.32297488  1
  Zn  Zn122  1  0.81196102  0.81206726  0.81081216  1
  Zn  Zn123  1  0.18475155  0.43247564  0.43861474  1
  Zn  Zn124  1  0.18923140  0.43591753  0.93561861  1
  Zn  Zn125  1  0.18767938  0.93167415  0.44094804  1
  Zn  Zn126  1  0.18507361  0.93881598  0.93350115  1
  Zn  Zn127  1  0.69106340  0.43676883  0.44172198  1
  Zn  Zn128  1  0.69288908  0.43763093  0.93423813  1
  Zn  Zn129  1  0.68752072  0.93639351  0.44272332  1
  Zn  Zn130  1  0.68522772  0.93367599  0.93419662  1
  Zn  Zn131  1  0.31464637  0.06257042  0.05875757  1
  Zn  Zn132  1  0.31125942  0.06428570  0.56444327  1
  Zn  Zn133  1  0.31425937  0.56170123  0.06917471  1
  Zn  Zn134  1  0.31149779  0.56082450  0.56379443  1
  Zn  Zn135  1  0.81382713  0.06200721  0.06503458  1
  Zn  Zn136  1  0.81137231  0.06482149  0.56196617  1
  Zn  Zn137  1  0.83017322  0.56557145  0.06055844  1
  Zn  Zn138  1  0.81415948  0.56342805  0.56267919  1
  Zn  Zn139  1  0.43975965  0.44141917  0.18873041  1
  Zn  Zn140  1  0.43913161  0.43455672  0.68652318  1
  Zn  Zn141  1  0.43585443  0.93763840  0.18657168  1
  Zn  Zn142  1  0.43885162  0.93421396  0.68621460  1
  Zn  Zn143  1  0.93749032  0.44172977  0.18937963  1
  Zn  Zn144  1  0.94335377  0.43589956  0.68770230  1
  Zn  Zn145  1  0.93840811  0.93787888  0.18874326  1
  Zn  Zn146  1  0.93713451  0.93394910  0.68501736  1
  Zn  Zn147  1  0.06173146  0.06381230  0.30400068  1
  Zn  Zn148  1  0.06827242  0.05840272  0.81451565  1
  Zn  Zn149  1  0.06312917  0.55838707  0.31501932  1
  Zn  Zn150  1  0.05992736  0.56509271  0.80898721  1
  Zn  Zn151  1  0.56090589  0.06149968  0.31033038  1
  Zn  Zn152  1  0.56274667  0.06143321  0.81147901  1
  Zn  Zn153  1  0.56341603  0.56266194  0.31229489  1
  Zn  Zn154  1  0.56463805  0.56134278  0.81112909  1
  Zn  Zn155  1  0.43336795  0.18705803  0.43595262  1
  Zn  Zn156  1  0.43906005  0.18917022  0.94027307  1
  Zn  Zn157  1  0.44072848  0.68771837  0.43816538  1
  Zn  Zn158  1  0.43601490  0.68795651  0.94013092  1
  Zn  Zn159  1  0.93039549  0.18918648  0.42905812  1
  Zn  Zn160  1  0.93824746  0.18651659  0.93545963  1
  Zn  Zn161  1  0.94516256  0.69331039  0.43333200  1
  Zn  Zn162  1  0.94104367  0.68653357  0.93898115  1
  Zn  Zn163  1  0.06470633  0.31498789  0.05995838  1
  Zn  Zn164  1  0.03878935  0.26888068  0.54442522  1
  Zn  Zn165  1  0.05738800  0.81245912  0.06163063  1
  Zn  Zn166  1  0.06286156  0.81083115  0.56146285  1
  Zn  Zn167  1  0.56679078  0.31375549  0.06531108  1
  Zn  Zn168  1  0.55936574  0.30982096  0.56119691  1
  Zn  Zn169  1  0.56154883  0.81167254  0.06168930  1
  Zn  Zn170  1  0.55918210  0.81285994  0.56171856  1
  O  O171  1  0.12638852  0.13093948  0.10959196  1
  O  O172  1  0.12534416  0.10986828  0.63009037  1
  O  O173  1  0.12710173  0.61029484  0.13046773  1
  O  O174  1  0.11822973  0.61786459  0.61734804  1
  O  O175  1  0.62584918  0.11708170  0.11769818  1
  O  O176  1  0.61049766  0.11506254  0.62986489  1
  O  O177  1  0.61950822  0.61765279  0.13140251  1
  O  O178  1  0.62078051  0.63296475  0.61336290  1
  O  O179  1  0.38839730  0.37699825  0.38158984  1
  O  O180  1  0.38019239  0.38144450  0.88186457  1
  O  O181  1  0.38230747  0.88138966  0.37208746  1
  O  O182  1  0.38822451  0.86474525  0.88280365  1
  O  O183  1  0.87934447  0.37599826  0.38565767  1
  O  O184  1  0.87571565  0.38200147  0.88029449  1
  O  O185  1  0.89075739  0.87332578  0.38665640  1
  O  O186  1  0.87312202  0.88620093  0.88036137  1
  O  O187  1  0.26007626  -0.00156142  0.37286480  1
  O  O188  1  0.24629457  0.01193672  0.86325347  1
  O  O189  1  0.25231475  0.49336069  0.36251651  1
  O  O190  1  0.25321835  0.50456699  0.86499078  1
  O  O191  1  0.74012014  0.00264126  0.36383130  1
  O  O192  1  0.75346601  0.00522311  0.86705052  1
  O  O193  1  0.75059604  0.50870153  0.36767092  1
  O  O194  1  0.76071735  0.50278819  0.86664582  1
  O  O195  1  0.24196671  0.49170042  0.13300561  1
  O  O196  1  0.24069716  0.50440747  0.63785338  1
  O  O197  1  0.25201119  0.99855891  0.13324215  1
  O  O198  1  0.24908302  1.00059967  0.64024792  1
  O  O199  1  0.74763927  0.49789893  0.13077525  1
  O  O200  1  0.75107693  0.50253922  0.63678389  1
  O  O201  1  0.74145330  0.99331543  0.13079768  1
  O  O202  1  0.73961911  1.00681530  0.63366506  1
  O  O203  1  0.00554774  0.37182567  0.25288502  1
  O  O204  1  0.01266907  0.36847451  0.75479972  1
  O  O205  1  0.01316157  0.88570438  0.26006720  1
  O  O206  1  0.00900985  0.87278987  0.75384902  1
  O  O207  1  0.50706696  0.37768361  0.25910359  1
  O  O208  1  0.50724788  0.36837264  0.75683455  1
  O  O209  1  0.50654574  0.87808863  0.26181547  1
  O  O210  1  0.50581632  0.86966636  0.75766449  1
  O  O211  1  0.48852363  0.12420267  0.24694494  1
  O  O212  1  0.50248654  0.13670703  0.74565581  1
  O  O213  1  0.49383921  0.62372937  0.23852180  1
  O  O214  1  0.49442561  0.62797958  0.74497334  1
  O  O215  1  0.99214898  0.13449649  0.24461668  1
  O  O216  1  1.00408842  0.13574387  0.75773580  1
  O  O217  1  0.98576122  0.61822028  0.24995457  1
  O  O218  1  0.98742667  0.62566001  0.73923137  1
  O  O219  1  0.37488022  0.26425884  0.00175307  1
  O  O220  1  0.36969125  0.25670443  0.50704733  1
  O  O221  1  0.37909183  0.75722573  0.01288162  1
  O  O222  1  0.37473173  0.74751759  0.50944132  1
  O  O223  1  0.86945123  0.26230935  -0.00634793  1
  O  O224  1  0.86545910  0.25725341  0.51553758  1
  O  O225  1  0.86669629  0.76507916  -0.00526009  1
  O  O226  1  0.87829307  0.75280001  0.50857627  1
  O  O227  1  0.14510224  0.26789013  0.50217326  1
  O  O228  1  0.12878050  0.24432372  0.99043035  1
  O  O229  1  0.12675580  0.73990342  0.49244337  1
  O  O230  1  0.12492041  0.75390876  0.98696156  1
  O  O231  1  0.63304585  0.25724912  0.49281729  1
  O  O232  1  0.63233116  0.24519662  0.99280859  1
  O  O233  1  0.61826679  0.74246612  0.48945090  1
  O  O234  1  0.63550164  0.75757383  0.99045157  1
  O  O235  1  0.49942027  0.24904987  0.12938288  1
  O  O236  1  0.49394447  0.24219833  0.63133919  1
  O  O237  1  0.49701057  0.74216405  0.12805495  1
  O  O238  1  0.49109519  0.74342382  0.63098757  1
  O  O239  1  1.00443206  0.25306559  0.13594938  1
  O  O240  1  0.97988301  0.25701930  0.64056977  1
  O  O241  1  0.99443429  0.75053360  0.12781043  1
  O  O242  1  0.99312143  0.74016395  0.62646562  1
  O  O243  1  0.00010400  0.26327571  0.35883435  1
  O  O244  1  0.00814773  0.25150499  0.86841962  1
  O  O245  1  0.01427243  0.76331330  0.37407392  1
  O  O246  1  0.01268631  0.74850217  0.87076604  1
  O  O247  1  0.50676694  0.25860669  0.37641613  1
  O  O248  1  0.50434520  0.25439977  0.86795886  1
  O  O249  1  0.50619586  0.75915121  0.37207108  1
  O  O250  1  0.50665899  0.75416351  0.87073209  1
  O  O251  1  0.25358787  0.13628272  0.49683111  1
  O  O252  1  0.24510887  0.12372627  0.98862774  1
  O  O253  1  0.23855920  0.62635813  0.50205568  1
  O  O254  1  0.25584027  0.61520464  0.98632306  1
  O  O255  1  0.75231625  0.14065140  0.49889797  1
  O  O256  1  0.74600866  0.12679570  0.99061995  1
  O  O257  1  0.74263267  0.61941907  0.49073909  1
  O  O258  1  0.75928889  0.63885633  0.99956922  1
  O  O259  1  0.25979334  0.37582325  0.00733380  1
  O  O260  1  0.26636579  0.37185904  0.49524377  1
  O  O261  1  0.26606266  0.88380903  -0.00824655  1
  O  O262  1  0.25594841  0.86727260  0.50457697  1
  O  O263  1  0.75585177  0.36876281  0.00740015  1
  O  O264  1  0.76313438  0.36494081  0.49793263  1
  O  O265  1  0.75541907  0.87069333  0.00459137  1
  O  O266  1  0.76905800  0.87349838  0.49084990  1
  O  O267  1  0.13166433  0.49023981  0.24384270  1
  O  O268  1  0.12957828  0.49238158  0.74558203  1
  O  O269  1  0.13645164  0.99224539  0.24876348  1
  O  O270  1  0.13223958  0.98936003  0.74389440  1
  O  O271  1  0.63704365  0.49705814  0.24332816  1
  O  O272  1  0.63429540  0.49034742  0.75466289  1
  O  O273  1  0.63096550  0.99420268  0.24358599  1
  O  O274  1  0.63031390  0.99235946  0.74204869  1
  O  O275  1  0.36359714  0.00265516  0.25390643  1
  O  O276  1  0.36419092  -0.00503396  0.75098677  1
  O  O277  1  0.36712356  0.50906541  0.24958120  1
  O  O278  1  0.36713250  0.50102705  0.75389210  1
  O  O279  1  0.86360378  0.00694558  0.24592979  1
  O  O280  1  0.86307660  -0.00780296  0.75528300  1
  O  O281  1  0.86448183  0.50881134  0.25343629  1
  O  O282  1  0.86947104  0.50447244  0.75337410  1
  O  O283  1  0.11633885  0.37222421  0.36708123  1
  O  O284  1  0.12711622  0.36148424  0.86944026  1
  O  O285  1  0.11573902  0.87181252  0.37162041  1
  O  O286  1  0.12554248  0.86273419  0.86789391  1
  O  O287  1  0.61633825  0.37148824  0.37251673  1
  O  O288  1  0.61954919  0.36915345  0.87167892  1
  O  O289  1  0.61879673  0.86860118  0.37429832  1
  O  O290  1  0.61552456  0.86584812  0.86554926  1
  O  O291  1  0.37497777  0.12660269  0.13498983  1
  O  O292  1  0.38815830  0.13293309  0.62343896  1
  O  O293  1  0.38230395  0.63474098  0.13184029  1
  O  O294  1  0.38080881  0.62893808  0.63172752  1
  O  O295  1  0.87397277  0.12595136  0.13743695  1
  O  O296  1  0.87341198  0.13536336  0.63004777  1
  O  O297  1  0.86655358  0.63020277  0.14733025  1
  O  O298  1  0.88144255  0.63430349  0.62596284  1
  O  O299  1  0.25314568  0.26364122  0.12327173  1
  O  O300  1  0.26312792  0.24371782  0.62199923  1
  O  O301  1  0.26345771  0.74615706  0.12355828  1
  O  O302  1  0.26265683  0.74671782  0.62900736  1
  O  O303  1  0.74304098  0.26233695  0.11833565  1
  O  O304  1  0.75912300  0.24776751  0.62384402  1
  O  O305  1  0.75245957  0.75814586  0.11856182  1
  O  O306  1  0.76650263  0.74784743  0.62390202  1
  O  O307  1  0.24897605  0.24670156  0.38475519  1
  O  O308  1  0.24453425  0.23799966  0.87343107  1
  O  O309  1  0.23199216  0.75513860  0.37233475  1
  O  O310  1  0.23681262  0.73976429  0.87101235  1
  O  O311  1  0.73999684  0.25039724  0.38538492  1
  O  O312  1  0.74719128  0.24100034  0.87867054  1
  O  O313  1  0.74123223  0.74024081  0.37387411  1
  O  O314  1  0.74213879  0.75002495  0.88223247  1
  O  O315  1  0.00778408  0.11964490  -0.00004112  1
  O  O316  1  0.00661608  0.16448668  0.50484419  1
  O  O317  1  -0.03144610  0.61101228  0.01585183  1
  O  O318  1  0.00752671  0.62542606  0.50768416  1
  O  O319  1  0.50626125  0.11603376  -0.00006686  1
  O  O320  1  0.49699840  0.11444378  0.50541377  1
  O  O321  1  0.49605277  0.61890630  0.01361928  1
  O  O322  1  0.50849245  0.61703028  0.50379727  1
  O  O323  1  0.49452983  0.38187480  0.49462467  1
  O  O324  1  0.49603710  0.38184658  0.99553559  1
  O  O325  1  0.49726912  0.88496441  0.48922831  1
  O  O326  1  0.49572345  0.88094919  0.99247718  1
  O  O327  1  0.98350361  0.36282557  0.49329435  1
  O  O328  1  0.99194731  0.38002599  0.99718136  1
  O  O329  1  0.99524903  0.87440261  0.48980970  1
  O  O330  1  0.99046170  0.88272040  0.99417266  1
  O  O331  1  0.49972418  0.49393561  0.38523311  1
  O  O332  1  0.49456764  0.49778568  0.88138619  1
  O  O333  1  0.49279994  0.99542006  0.38104061  1
  O  O334  1  0.50650000  0.98901871  0.88289261  1
  O  O335  1  0.99692501  0.48235375  0.37024401  1
  O  O336  1  0.98805085  0.49886362  0.87321145  1
  O  O337  1  1.00850520  0.99051169  0.37950335  1
  O  O338  1  0.99090854  0.99984937  0.88157384  1
  O  O339  1  -0.00614080  0.00391778  0.10950636  1
  O  O340  1  0.01252894  0.00117019  0.63093681  1
  O  O341  1  0.01841919  0.49814427  0.12763749  1
  O  O342  1  0.00986793  0.51047197  0.62918792  1
  O  O343  1  0.50946438  -0.00049496  0.11740569  1
  O  O344  1  0.50260309  0.00581920  0.61867807  1
  O  O345  1  0.51181014  0.50613136  0.12013047  1
  O  O346  1  0.49706731  0.50584781  0.61398135  1
  O  O347  1  0.24446747  0.38002609  0.24430800  1
  O  O348  1  0.23618022  0.38170845  0.75417939  1
  O  O349  1  0.23740067  0.88872395  0.25079653  1
  O  O350  1  0.24534429  0.88656523  0.75078358  1
  O  O351  1  0.74930414  0.38268717  0.24441671  1
  O  O352  1  0.73841548  0.38328280  0.75356218  1
  O  O353  1  0.74763158  0.88167939  0.24823268  1
  O  O354  1  0.73833626  0.88384988  0.75426593  1
  O  O355  1  0.25368417  0.11201742  0.25064945  1
  O  O356  1  0.24996707  0.11372857  0.76133328  1
  O  O357  1  0.25958102  0.61554882  0.24446683  1
  O  O358  1  0.25464004  0.61521911  0.75763992  1
  O  O359  1  0.75392501  0.11636333  0.25029143  1
  O  O360  1  0.74225927  0.11519529  0.76213950  1
  O  O361  1  0.75486181  0.61943065  0.26212699  1
  O  O362  1  0.76081873  0.61788945  0.75008681  1
  O  O363  1  0.37388022  0.11480322  0.36323386  1
  O  O364  1  0.36158062  0.12833215  0.87979052  1
  O  O365  1  0.38280398  0.62592278  0.35973480  1
  O  O366  1  0.36933147  0.61991049  0.86982538  1
  O  O367  1  0.86805259  0.13010504  0.35680395  1
  O  O368  1  0.86605999  0.11158774  0.87936921  1
  O  O369  1  0.87019523  0.62412166  0.37015979  1
  O  O370  1  0.87328847  0.61888709  0.86333948  1
  O  O371  1  0.13364831  0.38255461  0.13095320  1
  O  O372  1  0.11964573  0.38647544  0.63179542  1
  O  O373  1  0.11979967  0.87642868  0.13725369  1
  O  O374  1  0.12725880  0.88095947  0.63257028  1
  O  O375  1  0.63717202  0.38597670  0.13049649  1
  O  O376  1  0.61779102  0.37374766  0.63651216  1
  O  O377  1  0.62968938  0.87917909  0.13201196  1
  O  O378  1  0.61603100  0.88228570  0.63608242  1
  O  O379  1  0.12086464  0.26255218  0.24906605  1
  O  O380  1  0.11948869  0.25406907  0.75327461  1
  O  O381  1  0.12854415  0.76653309  0.25391303  1
  O  O382  1  0.12650388  0.76144285  0.75196350  1
  O  O383  1  0.62530244  0.25984580  0.26025036  1
  O  O384  1  0.61782171  0.25766845  0.75483347  1
  O  O385  1  0.62382426  0.75649814  0.26243400  1
  O  O386  1  0.62097942  0.75658482  0.75374442  1
  O  O387  1  0.37560120  0.23973586  0.25030133  1
  O  O388  1  0.38534158  0.25886601  0.74214354  1
  O  O389  1  0.37580938  0.74620688  0.23946343  1
  O  O390  1  0.38060735  0.74384304  0.74558099  1
  O  O391  1  0.88084167  0.24623288  0.24765943  1
  O  O392  1  0.87868739  0.25114701  0.74213896  1
  O  O393  1  0.87023594  0.73746201  0.25657669  1
  O  O394  1  0.87544037  0.74386704  0.74045722  1
  O  O395  1  0.38213933  0.49394534  0.49937180  1
  O  O396  1  0.38115973  0.49115554  0.99734801  1
  O  O397  1  0.38169557  0.99933476  0.49137528  1
  O  O398  1  0.38940960  0.99158617  1.00593076  1
  O  O399  1  0.87109897  0.48477501  0.50083231  1
  O  O400  1  0.86857376  0.48506473  0.98843595  1
  O  O401  1  0.87461837  0.98819803  0.50607459  1
  O  O402  1  0.87716451  0.99184029  0.99182200  1
  O  O403  1  0.11469861  0.00891023  -0.00910762  1
  O  O404  1  0.13136643  -0.00186939  0.51976976  1
  O  O405  1  0.12571582  0.49508082  0.01400619  1
  O  O406  1  0.12966288  0.50530624  0.50788310  1
  O  O407  1  0.61782166  0.00174706  0.00469850  1
  O  O408  1  0.61668023  -0.00554186  0.51277694  1
  O  O409  1  0.62583708  0.49786938  0.01027409  1
  O  O410  1  0.61796599  0.50940224  0.49706857  1
  O  O411  1  0.36890732  0.37877776  0.11884683  1
  O  O412  1  0.38289094  0.36353609  0.61501248  1
  O  O413  1  0.38092074  0.86072328  0.11826300  1
  O  O414  1  0.37493282  0.86318893  0.62374043  1
  O  O415  1  0.86444445  0.38356227  0.11735107  1
  O  O416  1  0.87564151  0.37315867  0.61627932  1
  O  O417  1  0.86723917  0.87685712  0.11661608  1
  O  O418  1  0.88213007  0.86301964  0.61051529  1
  O  O419  1  0.12543478  0.12726768  0.37540292  1
  O  O420  1  0.13362506  0.13365733  0.88079107  1
  O  O421  1  0.11742487  0.63238902  0.38282757  1
  O  O422  1  0.13007686  0.63666198  0.87014648  1
  O  O423  1  0.62403953  0.13796584  0.37124872  1
  O  O424  1  0.63164462  0.13005457  0.88018620  1
  O  O425  1  0.63083844  0.63181157  0.38242824  1
  O  O426  1  0.62697076  0.63927773  0.86989413  1
