# generated using pymatgen
data_V85Zn86O256
_symmetry_space_group_name_H-M   'P 1'
_cell_length_a   16.95277934
_cell_length_b   16.94090901
_cell_length_c   16.95473769
_cell_angle_alpha   89.94025715
_cell_angle_beta   89.95217393
_cell_angle_gamma   90.00589173
_symmetry_Int_Tables_number   1
_chemical_formula_structural   V85Zn86O256
_chemical_formula_sum   'V85 Zn86 O256'
_cell_volume   4869.31986626
_cell_formula_units_Z   1
loop_
 _symmetry_equiv_pos_site_id
 _symmetry_equiv_pos_as_xyz
  1  'x, y, z'
loop_
 _atom_site_type_symbol
 _atom_site_label
 _atom_site_symmetry_multiplicity
 _atom_site_fract_x
 _atom_site_fract_y
 _atom_site_fract_z
 _atom_site_occupancy
  V  V0  1  0.36835758  0.49269857  0.38821117  1
  V  V1  1  0.00110358  0.38189343  0.37126643  1
  V  V2  1  0.75088945  0.24999878  0.00062115  1
  V  V3  1  -0.00148729  0.00623672  0.49243869  1
  V  V4  1  0.87140401  0.75028299  0.12291573  1
  V  V5  1  0.24814794  0.63268798  0.37940162  1
  V  V6  1  0.86312435  0.62411244  0.25176145  1
  V  V7  1  0.25211743  0.37477972  0.62475993  1
  V  V8  1  0.00244600  -0.00298191  0.00379855  1
  V  V9  1  0.12290583  0.00302460  0.12941299  1
  V  V10  1  0.74451582  0.37329721  0.62876323  1
  V  V11  1  0.24420894  0.49946678  0.75093885  1
  V  V12  1  0.38717444  0.24707710  0.12137929  1
  V  V13  1  0.62938049  0.12429005  0.49540229  1
  V  V14  1  0.86194444  0.50222326  0.37237967  1
  V  V15  1  0.12439101  0.24848450  0.38120236  1
  V  V16  1  0.00069980  0.12474294  0.62332939  1
  V  V17  1  0.36618218  0.75221117  0.62252909  1
  V  V18  1  0.37576841  0.11174482  0.75084566  1
  V  V19  1  -0.00200822  0.62386391  0.62069874  1
  V  V20  1  0.75023397  0.24654136  0.49153987  1
  V  V21  1  0.25465825  0.25784131  0.49413197  1
  V  V22  1  0.12812762  0.37392311  0.24585605  1
  V  V23  1  0.62225471  0.49677918  0.62957187  1
  V  V24  1  0.87468994  0.49966345  0.87802565  1
  V  V25  1  0.87221907  0.62496443  0.75008471  1
  V  V26  1  0.50229887  0.37277339  0.87298757  1
  V  V27  1  0.74192317  0.00911891  0.25519861  1
  V  V28  1  0.87525126  0.37654704  0.49849721  1
  V  V29  1  0.24816153  0.50465110  0.23999192  1
  V  V30  1  0.12081948  0.75259695  0.38151936  1
  V  V31  1  0.73777015  0.38068402  0.13283438  1
  V  V32  1  0.87955667  0.25467207  0.62805424  1
  V  V33  1  0.62290746  0.87195347  0.76349994  1
  V  V34  1  0.50880856  0.49853396  0.00515820  1
  V  V35  1  0.12411239  0.25151104  0.86869714  1
  V  V36  1  0.74595715  0.49812939  0.75122855  1
  V  V37  1  0.87636986  0.12994314  0.74968449  1
  V  V38  1  0.87241307  0.75000346  0.62241673  1
  V  V39  1  0.12393018  0.12714054  0.00903398  1
  V  V40  1  0.25472025  0.10944548  0.87452025  1
  V  V41  1  0.37553419  -0.00062144  0.37401654  1
  V  V42  1  0.62789689  0.25404194  0.86885722  1
  V  V43  1  0.00417986  0.74881801  0.75086486  1
  V  V44  1  0.74359892  0.87420342  0.62294898  1
  V  V45  1  0.87089398  0.88104788  0.49179049  1
  V  V46  1  0.87770852  -0.00227666  0.87220162  1
  V  V47  1  0.88070981  0.11800483  0.26634813  1
  V  V48  1  0.50249909  0.75145588  0.76206164  1
  V  V49  1  0.88092536  0.23975399  0.12548709  1
  V  V50  1  0.38153653  0.13220954  0.25226089  1
  V  V51  1  0.25556388  0.24773541  -0.00101826  1
  V  V52  1  -0.00549643  0.75057806  0.25122395  1
  V  V53  1  0.87719945  0.87349892  -0.00539311  1
  V  V54  1  0.37735239  0.75229534  0.12878722  1
  V  V55  1  0.61985344  0.25285084  0.36376274  1
  V  V56  1  0.50917452  0.11454753  0.13039650  1
  V  V57  1  0.62670497  0.11587370  0.00431444  1
  V  V58  1  0.12443652  0.62670611  0.50288495  1
  V  V59  1  0.01078213  0.50233677  0.00643369  1
  V  V60  1  0.37846987  0.37357603  0.00088210  1
  V  V61  1  0.24985987  0.37630256  0.12178903  1
  V  V62  1  0.11734088  0.74421131  0.88523884  1
  V  V63  1  0.62734994  0.62599732  0.49206623  1
  V  V64  1  0.62588675  0.86911717  0.24409955  1
  V  V65  1  0.12515506  0.87598464  0.25103877  1
  V  V66  1  0.24353540  0.74262817  0.00860769  1
  V  V67  1  0.50339913  0.25275228  0.74720225  1
  V  V68  1  0.50639243  0.61776682  0.12930058  1
  V  V69  1  0.37083926  0.62583987  0.75047096  1
  V  V70  1  0.24085621  0.62383633  0.87811238  1
  V  V71  1  0.50158099  0.62694857  0.62583708  1
  V  V72  1  0.50687424  0.86656637  0.37643749  1
  V  V73  1  0.37692509  0.25213043  0.62261299  1
  V  V74  1  0.24767185  0.12690494  0.37474914  1
  V  V75  1  0.74517445  0.74743043  0.48673164  1
  V  V76  1  0.37624175  0.50155579  0.87686466  1
  V  V77  1  0.87494016  0.37708067  0.00559876  1
  V  V78  1  0.74496267  0.63272835  0.87739021  1
  V  V79  1  0.05794550  0.91960192  0.81610036  1
  V  V80  1  0.37632686  0.62223793  0.25430660  1
  V  V81  1  0.75312160  0.12637262  0.87421251  1
  V  V82  1  0.50293969  -0.00240207  0.50104638  1
  V  V83  1  0.62115318  0.63325209  -0.00051728  1
  V  V84  1  0.36273215  0.87143994  0.50076528  1
  Zn  Zn85  1  0.25302605  0.87727399  0.12462604  1
  Zn  Zn86  1  0.62611433  -0.00006950  0.62497452  1
  Zn  Zn87  1  0.73135704  0.50215464  0.25193476  1
  Zn  Zn88  1  0.74986842  -0.00093303  0.74818846  1
  Zn  Zn89  1  -0.00466835  0.36774797  0.86970313  1
  Zn  Zn90  1  0.15865371  0.08748894  0.54150063  1
  Zn  Zn91  1  0.00419685  0.24645884  0.24481061  1
  Zn  Zn92  1  0.00849744  0.62385782  0.12102811  1
  Zn  Zn93  1  -0.00047881  0.50262852  0.49385675  1
  Zn  Zn94  1  0.50542388  0.74564416  0.25602589  1
  Zn  Zn95  1  0.11610250  0.36761860  0.74345923  1
  Zn  Zn96  1  0.49521131  -0.01267890  -0.01232985  1
  Zn  Zn97  1  0.50369666  0.12624350  0.62398379  1
  Zn  Zn98  1  0.37696310  0.88142328  -0.02253163  1
  Zn  Zn99  1  -0.00756250  0.88241867  0.37143540  1
  Zn  Zn100  1  0.25172755  0.00078434  0.25018421  1
  Zn  Zn101  1  0.74680845  0.88367789  0.12182876  1
  Zn  Zn102  1  0.12275513  0.49684684  0.62220996  1
  Zn  Zn103  1  0.19250511  -0.04691035  0.67704537  1
  Zn  Zn104  1  0.49064191  0.49301403  0.50569414  1
  Zn  Zn105  1  0.50406220  0.37299933  0.37460471  1
  Zn  Zn106  1  0.74384568  0.75639520  -0.00243883  1
  Zn  Zn107  1  0.19324627  0.19063054  0.19009868  1
  Zn  Zn108  1  0.19699301  0.17500391  0.68583099  1
  Zn  Zn109  1  0.18211112  0.68628241  0.18882346  1
  Zn  Zn110  1  0.18683815  0.78793656  0.68611362  1
  Zn  Zn111  1  0.69562453  0.18593777  0.18660389  1
  Zn  Zn112  1  0.68849604  0.18658572  0.68321106  1
  Zn  Zn113  1  0.68639953  0.69021321  0.18564777  1
  Zn  Zn114  1  0.68586271  0.68944505  0.68590670  1
  Zn  Zn115  1  0.36884992  0.35293181  0.26490763  1
  Zn  Zn116  1  0.31373680  0.30975577  0.81112040  1
  Zn  Zn117  1  0.31156282  0.81192431  0.31357643  1
  Zn  Zn118  1  0.31176939  0.82730146  0.80997517  1
  Zn  Zn119  1  0.81280051  0.30927775  0.31012395  1
  Zn  Zn120  1  0.81362963  0.31482742  0.81084802  1
  Zn  Zn121  1  0.80620304  0.81625485  0.31075462  1
  Zn  Zn122  1  0.81302332  0.81311822  0.81096610  1
  Zn  Zn123  1  0.18756802  0.44033510  0.43597199  1
  Zn  Zn124  1  0.18802297  0.43405571  0.93628637  1
  Zn  Zn125  1  0.18487075  0.93782873  0.43549082  1
  Zn  Zn126  1  0.19362863  0.93277883  0.94772143  1
  Zn  Zn127  1  0.68183724  0.43397228  0.44181899  1
  Zn  Zn128  1  0.68800813  0.43738899  0.93986618  1
  Zn  Zn129  1  0.68886383  0.93958773  0.43004325  1
  Zn  Zn130  1  0.69210426  0.93981931  0.93690361  1
  Zn  Zn131  1  0.31575355  0.05874783  0.06427309  1
  Zn  Zn132  1  0.32301059  0.06242373  0.56449836  1
  Zn  Zn133  1  0.31897990  0.56589770  0.06171122  1
  Zn  Zn134  1  0.30447213  0.57061121  0.56636369  1
  Zn  Zn135  1  0.81067526  0.05828822  0.06526416  1
  Zn  Zn136  1  0.81308037  0.06268362  0.56112746  1
  Zn  Zn137  1  0.81155319  0.56398622  0.06521162  1
  Zn  Zn138  1  0.80965585  0.56111432  0.55942448  1
  Zn  Zn139  1  0.55154347  0.42754844  0.19614880  1
  Zn  Zn140  1  0.43496343  0.43592807  0.68879092  1
  Zn  Zn141  1  0.43972157  0.93928521  0.18657994  1
  Zn  Zn142  1  0.44127681  0.93126383  0.68607704  1
  Zn  Zn143  1  0.93443864  0.43629487  0.18827455  1
  Zn  Zn144  1  0.93874378  0.43706465  0.69037845  1
  Zn  Zn145  1  0.93548743  0.94063159  0.18465258  1
  Zn  Zn146  1  0.93247623  0.94240322  0.67661517  1
  Zn  Zn147  1  0.05940681  0.06565418  0.31411064  1
  Zn  Zn148  1  0.05998786  0.08709054  0.81507247  1
  Zn  Zn149  1  0.07138213  0.57317701  0.28606377  1
  Zn  Zn150  1  0.05984778  0.56026252  0.81218999  1
  Zn  Zn151  1  0.56428254  0.06321481  0.31651032  1
  Zn  Zn152  1  0.56692713  0.06097910  0.80923995  1
  Zn  Zn153  1  0.55713018  0.55767383  0.31807550  1
  Zn  Zn154  1  0.56130584  0.56525619  0.81346507  1
  Zn  Zn155  1  0.43998986  0.18871531  0.43926767  1
  Zn  Zn156  1  0.45570595  0.15160630  0.92256289  1
  Zn  Zn157  1  0.43860152  0.68549927  0.44197421  1
  Zn  Zn158  1  0.42277101  0.71341690  0.92641581  1
  Zn  Zn159  1  0.93977583  0.19297439  0.43788096  1
  Zn  Zn160  1  0.94065484  0.18524814  0.94169500  1
  Zn  Zn161  1  0.93209713  0.68804121  0.43382967  1
  Zn  Zn162  1  0.93694575  0.68280150  0.93990438  1
  Zn  Zn163  1  0.06211258  0.31593409  0.05967498  1
  Zn  Zn164  1  0.06407047  0.31325141  0.55946202  1
  Zn  Zn165  1  0.05955360  0.81468594  0.06571095  1
  Zn  Zn166  1  0.05987524  0.82169847  0.56152078  1
  Zn  Zn167  1  0.56417034  0.30357170  0.05705610  1
  Zn  Zn168  1  0.56053431  0.31571932  0.55452252  1
  Zn  Zn169  1  0.55664712  0.81262035  0.06489697  1
  Zn  Zn170  1  0.56053916  0.81009667  0.56439011  1
  O  O171  1  0.13036863  0.12170013  0.11618937  1
  O  O172  1  0.10287323  0.14786810  0.62465745  1
  O  O173  1  0.10583103  0.60789032  0.17692772  1
  O  O174  1  0.11376877  0.62651063  0.60935725  1
  O  O175  1  0.62083730  0.13237170  0.11849524  1
  O  O176  1  0.62367996  0.12098024  0.61299172  1
  O  O177  1  0.61294328  0.62812961  0.11967062  1
  O  O178  1  0.61742393  0.61787824  0.62224693  1
  O  O179  1  0.35828565  0.39371341  0.37801945  1
  O  O180  1  0.38076599  0.37911243  0.88181989  1
  O  O181  1  0.38090111  0.87982200  0.38052796  1
  O  O182  1  0.38760118  0.81749816  0.88451042  1
  O  O183  1  0.88263096  0.37882856  0.37642634  1
  O  O184  1  0.87206707  0.38067515  0.88782317  1
  O  O185  1  0.87368378  0.86933198  0.38843859  1
  O  O186  1  0.87181026  0.87953255  0.88636610  1
  O  O187  1  0.25587173  0.01006420  0.37525550  1
  O  O188  1  0.24763242  0.01086371  0.88191981  1
  O  O189  1  0.25372676  0.51374034  0.37068017  1
  O  O190  1  0.25382708  0.50417563  0.87154556  1
  O  O191  1  0.75663950  -0.00612144  0.35487121  1
  O  O192  1  0.76019232  0.00948975  0.87178119  1
  O  O193  1  0.75937516  0.48882808  0.37198070  1
  O  O194  1  0.75892741  0.50385353  0.87237033  1
  O  O195  1  0.25657752  0.49866029  0.13472953  1
  O  O196  1  0.24850785  0.49285864  0.63385426  1
  O  O197  1  0.23627894  0.99929645  0.12932857  1
  O  O198  1  0.22911670  1.04300634  0.62278062  1
  O  O199  1  0.75218255  0.48292079  0.12478406  1
  O  O200  1  0.74301642  0.49283763  0.62945928  1
  O  O201  1  0.75959203  0.99651716  0.14483605  1
  O  O202  1  0.75096610  0.98607226  0.62584796  1
  O  O203  1  0.01103217  0.37181972  0.25321681  1
  O  O204  1  0.00382367  0.37799710  0.75703884  1
  O  O205  1  0.00426569  0.86818684  0.25035658  1
  O  O206  1  -0.00791666  0.86897652  0.75211051  1
  O  O207  1  0.47922861  0.37578945  0.26298367  1
  O  O208  1  0.49398840  0.36142641  0.75721348  1
  O  O209  1  0.51172734  0.87692139  0.25738089  1
  O  O210  1  0.51324832  0.86700993  0.75047324  1
  O  O211  1  0.49369608  0.12306793  0.24475323  1
  O  O212  1  0.49321331  0.13782448  0.74630464  1
  O  O213  1  0.49170570  0.62532081  0.24700281  1
  O  O214  1  0.49298146  0.62560475  0.73913453  1
  O  O215  1  0.98628617  0.12927837  0.25158401  1
  O  O216  1  0.98529985  0.12627013  0.74019518  1
  O  O217  1  0.97962070  0.64299763  0.25937965  1
  O  O218  1  0.99248693  0.63008645  0.74249295  1
  O  O219  1  0.36947512  0.25144677  0.00415125  1
  O  O220  1  0.36869848  0.24533494  0.51306924  1
  O  O221  1  0.36298204  0.73537373  0.02266709  1
  O  O222  1  0.38082297  0.75683569  0.51306878  1
  O  O223  1  0.87225259  0.25506892  0.00783300  1
  O  O224  1  0.86684881  0.25695557  0.50467062  1
  O  O225  1  0.87675107  0.75753030  0.00572575  1
  O  O226  1  0.86528289  0.75487915  0.50535450  1
  O  O227  1  0.13360143  0.25182118  0.48837531  1
  O  O228  1  0.13269245  0.24264330  0.99623743  1
  O  O229  1  0.11355149  0.74569412  0.48689937  1
  O  O230  1  0.12785184  0.74978018  0.99768656  1
  O  O231  1  0.63390148  0.24194170  0.49670825  1
  O  O232  1  0.63532951  0.24248043  0.99032510  1
  O  O233  1  0.63065973  0.73533686  0.50750937  1
  O  O234  1  0.62519819  0.73702170  1.00456767  1
  O  O235  1  0.48974225  0.24614540  0.12493474  1
  O  O236  1  0.49381088  0.25304668  0.63031138  1
  O  O237  1  0.49096001  0.73853689  0.13339274  1
  O  O238  1  0.49491543  0.74047069  0.63260686  1
  O  O239  1  0.98468404  0.25648612  0.12445494  1
  O  O240  1  0.98341598  0.24761387  0.61335342  1
  O  O241  1  0.98975136  0.74800877  0.13303449  1
  O  O242  1  0.99349890  0.74060325  0.63198911  1
  O  O243  1  0.00834114  0.26153786  0.37279318  1
  O  O244  1  0.01938089  0.24549801  0.88207335  1
  O  O245  1  0.00280985  0.75616643  0.36827272  1
  O  O246  1  0.00860857  0.74220638  0.87059761  1
  O  O247  1  0.51623953  0.24704046  0.37724136  1
  O  O248  1  0.50981548  0.25038726  0.86739602  1
  O  O249  1  0.49357400  0.76255737  0.37425566  1
  O  O250  1  0.51416503  0.72208451  0.85654635  1
  O  O251  1  0.25321139  0.13524383  0.48790796  1
  O  O252  1  0.24567388  0.13047416  0.99293495  1
  O  O253  1  0.23583895  0.62638686  0.49206764  1
  O  O254  1  0.24969349  0.63200867  0.99372272  1
  O  O255  1  0.74399724  0.13538074  0.50537731  1
  O  O256  1  0.74740629  0.13036077  0.99589292  1
  O  O257  1  0.73606197  0.63247723  0.50594676  1
  O  O258  1  0.74023136  0.62428210  0.99451941  1
  O  O259  1  0.25638190  0.36796331  0.00326441  1
  O  O260  1  0.24627039  0.36491387  0.50716828  1
  O  O261  1  0.25630241  0.85622170  0.00478251  1
  O  O262  1  0.26334298  0.87942859  0.49565796  1
  O  O263  1  0.75602139  0.36999089  0.00940399  1
  O  O264  1  0.75534678  0.36871688  0.51063002  1
  O  O265  1  0.75958935  0.87492626  0.00310934  1
  O  O266  1  0.75170761  0.86934768  0.50447947  1
  O  O267  1  0.13979871  0.47994158  0.26548801  1
  O  O268  1  0.13557443  0.49974890  0.74806209  1
  O  O269  1  0.12191391  0.99435034  0.24544578  1
  O  O270  1  0.10999189  0.99105909  0.76488148  1
  O  O271  1  0.61972634  0.49963085  0.24945730  1
  O  O272  1  0.63011480  0.50453461  0.73794383  1
  O  O273  1  0.63605314  0.99587938  0.25331614  1
  O  O274  1  0.62699477  0.98734835  0.74653625  1
  O  O275  1  0.37393398  0.01139605  0.25615644  1
  O  O276  1  0.38340840  0.01211964  0.74285025  1
  O  O277  1  0.36170545  0.51391162  0.26491755  1
  O  O278  1  0.36521240  0.50417302  0.75685628  1
  O  O279  1  0.87460235  0.01421978  0.24977182  1
  O  O280  1  0.87443286  0.00765682  0.75583234  1
  O  O281  1  0.87218888  0.50872319  0.25582728  1
  O  O282  1  0.86754928  0.50651581  0.75862640  1
  O  O283  1  0.11949013  0.36799373  0.37064373  1
  O  O284  1  0.12608686  0.35848452  0.87494445  1
  O  O285  1  0.11897893  0.86937768  0.36865786  1
  O  O286  1  0.12116126  0.86651249  0.87971367  1
  O  O287  1  0.62720745  0.35790852  0.37653824  1
  O  O288  1  0.62172922  0.36160659  0.87926941  1
  O  O289  1  0.61547262  0.87910249  0.36378388  1
  O  O290  1  0.63267393  0.87477798  0.86205002  1
  O  O291  1  0.38354559  0.12957797  0.13288144  1
  O  O292  1  0.38115216  0.13520351  0.63428192  1
  O  O293  1  0.38541636  0.62623917  0.13728661  1
  O  O294  1  0.38347780  0.63128191  0.62735002  1
  O  O295  1  0.87320471  0.13846394  0.12400913  1
  O  O296  1  0.87896335  0.13438011  0.63111591  1
  O  O297  1  0.87879179  0.63299798  0.13234400  1
  O  O298  1  0.87811902  0.62981213  0.62851596  1
  O  O299  1  0.25749448  0.25076656  0.11208426  1
  O  O300  1  0.25678432  0.25440958  0.61849050  1
  O  O301  1  0.25186608  0.74660261  0.12266427  1
  O  O302  1  0.26853694  0.73377069  0.62621657  1
  O  O303  1  0.76088605  0.25950794  0.12000011  1
  O  O304  1  0.75755513  0.25773883  0.61819687  1
  O  O305  1  0.76218803  0.75389332  0.12115332  1
  O  O306  1  0.75393264  0.75923203  0.61900736  1
  O  O307  1  0.24384571  0.24492111  0.38378463  1
  O  O308  1  0.24311275  0.24749089  0.88680241  1
  O  O309  1  0.23737131  0.74043964  0.36969767  1
  O  O310  1  0.23244710  0.73962008  0.88416960  1
  O  O311  1  0.74515314  0.25472045  0.38745544  1
  O  O312  1  0.74693647  0.24707167  0.87911686  1
  O  O313  1  0.74959352  0.75142011  0.38768766  1
  O  O314  1  0.75571869  0.73609042  0.87736649  1
  O  O315  1  0.01262028  0.10985101  -0.00730427  1
  O  O316  1  -0.00810037  0.11513244  0.50520058  1
  O  O317  1  -0.00253602  0.60807577  0.00361011  1
  O  O318  1  0.00123659  0.62541500  0.50552026  1
  O  O319  1  0.51634095  0.13836769  0.01822290  1
  O  O320  1  0.50781443  0.11485570  0.50117207  1
  O  O321  1  0.50584455  0.61665459  0.00899333  1
  O  O322  1  0.50888998  0.62155085  0.51180132  1
  O  O323  1  0.50119719  0.38189805  0.48892897  1
  O  O324  1  0.49789957  0.37960807  0.99453381  1
  O  O325  1  0.49727500  0.87971869  0.49277721  1
  O  O326  1  0.49061494  0.87548446  1.00549032  1
  O  O327  1  0.99332786  0.37871645  0.49041410  1
  O  O328  1  0.99042849  0.38254873  0.99391693  1
  O  O329  1  0.98778757  0.88793108  0.49930360  1
  O  O330  1  0.99439016  0.88773234  1.00119656  1
  O  O331  1  0.47554965  0.50638879  0.38209904  1
  O  O332  1  0.49470971  0.49338633  0.87964442  1
  O  O333  1  0.49489916  0.99238022  0.38485660  1
  O  O334  1  0.49543263  1.04642562  0.89011355  1
  O  O335  1  0.99424392  0.48865760  0.36835550  1
  O  O336  1  0.98570066  0.50147682  0.88362256  1
  O  O337  1  0.99541335  1.00173687  0.38759588  1
  O  O338  1  1.00177812  0.99235484  0.87576424  1
  O  O339  1  0.01251898  -0.00051291  0.11732895  1
  O  O340  1  -0.00428431  0.01402570  0.61288531  1
  O  O341  1  -0.00614898  0.49521232  0.10870575  1
  O  O342  1  -0.00144547  0.51425806  0.62357173  1
  O  O343  1  0.50167589  0.01343864  0.12334557  1
  O  O344  1  0.50253511  -0.00256085  0.61045479  1
  O  O345  1  0.49859318  0.50500437  0.11594229  1
  O  O346  1  0.50555580  0.50529073  0.62633739  1
  O  O347  1  0.25329062  0.38430545  0.23921568  1
  O  O348  1  0.24633736  0.38186306  0.74423542  1
  O  O349  1  0.23500684  0.87731205  0.25233157  1
  O  O350  1  0.24419113  0.87082153  0.74056193  1
  O  O351  1  0.75571271  0.37552484  0.23399835  1
  O  O352  1  0.75452589  0.38160052  0.73677914  1
  O  O353  1  0.73773247  0.88208512  0.24748359  1
  O  O354  1  0.73991637  0.87285113  0.74192045  1
  O  O355  1  0.25859852  0.12490240  0.26140835  1
  O  O356  1  0.25828584  0.12429976  0.76685870  1
  O  O357  1  0.25518847  0.62024898  0.25881509  1
  O  O358  1  0.25626710  0.61376573  0.76180542  1
  O  O359  1  0.76258956  0.11565582  0.24888063  1
  O  O360  1  0.76068242  0.12380192  0.75294952  1
  O  O361  1  0.75868414  0.62282587  0.24443938  1
  O  O362  1  0.75283163  0.62030756  0.75727907  1
  O  O363  1  0.37086044  0.12287906  0.36902513  1
  O  O364  1  0.35810768  0.13517468  0.86575655  1
  O  O365  1  0.36459137  0.62640490  0.37298561  1
  O  O366  1  0.36263692  0.62150514  0.87161888  1
  O  O367  1  0.87493155  0.13190516  0.36387639  1
  O  O368  1  0.87373087  0.12267313  0.86772694  1
  O  O369  1  0.87236151  0.61288531  0.36847384  1
  O  O370  1  0.86618439  0.61651071  0.87209622  1
  O  O371  1  0.13498845  0.36656648  0.13410181  1
  O  O372  1  0.13636268  0.37476830  0.62571868  1
  O  O373  1  0.12652753  0.88297861  0.13461094  1
  O  O374  1  0.12593465  0.86869042  0.63445991  1
  O  O375  1  0.63380607  0.36834580  0.12477605  1
  O  O376  1  0.63386524  0.38332593  0.62041642  1
  O  O377  1  0.62497218  0.87326205  0.14016278  1
  O  O378  1  0.63234150  0.87653740  0.62860320  1
  O  O379  1  0.12844878  0.25947103  0.25992303  1
  O  O380  1  0.13490421  0.24387035  0.76721248  1
  O  O381  1  0.11331965  0.75946646  0.25970695  1
  O  O382  1  0.10846605  0.74494289  0.76195880  1
  O  O383  1  0.63491392  0.24198969  0.26655360  1
  O  O384  1  0.61729747  0.24440608  0.75663117  1
  O  O385  1  0.62517827  0.76410613  0.25170198  1
  O  O386  1  0.61827667  0.76392995  0.74332375  1
  O  O387  1  0.36776209  0.23777630  0.23622285  1
  O  O388  1  0.38020665  0.24402186  0.73979502  1
  O  O389  1  0.37271888  0.73636650  0.24669860  1
  O  O390  1  0.38474286  0.74323660  0.73677017  1
  O  O391  1  0.87441875  0.23884771  0.23923121  1
  O  O392  1  0.87014260  0.24365345  0.73975465  1
  O  O393  1  0.87584902  0.74936938  0.24312355  1
  O  O394  1  0.88354649  0.74430785  0.74563808  1
  O  O395  1  0.36649749  0.50792838  0.49099193  1
  O  O396  1  0.38586477  0.49460467  0.99486155  1
  O  O397  1  0.38382264  0.99223021  0.49571521  1
  O  O398  1  0.37671450  0.99157766  1.00323201  1
  O  O399  1  0.87569363  0.49463637  0.48996452  1
  O  O400  1  0.87628675  0.49252109  0.99457444  1
  O  O401  1  0.88262177  0.99196575  0.50332229  1
  O  O402  1  0.88470854  0.99622958  0.99356349  1
  O  O403  1  0.12158449  0.00451592  0.00828703  1
  O  O404  1  0.10612464  -0.00198258  0.49523129  1
  O  O405  1  0.10898962  0.49250590  -0.00501715  1
  O  O406  1  0.11989910  0.51072405  0.50020059  1
  O  O407  1  0.62663352  0.01343176  -0.00339052  1
  O  O408  1  0.62045071  0.00608810  0.49750824  1
  O  O409  1  0.61320956  0.50602813  -0.00385046  1
  O  O410  1  0.62702653  0.51102102  0.51265638  1
  O  O411  1  0.36652082  0.36157007  0.11687291  1
  O  O412  1  0.36103355  0.36764203  0.63003037  1
  O  O413  1  0.37015605  0.85906756  0.14216393  1
  O  O414  1  0.37942719  0.86065498  0.61702822  1
  O  O415  1  0.86869386  0.36696258  0.11662245  1
  O  O416  1  0.86866287  0.37138514  0.61915287  1
  O  O417  1  0.87661766  0.86865993  0.11254229  1
  O  O418  1  0.86587100  0.86831689  0.61498980  1
  O  O419  1  0.13414364  0.13478260  0.36978514  1
  O  O420  1  0.13791716  0.13311155  0.88566794  1
  O  O421  1  0.12726310  0.63300362  0.37983319  1
  O  O422  1  0.13297067  0.62805877  0.87369281  1
  O  O423  1  0.62515885  0.13394262  0.38772043  1
  O  O424  1  0.63755034  0.13665501  0.88018092  1
  O  O425  1  0.61746425  0.62192596  0.39401417  1
  O  O426  1  0.63592511  0.61550261  0.88544827  1
