# generated using pymatgen
data_V85Zn86O256
_symmetry_space_group_name_H-M   'P 1'
_cell_length_a   16.93270174
_cell_length_b   16.92879892
_cell_length_c   16.93226599
_cell_angle_alpha   89.97091555
_cell_angle_beta   90.02579978
_cell_angle_gamma   89.94788620
_symmetry_Int_Tables_number   1
_chemical_formula_structural   V85Zn86O256
_chemical_formula_sum   'V85 Zn86 O256'
_cell_volume   4853.63604718
_cell_formula_units_Z   1
loop_
 _symmetry_equiv_pos_site_id
 _symmetry_equiv_pos_as_xyz
  1  'x, y, z'
loop_
 _atom_site_type_symbol
 _atom_site_label
 _atom_site_symmetry_multiplicity
 _atom_site_fract_x
 _atom_site_fract_y
 _atom_site_fract_z
 _atom_site_occupancy
  V  V0  1  -0.00574443  0.63323493  0.63878448  1
  V  V1  1  0.25348641  0.00230049  0.25245977  1
  V  V2  1  0.37640013  0.87136091  0.49731160  1
  V  V3  1  0.25210504  0.49838316  0.75127835  1
  V  V4  1  0.62839296  0.25558695  0.38128399  1
  V  V5  1  0.37712090  0.25417901  0.12123890  1
  V  V6  1  0.74459007  0.51122485  0.75607543  1
  V  V7  1  0.12191655  0.86524185  0.74623925  1
  V  V8  1  0.37331840  0.74912375  0.12644579  1
  V  V9  1  0.50162853  0.74797122  0.25058339  1
  V  V10  1  0.63105221  0.74448867  0.87817447  1
  V  V11  1  0.87880561  0.00017503  0.37982000  1
  V  V12  1  0.87950446  0.89638111  -0.00011408  1
  V  V13  1  0.24634599  0.24255196  0.50303835  1
  V  V14  1  0.85779859  0.75619458  0.63186091  1
  V  V15  1  0.24736462  0.87855429  0.62060410  1
  V  V16  1  0.74997477  0.25036655  -0.00305761  1
  V  V17  1  0.12195676  0.37599034  0.24420158  1
  V  V18  1  0.50133925  -0.00300521  0.50657569  1
  V  V19  1  0.62499622  0.87085344  0.24636052  1
  V  V20  1  0.68718743  -0.05842764  0.58208879  1
  V  V21  1  0.50592490  0.12304202  0.62806212  1
  V  V22  1  0.50254509  0.25623247  0.74927227  1
  V  V23  1  0.75573387  0.62346093  0.38917808  1
  V  V24  1  0.01723136  0.00275426  0.50248917  1
  V  V25  1  0.87637515  0.25069991  0.12186505  1
  V  V26  1  0.11943110  0.38186936  0.74755324  1
  V  V27  1  0.12337057  0.00417781  0.11779220  1
  V  V28  1  0.75652877  -0.00819063  0.75275980  1
  V  V29  1  0.49942723  0.49289806  0.48703340  1
  V  V30  1  0.11764192  0.24504433  0.38078896  1
  V  V31  1  0.37749141  0.62110338  0.75282145  1
  V  V32  1  0.37529904  0.12470332  0.75051451  1
  V  V33  1  0.75164891  0.37543884  0.12221626  1
  V  V34  1  0.24654764  0.38034682  0.62141294  1
  V  V35  1  0.87775325  0.11931351  0.74923295  1
  V  V36  1  0.88037673  0.12601525  0.24921365  1
  V  V37  1  0.24857008  0.49761833  0.24271301  1
  V  V38  1  0.75081340  0.00005705  0.24764078  1
  V  V39  1  0.62459417  0.49375301  0.62651780  1
  V  V40  1  0.50113115  0.12882824  0.13341091  1
  V  V41  1  0.62899883  0.74248729  0.38630178  1
  V  V42  1  0.50464069  0.62160712  0.61930234  1
  V  V43  1  0.62373658  0.12433104  0.00052841  1
  V  V44  1  0.49704336  0.38111811  0.87413923  1
  V  V45  1  0.75304325  0.11834751  0.87450790  1
  V  V46  1  0.01487839  0.12174551  0.62168739  1
  V  V47  1  0.12401878  0.87226411  0.24933369  1
  V  V48  1  0.37530032  0.61892878  0.25667349  1
  V  V49  1  0.49853169  0.87450287  0.87574819  1
  V  V50  1  0.37045370  0.38213608  -0.00208082  1
  V  V51  1  0.62947649  0.12644012  0.50465950  1
  V  V52  1  0.24833855  0.74482705  0.49833898  1
  V  V53  1  0.75997863  0.50234457  0.25373989  1
  V  V54  1  -0.00040035  0.87202243  0.37992212  1
  V  V55  1  -0.00521386  0.62679735  0.12206948  1
  V  V56  1  0.37210274  0.87497440  0.00029125  1
  V  V57  1  0.62525847  0.25504046  0.87181574  1
  V  V58  1  0.62796437  0.37108240  0.25338100  1
  V  V59  1  0.24242782  0.00208100  0.74284156  1
  V  V60  1  -0.01934150  0.49846684  0.50137202  1
  V  V61  1  0.49898127  0.00149077  0.00072512  1
  V  V62  1  0.75266220  0.36977413  0.62990556  1
  V  V63  1  0.25113808  0.61320909  0.37791088  1
  V  V64  1  0.24828628  0.87414084  0.12515008  1
  V  V65  1  0.76351360  0.74259588  0.00437103  1
  V  V66  1  0.87620196  0.52045837  0.86730302  1
  V  V67  1  0.62615668  0.49889829  0.12179261  1
  V  V68  1  0.24350325  0.12667715  0.88011746  1
  V  V69  1  0.24400343  0.25219296  0.00684563  1
  V  V70  1  0.45345093  0.30956369  0.30832827  1
  V  V71  1  0.50079776  0.62471194  0.12132833  1
  V  V72  1  0.00060322  0.49641407  -0.00461420  1
  V  V73  1  0.00300958  0.12267681  0.10843696  1
  V  V74  1  -0.00199840  0.25522833  0.74988130  1
  V  V75  1  0.25397428  0.62001988  0.87678409  1
  V  V76  1  0.62406046  0.87985383  0.75264521  1
  V  V77  1  0.75338685  0.13322406  0.38062854  1
  V  V78  1  0.37567877  0.25325548  0.62462883  1
  V  V79  1  0.12193947  0.25503514  0.87656229  1
  V  V80  1  0.36911500  0.00011890  0.87590641  1
  V  V81  1  -0.01105439  0.75035879  0.24600103  1
  V  V82  1  0.87609673  0.37492202  -0.01693829  1
  V  V83  1  0.12162503  0.61108828  0.50682947  1
  V  V84  1  0.24425427  0.75108976  -0.00197207  1
  Zn  Zn85  1  0.12182694  0.74438896  0.37541902  1
  Zn  Zn86  1  0.12391126  0.62279920  -0.00028267  1
  Zn  Zn87  1  0.87471686  0.62634194  0.25259489  1
  Zn  Zn88  1  0.86236707  0.86965386  0.50423034  1
  Zn  Zn89  1  0.00011142  0.25291836  0.24894684  1
  Zn  Zn90  1  0.87450050  0.24960912  0.61981073  1
  Zn  Zn91  1  0.62450607  -0.00017510  0.12512202  1
  Zn  Zn92  1  0.12465719  0.49672656  0.12084139  1
  Zn  Zn93  1  -0.01049925  0.87923146  0.87296268  1
  Zn  Zn94  1  0.49969163  0.74839541  0.75186100  1
  Zn  Zn95  1  0.85498867  0.36272058  0.48751726  1
  Zn  Zn96  1  0.37720125  0.12709664  0.25454869  1
  Zn  Zn97  1  0.75707446  0.86695167  0.12753558  1
  Zn  Zn98  1  0.49731162  0.50254711  -0.00576744  1
  Zn  Zn99  1  -0.00905635  0.38559431  0.37159410  1
  Zn  Zn100  1  0.37593636  0.74628158  0.62679892  1
  Zn  Zn101  1  0.37924777  0.00331644  0.37510176  1
  Zn  Zn102  1  0.24881428  0.12217629  0.37860611  1
  Zn  Zn103  1  0.63100669  0.62354226  -0.00407974  1
  Zn  Zn104  1  0.11930385  0.74472710  0.86476313  1
  Zn  Zn105  1  0.50083852  0.87367119  0.37490815  1
  Zn  Zn106  1  0.37559764  0.37700454  0.48954799  1
  Zn  Zn107  1  0.18598103  0.18734632  0.18919683  1
  Zn  Zn108  1  0.18745957  0.19201488  0.69075159  1
  Zn  Zn109  1  0.18103371  0.68410303  0.18623839  1
  Zn  Zn110  1  0.18979091  0.68285663  0.68071173  1
  Zn  Zn111  1  0.68787415  0.18961479  0.19002330  1
  Zn  Zn112  1  0.68710787  0.18491508  0.69103037  1
  Zn  Zn113  1  0.69041720  0.68498043  0.18626145  1
  Zn  Zn114  1  0.68494786  0.68864639  0.68995094  1
  Zn  Zn115  1  0.29129718  0.31026187  0.31098978  1
  Zn  Zn116  1  0.31226669  0.31348176  0.81382294  1
  Zn  Zn117  1  0.31180515  0.80875828  0.31515665  1
  Zn  Zn118  1  0.30817362  0.81017763  0.81133392  1
  Zn  Zn119  1  0.81579393  0.31413242  0.31197336  1
  Zn  Zn120  1  0.80883537  0.31276222  0.80290756  1
  Zn  Zn121  1  0.81059847  0.81139801  0.31779619  1
  Zn  Zn122  1  0.81735653  0.80765496  0.81824264  1
  Zn  Zn123  1  0.18384217  0.43194196  0.43371469  1
  Zn  Zn124  1  0.18706203  0.43500929  0.93374288  1
  Zn  Zn125  1  0.18810412  0.93413736  0.43380190  1
  Zn  Zn126  1  0.14701809  0.95831985  0.91637503  1
  Zn  Zn127  1  0.68478816  0.44424501  0.44254921  1
  Zn  Zn128  1  0.68790305  0.43856041  0.93339484  1
  Zn  Zn129  1  0.68329922  0.94097477  0.41765267  1
  Zn  Zn130  1  0.69157274  0.93251139  0.94041053  1
  Zn  Zn131  1  0.31007702  0.06592764  0.06491449  1
  Zn  Zn132  1  0.31668116  0.06264089  0.56245923  1
  Zn  Zn133  1  0.31235830  0.56385895  0.06428162  1
  Zn  Zn134  1  0.31902598  0.55738241  0.56400149  1
  Zn  Zn135  1  0.81225369  0.06320573  0.06459452  1
  Zn  Zn136  1  0.82401286  0.07006767  0.56000646  1
  Zn  Zn137  1  0.81583417  0.56376245  0.06126469  1
  Zn  Zn138  1  0.81274033  0.56822656  0.57244426  1
  Zn  Zn139  1  0.43282889  0.44298549  0.17980773  1
  Zn  Zn140  1  0.43383106  0.43860166  0.68700483  1
  Zn  Zn141  1  0.43863242  0.93816831  0.18719369  1
  Zn  Zn142  1  0.43401890  0.93605152  0.68687588  1
  Zn  Zn143  1  0.93884787  0.43647585  0.18209668  1
  Zn  Zn144  1  0.93495215  0.44455513  0.68326211  1
  Zn  Zn145  1  0.93875075  0.93735280  0.18266629  1
  Zn  Zn146  1  0.93704485  0.93456377  0.68310398  1
  Zn  Zn147  1  0.06432350  0.06187566  0.30930643  1
  Zn  Zn148  1  0.05886047  0.06126449  0.81027826  1
  Zn  Zn149  1  0.06109905  0.56324652  0.31657913  1
  Zn  Zn150  1  0.06530738  0.56111124  0.81594420  1
  Zn  Zn151  1  0.56362907  0.06285560  0.31689522  1
  Zn  Zn152  1  0.56452088  0.06166319  0.81342609  1
  Zn  Zn153  1  0.56971798  0.56212316  0.30920060  1
  Zn  Zn154  1  0.56467470  0.56243578  0.80890423  1
  Zn  Zn155  1  0.43352461  0.18199207  0.44470614  1
  Zn  Zn156  1  0.43546684  0.18887392  0.93856167  1
  Zn  Zn157  1  0.44017424  0.68447178  0.43778815  1
  Zn  Zn158  1  0.43579765  0.68898702  0.93610373  1
  Zn  Zn159  1  0.93821786  0.19231471  0.44301170  1
  Zn  Zn160  1  0.93686020  0.18693371  0.93147341  1
  Zn  Zn161  1  0.93302496  0.69049007  0.44525951  1
  Zn  Zn162  1  0.94451471  0.69498197  0.93279213  1
  Zn  Zn163  1  0.05939434  0.31334495  0.06170611  1
  Zn  Zn164  1  0.06018579  0.31546363  0.56445131  1
  Zn  Zn165  1  0.05705651  0.81311213  0.06014120  1
  Zn  Zn166  1  0.06322096  0.80823400  0.56230208  1
  Zn  Zn167  1  0.56058437  0.31310917  0.06051818  1
  Zn  Zn168  1  0.56619620  0.31740476  0.56261792  1
  Zn  Zn169  1  0.56563473  0.81187573  0.06149279  1
  Zn  Zn170  1  0.55925494  0.80512104  0.56403885  1
  O  O171  1  0.11355112  0.11754492  0.13300255  1
  O  O172  1  0.11334835  0.12510791  0.63221258  1
  O  O173  1  0.11188619  0.61903814  0.12159824  1
  O  O174  1  0.11632341  0.62577043  0.61223056  1
  O  O175  1  0.61821728  0.12619245  0.11976108  1
  O  O176  1  0.61779146  0.12979469  0.61833973  1
  O  O177  1  0.61636043  0.61573970  0.12473397  1
  O  O178  1  0.61000353  0.61519970  0.63485193  1
  O  O179  1  0.38628543  0.36014831  0.36573159  1
  O  O180  1  0.38484813  0.36764931  0.88512420  1
  O  O181  1  0.37766098  0.87437770  0.38666406  1
  O  O182  1  0.37726567  0.88034955  0.87980766  1
  O  O183  1  0.87749112  0.37566980  0.37785652  1
  O  O184  1  0.87095972  0.37291424  0.88198768  1
  O  O185  1  0.88072344  0.88254950  0.38053544  1
  O  O186  1  0.87255072  0.87540230  0.89278453  1
  O  O187  1  0.25038113  -0.00010345  0.36358948  1
  O  O188  1  0.24869762  0.01058455  0.86734119  1
  O  O189  1  0.24799361  0.50871307  0.36768012  1
  O  O190  1  0.24860642  0.50513122  0.86220242  1
  O  O191  1  0.75868617  0.01035234  0.36444079  1
  O  O192  1  0.74309100  0.01248009  0.86858860  1
  O  O193  1  0.73791536  0.51525078  0.36600259  1
  O  O194  1  0.75990679  0.49701375  0.86472755  1
  O  O195  1  0.24423069  0.50782694  0.13827463  1
  O  O196  1  0.25386258  0.49262697  0.63708679  1
  O  O197  1  0.24828935  0.99517343  0.13790042  1
  O  O198  1  0.25802793  0.99087349  0.62988256  1
  O  O199  1  0.74328621  0.49623788  0.13020616  1
  O  O200  1  0.74316452  0.49917824  0.63705481  1
  O  O201  1  0.74625721  1.00462342  0.14003819  1
  O  O202  1  0.75256448  1.00579018  0.63407286  1
  O  O203  1  0.00607960  0.37421785  0.25195902  1
  O  O204  1  0.00728399  0.36781360  0.73747568  1
  O  O205  1  0.00537544  0.87115668  0.25812237  1
  O  O206  1  0.02087243  0.88225217  0.74474589  1
  O  O207  1  0.50547836  0.37767559  0.25007435  1
  O  O208  1  0.49176559  0.36326193  0.75714943  1
  O  O209  1  0.50810681  0.86920864  0.25189394  1
  O  O210  1  0.50618663  0.87473297  0.75599231  1
  O  O211  1  0.50033229  0.11863394  0.23747198  1
  O  O212  1  0.49535126  0.13192705  0.74751181  1
  O  O213  1  0.49350123  0.62515035  0.24106985  1
  O  O214  1  0.49204970  0.62427400  0.74358135  1
  O  O215  1  0.98780919  0.12544458  0.24737283  1
  O  O216  1  0.99520318  0.12795810  0.74181449  1
  O  O217  1  0.99864448  0.63401506  0.24653656  1
  O  O218  1  1.00816581  0.62054277  0.73625300  1
  O  O219  1  0.36748470  0.25665812  0.00673174  1
  O  O220  1  0.36715419  0.25563461  0.50701274  1
  O  O221  1  0.36555367  0.75367397  0.00667414  1
  O  O222  1  0.36935317  0.75483372  0.50028765  1
  O  O223  1  0.86972232  0.25628307  0.00067782  1
  O  O224  1  0.86965651  0.24950292  0.50681515  1
  O  O225  1  0.86396203  0.74901439  0.00012446  1
  O  O226  1  0.87842141  0.75563262  0.51785915  1
  O  O227  1  0.12921731  0.25601485  0.48872783  1
  O  O228  1  0.13199474  0.25744511  0.99077027  1
  O  O229  1  0.13373194  0.73810604  0.49740357  1
  O  O230  1  0.13789442  0.74964749  1.00302946  1
  O  O231  1  0.62085854  0.24675756  0.48742575  1
  O  O232  1  0.63060235  0.24386319  0.99307317  1
  O  O233  1  0.62219432  0.75205553  0.48449489  1
  O  O234  1  0.63229576  0.74992097  0.99244545  1
  O  O235  1  0.49145088  0.24102780  0.11981509  1
  O  O236  1  0.49775384  0.24781910  0.63296341  1
  O  O237  1  0.49608713  0.74227461  0.12993696  1
  O  O238  1  0.49847065  0.73478684  0.62904976  1
  O  O239  1  0.99346255  0.24137358  0.12655276  1
  O  O240  1  1.00243807  0.23886700  0.63383657  1
  O  O241  1  1.00534813  0.74104730  0.13474081  1
  O  O242  1  1.00002213  0.73591208  0.62346513  1
  O  O243  1  0.01033986  0.25007883  0.37298784  1
  O  O244  1  0.00812129  0.24421216  0.85968933  1
  O  O245  1  -0.00002087  0.75783084  0.37021635  1
  O  O246  1  0.00995165  0.76489181  0.87943296  1
  O  O247  1  0.50644476  0.24612319  0.37093442  1
  O  O248  1  0.50575301  0.25518178  0.86887187  1
  O  O249  1  0.51165289  0.74720923  0.36869682  1
  O  O250  1  0.50544695  0.76008477  0.87521519  1
  O  O251  1  0.25261033  0.13851199  0.50318181  1
  O  O252  1  0.25509752  0.13627125  0.98923016  1
  O  O253  1  0.24549111  0.62581827  0.49744738  1
  O  O254  1  0.25075064  0.63041994  0.99291346  1
  O  O255  1  0.74465131  0.11633746  0.48926897  1
  O  O256  1  0.74642531  0.13039498  0.99178356  1
  O  O257  1  0.74892133  0.61721628  0.48760212  1
  O  O258  1  0.74917845  0.63699142  1.00234458  1
  O  O259  1  0.25811507  0.36469079  -0.00601313  1
  O  O260  1  0.25260777  0.36822330  0.50581225  1
  O  O261  1  0.25678576  0.86587419  0.00848902  1
  O  O262  1  0.25531961  0.86627720  0.50129891  1
  O  O263  1  0.75569810  0.36949312  0.00237473  1
  O  O264  1  0.74470016  0.38761664  0.52282778  1
  O  O265  1  0.75993405  0.86743332  0.00508977  1
  O  O266  1  0.74236744  0.89400496  0.50640043  1
  O  O267  1  0.13008583  0.49298830  0.25143450  1
  O  O268  1  0.13140757  0.48722239  0.75420213  1
  O  O269  1  0.13201359  0.98882900  0.24539305  1
  O  O270  1  0.14032984  0.99129164  0.74487343  1
  O  O271  1  0.63045293  0.48935930  0.23924777  1
  O  O272  1  0.63759162  0.49885549  0.74723282  1
  O  O273  1  0.63415503  0.99093263  0.25485542  1
  O  O274  1  0.63148194  0.98775704  0.75244229  1
  O  O275  1  0.36715310  -0.00114010  0.25360742  1
  O  O276  1  0.36664375  0.00459443  0.75698874  1
  O  O277  1  0.36591308  0.50923036  0.24595480  1
  O  O278  1  0.36737061  0.51088051  0.74975999  1
  O  O279  1  0.87099927  0.00491373  0.25991914  1
  O  O280  1  0.86871880  0.00533687  0.74898135  1
  O  O281  1  0.86191800  0.49766469  0.24643007  1
  O  O282  1  0.86740103  0.49929417  0.76280015  1
  O  O283  1  0.11922870  0.36399752  0.36578787  1
  O  O284  1  0.12757855  0.36262112  0.86375357  1
  O  O285  1  0.11679128  0.87096486  0.36631522  1
  O  O286  1  0.14990272  0.86445452  0.84902172  1
  O  O287  1  0.63201110  0.36764669  0.36775085  1
  O  O288  1  0.61701585  0.36102077  0.88122732  1
  O  O289  1  0.62445262  0.86071580  0.36251263  1
  O  O290  1  0.61795491  0.86980578  0.87032984  1
  O  O291  1  0.38188032  0.13756288  0.12870491  1
  O  O292  1  0.38505603  0.13295104  0.62964717  1
  O  O293  1  0.38143518  0.62985346  0.13419470  1
  O  O294  1  0.38688486  0.62287330  0.63310703  1
  O  O295  1  0.88151843  0.12880040  0.13174476  1
  O  O296  1  0.88382631  0.12776869  0.63795877  1
  O  O297  1  0.88962733  0.61876001  0.13074646  1
  O  O298  1  0.88637297  0.63784095  0.62577576  1
  O  O299  1  0.25718571  0.24377628  0.11395540  1
  O  O300  1  0.25404274  0.25657063  0.61994496  1
  O  O301  1  0.25431138  0.75193361  0.12068142  1
  O  O302  1  0.25449575  0.75379354  0.61115139  1
  O  O303  1  0.75561249  0.25408494  0.11749289  1
  O  O304  1  0.74656770  0.26657361  0.63650152  1
  O  O305  1  0.74406915  0.75079548  0.10972697  1
  O  O306  1  0.75767514  0.74528408  0.62439146  1
  O  O307  1  0.23717450  0.24719870  0.38579898  1
  O  O308  1  0.24346310  0.24500613  0.88203064  1
  O  O309  1  0.24933869  0.73817459  0.38539180  1
  O  O310  1  0.25029249  0.73991197  0.88435244  1
  O  O311  1  0.74240532  0.23939425  0.36822723  1
  O  O312  1  0.74201035  0.24143842  0.87390699  1
  O  O313  1  0.73867588  0.73827778  0.37221779  1
  O  O314  1  0.74083040  0.75512692  0.88981417  1
  O  O315  1  -0.00391026  0.12796957  0.00917289  1
  O  O316  1  -0.00033347  0.11902443  0.51432079  1
  O  O317  1  -0.00059185  0.61570906  0.00495828  1
  O  O318  1  0.00989061  0.61728648  0.50185563  1
  O  O319  1  0.50337756  0.12077353  0.00769243  1
  O  O320  1  0.50845189  0.11576849  0.50665899  1
  O  O321  1  0.49832236  0.62352098  0.01121013  1
  O  O322  1  0.49449918  0.61484138  0.51425119  1
  O  O323  1  0.49777555  0.38763771  0.50029898  1
  O  O324  1  0.49082831  0.37519432  0.99094311  1
  O  O325  1  0.49288837  0.87895507  0.50186709  1
  O  O326  1  0.49282230  0.88109068  0.99687862  1
  O  O327  1  0.99931093  0.39349332  0.50616791  1
  O  O328  1  0.98891990  0.38638440  1.00257372  1
  O  O329  1  1.00544102  0.88225048  0.48950618  1
  O  O330  1  0.98267102  0.87783234  1.00542980  1
  O  O331  1  0.50818673  0.50640374  0.38877021  1
  O  O332  1  0.50743128  0.48499014  0.87462824  1
  O  O333  1  0.50422152  0.99595953  0.39156016  1
  O  O334  1  0.49187155  0.99540143  0.88111226  1
  O  O335  1  1.00428519  0.50293683  0.39628530  1
  O  O336  1  0.98517955  0.50398123  0.87958748  1
  O  O337  1  0.99528517  0.99458402  0.37914369  1
  O  O338  1  1.03897866  0.98280450  0.88364054  1
  O  O339  1  0.01146009  0.01014081  0.12980863  1
  O  O340  1  -0.00219894  0.01200885  0.61634944  1
  O  O341  1  0.00074154  0.50555835  0.11257553  1
  O  O342  1  -0.00693112  0.51664081  0.61193285  1
  O  O343  1  0.50090810  0.00847553  0.11736213  1
  O  O344  1  0.49521667  0.00539316  0.61515231  1
  O  O345  1  0.50861446  0.50733192  0.12147439  1
  O  O346  1  0.50629158  0.50537203  0.62511449  1
  O  O347  1  0.23871635  0.38704072  0.25106238  1
  O  O348  1  0.24520654  0.38098643  0.74465913  1
  O  O349  1  0.24283062  0.87744469  0.24635604  1
  O  O350  1  0.25245145  0.88235146  0.73595153  1
  O  O351  1  0.74298739  0.38080616  0.24255058  1
  O  O352  1  0.75162607  0.38881878  0.73841017  1
  O  O353  1  0.74481791  0.88204606  0.24964594  1
  O  O354  1  0.74390208  0.88735572  0.75844841  1
  O  O355  1  0.25416717  0.11524656  0.25073282  1
  O  O356  1  0.25634891  0.11969711  0.75338120  1
  O  O357  1  0.25521311  0.62122817  0.25888933  1
  O  O358  1  0.25488545  0.61721175  0.75390391  1
  O  O359  1  0.76015116  0.11990317  0.25629464  1
  O  O360  1  0.75616262  0.11482545  0.75548548  1
  O  O361  1  0.75258020  0.61633214  0.25458685  1
  O  O362  1  0.74731982  0.61068253  0.75002304  1
  O  O363  1  0.37023914  0.12241655  0.37230209  1
  O  O364  1  0.36503818  0.12141465  0.87034563  1
  O  O365  1  0.36819896  0.62856994  0.36449859  1
  O  O366  1  0.36416151  0.62580775  0.86906157  1
  O  O367  1  0.87104825  0.12049301  0.36937810  1
  O  O368  1  0.86539509  0.12989000  0.86109374  1
  O  O369  1  0.85941076  0.63178254  0.37346837  1
  O  O370  1  0.87462309  0.61806341  0.87528059  1
  O  O371  1  0.11973483  0.37519441  0.13901218  1
  O  O372  1  0.13877239  0.36939610  0.63307064  1
  O  O373  1  0.12851409  0.88064952  0.13264030  1
  O  O374  1  0.13952621  0.87096437  0.62928132  1
  O  O375  1  0.62990256  0.37923201  0.12997257  1
  O  O376  1  0.63094816  0.38685697  0.62927882  1
  O  O377  1  0.62693674  0.87819550  0.13666862  1
  O  O378  1  0.62391255  0.87301136  0.63358244  1
  O  O379  1  0.12624602  0.25846170  0.26043131  1
  O  O380  1  0.11913090  0.26096264  0.75552131  1
  O  O381  1  0.11908860  0.76070560  0.25228963  1
  O  O382  1  0.13384928  0.76144874  0.74306628  1
  O  O383  1  0.62600174  0.26254792  0.25854789  1
  O  O384  1  0.61356535  0.24389988  0.75991076  1
  O  O385  1  0.62029446  0.75512068  0.25231216  1
  O  O386  1  0.62591243  0.76266148  0.75969572  1
  O  O387  1  0.38220730  0.25677993  0.24696521  1
  O  O388  1  0.38145139  0.24344585  0.74562024  1
  O  O389  1  0.38144135  0.74214573  0.24633536  1
  O  O390  1  0.37441561  0.73598707  0.74842303  1
  O  O391  1  0.87451061  0.24101937  0.24091087  1
  O  O392  1  0.88379450  0.24280593  0.74573599  1
  O  O393  1  0.88596065  0.75383948  0.25107173  1
  O  O394  1  0.87221537  0.75679804  0.73415290  1
  O  O395  1  0.39145324  0.49475011  0.50059747  1
  O  O396  1  0.37541471  0.48630948  1.00687560  1
  O  O397  1  0.38360142  0.99060937  0.49800349  1
  O  O398  1  0.37650779  0.99595348  0.99505582  1
  O  O399  1  0.88022141  0.50111624  0.50192525  1
  O  O400  1  0.87669961  0.49415902  0.98531934  1
  O  O401  1  0.88433167  0.99949480  0.48816577  1
  O  O402  1  0.87005923  0.99604211  0.99496874  1
  O  O403  1  0.14624558  0.00095887  0.02112992  1
  O  O404  1  0.11651430  0.00126278  0.49282299  1
  O  O405  1  0.11413981  0.49772761  -0.00297676  1
  O  O406  1  0.12947396  0.51050017  0.50156763  1
  O  O407  1  0.61945176  0.00638365  0.00096437  1
  O  O408  1  0.62267426  -0.00099026  0.50837836  1
  O  O409  1  0.62474870  0.50097188  0.00991313  1
  O  O410  1  0.60998389  0.50041281  0.51297540  1
  O  O411  1  0.38040462  0.36237275  0.11612591  1
  O  O412  1  0.36247809  0.36835296  0.62679369  1
  O  O413  1  0.36940685  0.86822397  0.12143878  1
  O  O414  1  0.36687926  0.87068810  0.61344484  1
  O  O415  1  0.86841965  0.36985606  0.11378128  1
  O  O416  1  0.86119321  0.37476115  0.62403476  1
  O  O417  1  0.87016519  0.88387660  0.11113952  1
  O  O418  1  0.87457726  0.86408226  0.62092694  1
  O  O419  1  0.12653527  0.14095146  0.36837186  1
  O  O420  1  0.13724980  0.13943466  0.86375182  1
  O  O421  1  0.13415710  0.62534860  0.38689211  1
  O  O422  1  0.13906954  0.62663825  0.87717662  1
  O  O423  1  0.63413905  0.13227602  0.38080397  1
  O  O424  1  0.63074845  0.13380611  0.88042013  1
  O  O425  1  0.63385012  0.63734708  0.36942541  1
  O  O426  1  0.61613743  0.64038817  0.87660049  1
