# generated using pymatgen
data_V85Zn86O256
_symmetry_space_group_name_H-M   'P 1'
_cell_length_a   16.95887635
_cell_length_b   16.95133542
_cell_length_c   16.93186348
_cell_angle_alpha   90.05440573
_cell_angle_beta   89.97499933
_cell_angle_gamma   89.95618121
_symmetry_Int_Tables_number   1
_chemical_formula_structural   V85Zn86O256
_chemical_formula_sum   'V85 Zn86 O256'
_cell_volume   4867.49355340
_cell_formula_units_Z   1
loop_
 _symmetry_equiv_pos_site_id
 _symmetry_equiv_pos_as_xyz
  1  'x, y, z'
loop_
 _atom_site_type_symbol
 _atom_site_label
 _atom_site_symmetry_multiplicity
 _atom_site_fract_x
 _atom_site_fract_y
 _atom_site_fract_z
 _atom_site_occupancy
  V  V0  1  0.24578086  0.23705033  0.49886479  1
  V  V1  1  0.87341344  0.00094940  0.37441523  1
  V  V2  1  0.12676797  0.62850562  0.50335390  1
  V  V3  1  0.87901071  0.12556082  0.24054767  1
  V  V4  1  0.74893409  0.74330916  -0.00357181  1
  V  V5  1  0.24672608  0.37427103  0.63041042  1
  V  V6  1  0.24868948  0.37223894  0.12846597  1
  V  V7  1  0.00592813  0.00984546  0.50876475  1
  V  V8  1  0.50163999  0.36885267  0.85985045  1
  V  V9  1  0.24391391  0.49703345  0.25153996  1
  V  V10  1  0.00114394  0.49184656  -0.00518058  1
  V  V11  1  0.87100626  0.75208825  0.62764045  1
  V  V12  1  0.50262351  0.00640514  -0.00268716  1
  V  V13  1  0.37184697  0.37603081  0.50073420  1
  V  V14  1  0.11759129  0.37533745  0.75638492  1
  V  V15  1  0.00182890  0.75055377  0.25363598  1
  V  V16  1  -0.00003349  0.88052388  0.37887707  1
  V  V17  1  0.25846081  0.24429913  0.00563796  1
  V  V18  1  0.00193971  0.87792821  0.87927690  1
  V  V19  1  0.63242203  0.49652877  0.12306724  1
  V  V20  1  0.36712633  0.87136483  0.49836571  1
  V  V21  1  0.86429159  0.62610708  0.75742458  1
  V  V22  1  0.25158239  0.74539590  -0.00363479  1
  V  V23  1  0.62601602  0.74601219  0.87197639  1
  V  V24  1  0.12120699  0.25318276  0.87983701  1
  V  V25  1  0.24749524  0.00662619  0.24677704  1
  V  V26  1  0.50229692  0.87509795  0.86767644  1
  V  V27  1  0.49974003  0.75001106  0.25143741  1
  V  V28  1  0.12471503  0.49857184  0.62834435  1
  V  V29  1  0.72574011  0.38466571  0.62259351  1
  V  V30  1  0.62454352  0.87743289  0.24917472  1
  V  V31  1  0.12973268  0.88649893  0.75058602  1
  V  V32  1  0.37443295  0.75115160  0.12607561  1
  V  V33  1  0.87650621  0.48980012  0.37666299  1
  V  V34  1  0.62110866  0.24358229  0.85149758  1
  V  V35  1  0.74737054  0.87463165  0.12652383  1
  V  V36  1  0.12905982  0.62285991  -0.00480320  1
  V  V37  1  0.62635155  0.75130490  0.37537340  1
  V  V38  1  0.38598199  0.24823629  0.62937769  1
  V  V39  1  0.63409336  0.37425118  0.24659569  1
  V  V40  1  0.13000280  0.75477141  0.38290713  1
  V  V41  1  0.50220010  0.01970896  0.50727587  1
  V  V42  1  0.36932165  0.50618898  0.87409995  1
  V  V43  1  0.25019980  0.12259576  0.87054185  1
  V  V44  1  0.49771463  0.37704736  0.37314260  1
  V  V45  1  0.87563669  0.00364361  0.87691622  1
  V  V46  1  0.87400953  0.74803019  0.12657712  1
  V  V47  1  0.62318254  0.24757532  0.37739421  1
  V  V48  1  0.87773158  0.25395717  0.11926890  1
  V  V49  1  0.87820198  0.62261568  0.25215100  1
  V  V50  1  0.37339371  0.12893981  0.23977099  1
  V  V51  1  0.50050182  0.88020355  0.37871225  1
  V  V52  1  0.50071171  0.49946481  -0.00167037  1
  V  V53  1  0.37289827  0.01200333  0.37489971  1
  V  V54  1  -0.00083579  0.62543948  0.62743266  1
  V  V55  1  0.38684890  0.12965544  0.74730762  1
  V  V56  1  0.86557286  0.50244233  0.87924843  1
  V  V57  1  0.00372908  0.62167311  0.12536236  1
  V  V58  1  0.49623130  0.25133969  0.24013441  1
  V  V59  1  0.87206991  0.37062572  -0.00622454  1
  V  V60  1  0.74693195  0.12729556  0.37504098  1
  V  V61  1  0.75103195  0.62246634  0.37568400  1
  V  V62  1  0.37197777  -0.00118602  0.86389078  1
  V  V63  1  0.62513887  0.00878827  0.12053639  1
  V  V64  1  0.12523340  0.88169290  0.24484352  1
  V  V65  1  0.74751224  0.75440800  0.50382812  1
  V  V66  1  0.50184385  0.62335440  0.12783067  1
  V  V67  1  0.37824672  0.36900487  0.00408751  1
  V  V68  1  0.87579647  0.87561040  0.00315816  1
  V  V69  1  0.63505980  0.00562229  0.62267259  1
  V  V70  1  0.73478305  0.25390290  0.00510441  1
  V  V71  1  0.00803336  0.25104210  0.24192041  1
  V  V72  1  0.12927939  0.22724112  0.37369878  1
  V  V73  1  0.37530288  0.87605704  -0.00033795  1
  V  V74  1  0.01352608  0.37409750  0.36922511  1
  V  V75  1  0.87164806  0.87779677  0.50815971  1
  V  V76  1  0.93174175  0.31861611  0.55488944  1
  V  V77  1  0.74143120  0.11886406  0.88140724  1
  V  V78  1  0.25212513  0.62902299  0.38175717  1
  V  V79  1  0.75017926  0.25456119  0.50438768  1
  V  V80  1  0.37463044  0.62441158  0.25272749  1
  V  V81  1  0.11893517  0.11780093  0.01093095  1
  V  V82  1  0.50015149  0.62062069  0.62564064  1
  V  V83  1  -0.00300845  0.49994079  0.50169634  1
  V  V84  1  0.00193652  0.75039243  0.75297604  1
  Zn  Zn85  1  0.73389303  0.50381834  0.73950379  1
  Zn  Zn86  1  0.12222129  0.49098511  0.12855656  1
  Zn  Zn87  1  0.00261703  0.00140364  0.01582125  1
  Zn  Zn88  1  0.62576807  0.61955362  0.50669687  1
  Zn  Zn89  1  0.37256336  0.49972455  0.37693369  1
  Zn  Zn90  1  0.63671435  0.87048109  0.73427577  1
  Zn  Zn91  1  0.24660875  0.87808580  0.12411529  1
  Zn  Zn92  1  0.36507919  0.63298539  0.75055512  1
  Zn  Zn93  1  0.62928836  0.62190651  -0.00292604  1
  Zn  Zn94  1  0.24561377  0.87419837  0.62237761  1
  Zn  Zn95  1  0.13135395  0.74692598  0.87258768  1
  Zn  Zn96  1  0.51044857  0.49287322  0.50859878  1
  Zn  Zn97  1  0.75536031  -0.00633785  0.74719251  1
  Zn  Zn98  1  -0.00637965  0.24989444  0.73782850  1
  Zn  Zn99  1  0.88256452  0.12865817  0.73283954  1
  Zn  Zn100  1  0.36630165  0.74723824  0.62382692  1
  Zn  Zn101  1  0.74830470  0.00353144  0.24922828  1
  Zn  Zn102  1  0.13313420  0.01749971  0.63328362  1
  Zn  Zn103  1  0.24361508  0.50775153  0.75912161  1
  Zn  Zn104  1  0.50158992  0.13199932  0.11753906  1
  Zn  Zn105  1  0.49725376  0.75045851  0.74434488  1
  Zn  Zn106  1  0.75482580  0.49549405  0.24524500  1
  Zn  Zn107  1  0.19395544  0.19373820  0.18927999  1
  Zn  Zn108  1  0.19417129  0.19165543  0.69424162  1
  Zn  Zn109  1  0.18797767  0.68922586  0.18934683  1
  Zn  Zn110  1  0.19561485  0.69185740  0.68638968  1
  Zn  Zn111  1  0.68963113  0.19014954  0.18701269  1
  Zn  Zn112  1  0.71677848  0.16965491  0.67469234  1
  Zn  Zn113  1  0.68704577  0.68478570  0.18858182  1
  Zn  Zn114  1  0.68212708  0.68879263  0.68616173  1
  Zn  Zn115  1  0.30944464  0.30911038  0.31335606  1
  Zn  Zn116  1  0.31190831  0.31317997  0.81502720  1
  Zn  Zn117  1  0.31170983  0.81670302  0.31556689  1
  Zn  Zn118  1  0.31249579  0.80996139  0.81170436  1
  Zn  Zn119  1  0.81550139  0.31006904  0.31130141  1
  Zn  Zn120  1  0.80214819  0.31514369  0.80736088  1
  Zn  Zn121  1  0.81299115  0.81298172  0.31454499  1
  Zn  Zn122  1  0.81120323  0.81574849  0.81442757  1
  Zn  Zn123  1  0.18911858  0.43829584  0.44262452  1
  Zn  Zn124  1  0.18963883  0.43417865  0.94410201  1
  Zn  Zn125  1  0.18744257  0.95056482  0.43238649  1
  Zn  Zn126  1  0.19013107  0.93729081  0.93692395  1
  Zn  Zn127  1  0.68871724  0.43537346  0.43772789  1
  Zn  Zn128  1  0.66908200  0.44907653  0.90440040  1
  Zn  Zn129  1  0.68546058  0.94176998  0.44241429  1
  Zn  Zn130  1  0.68614122  0.93089947  0.93783513  1
  Zn  Zn131  1  0.31362581  0.05984280  0.06206034  1
  Zn  Zn132  1  0.30946686  0.05840777  0.56991748  1
  Zn  Zn133  1  0.31335151  0.55964539  0.06453154  1
  Zn  Zn134  1  0.31451937  0.56053422  0.56539527  1
  Zn  Zn135  1  0.81195888  0.06573884  0.05867962  1
  Zn  Zn136  1  0.81253294  0.06594280  0.55921679  1
  Zn  Zn137  1  0.81453192  0.56055343  0.06128474  1
  Zn  Zn138  1  0.81279246  0.56207018  0.56211652  1
  Zn  Zn139  1  0.43570701  0.43825773  0.18756553  1
  Zn  Zn140  1  0.43552871  0.43958380  0.68708802  1
  Zn  Zn141  1  0.43740984  0.94062868  0.18689491  1
  Zn  Zn142  1  0.44071678  0.93973986  0.68179446  1
  Zn  Zn143  1  0.93728416  0.43243797  0.18487118  1
  Zn  Zn144  1  0.93735858  0.44098854  0.69756453  1
  Zn  Zn145  1  0.93438080  0.93602350  0.18949499  1
  Zn  Zn146  1  0.93765065  0.93956201  0.69042115  1
  Zn  Zn147  1  0.06412542  0.06568351  0.19114606  1
  Zn  Zn148  1  0.05668237  0.07004498  0.81561366  1
  Zn  Zn149  1  0.06592545  0.56246047  0.31534791  1
  Zn  Zn150  1  0.05835924  0.56260946  0.81589045  1
  Zn  Zn151  1  0.56071251  0.06475826  0.30990653  1
  Zn  Zn152  1  0.56717684  0.06120691  0.80600720  1
  Zn  Zn153  1  0.56726828  0.55748417  0.32075739  1
  Zn  Zn154  1  0.55832276  0.56411277  0.80640678  1
  Zn  Zn155  1  0.43264798  0.19362820  0.43426088  1
  Zn  Zn156  1  0.44077690  0.18654396  0.93149832  1
  Zn  Zn157  1  0.44074259  0.68741661  0.44161299  1
  Zn  Zn158  1  0.44175276  0.68727847  0.93799573  1
  Zn  Zn159  1  0.93733382  0.18581295  0.42430390  1
  Zn  Zn160  1  0.91660399  0.21056705  0.89767041  1
  Zn  Zn161  1  0.93744807  0.68834978  0.43937239  1
  Zn  Zn162  1  0.94006944  0.68741213  0.93857344  1
  Zn  Zn163  1  0.06436583  0.30938541  0.05866623  1
  Zn  Zn164  1  0.06615823  0.18280694  0.55826433  1
  Zn  Zn165  1  0.06278777  0.80943116  0.06319558  1
  Zn  Zn166  1  0.06093595  0.81580105  0.56642541  1
  Zn  Zn167  1  0.56194696  0.31843849  0.06195679  1
  Zn  Zn168  1  0.56292897  0.30840302  0.56003072  1
  Zn  Zn169  1  0.56142775  0.81526799  0.05946320  1
  Zn  Zn170  1  0.55753604  0.81234641  0.56363089  1
  O  O171  1  0.13032385  0.12909782  0.11559652  1
  O  O172  1  0.13133935  0.12967392  0.62829973  1
  O  O173  1  0.11371666  0.62567791  0.12026460  1
  O  O174  1  0.11887106  0.62007149  0.62050894  1
  O  O175  1  0.62391598  0.11182903  0.13046249  1
  O  O176  1  0.62950432  0.10731694  0.62515763  1
  O  O177  1  0.61676874  0.61741047  0.12455646  1
  O  O178  1  0.60812753  0.62665937  0.62446577  1
  O  O179  1  0.38097345  0.37165960  0.38265788  1
  O  O180  1  0.38257824  0.37884470  0.88586433  1
  O  O181  1  0.38355509  0.88752643  0.37746751  1
  O  O182  1  0.38026463  0.88245358  0.87990478  1
  O  O183  1  0.88410787  0.38637758  0.36769251  1
  O  O184  1  0.86963289  0.38422413  0.88672807  1
  O  O185  1  0.88218231  0.87839530  0.38336136  1
  O  O186  1  0.88242619  0.88303569  0.88398561  1
  O  O187  1  0.26239087  0.00007351  0.36128831  1
  O  O188  1  0.26192249  0.00882330  0.88159088  1
  O  O189  1  0.25071063  0.50723488  0.36852054  1
  O  O190  1  0.26666438  0.49408716  0.88246218  1
  O  O191  1  0.75417416  0.01010162  0.37501611  1
  O  O192  1  0.75637752  0.00416155  0.88525622  1
  O  O193  1  0.76098198  0.50701487  0.37123163  1
  O  O194  1  0.76723052  0.50853735  0.89713671  1
  O  O195  1  0.24823137  0.49182931  0.13293975  1
  O  O196  1  0.24447949  0.48774608  0.62541777  1
  O  O197  1  0.25818968  0.99489455  0.14032327  1
  O  O198  1  0.24167229  0.98609689  0.61676086  1
  O  O199  1  0.73656939  0.50590934  0.12601965  1
  O  O200  1  0.74828221  0.48972877  0.62142446  1
  O  O201  1  0.74233307  0.99321404  0.12348149  1
  O  O202  1  0.73688084  0.99397496  0.61388013  1
  O  O203  1  -0.00139534  0.36282671  0.25623747  1
  O  O204  1  0.01335912  0.36857412  0.74806733  1
  O  O205  1  0.00507804  0.87058966  0.26130852  1
  O  O206  1  0.00326375  0.86897675  0.76063783  1
  O  O207  1  0.50389225  0.36813669  0.25406273  1
  O  O208  1  0.49524728  0.37555364  0.76107143  1
  O  O209  1  0.50364385  0.87239977  0.26019735  1
  O  O210  1  0.49941041  0.87805294  0.76172059  1
  O  O211  1  0.49382955  0.13526388  0.24634135  1
  O  O212  1  0.48575823  0.12485867  0.75710666  1
  O  O213  1  0.49500195  0.62901675  0.24854111  1
  O  O214  1  0.49172750  0.62569575  0.73916857  1
  O  O215  1  0.99196791  0.13942057  0.24900948  1
  O  O216  1  0.99491285  0.13678242  0.75388037  1
  O  O217  1  0.99870030  0.62935575  0.24528204  1
  O  O218  1  0.99324580  0.63348555  0.74704775  1
  O  O219  1  0.37156176  0.25694794  -0.00465245  1
  O  O220  1  0.36702531  0.25933940  0.50477367  1
  O  O221  1  0.37051364  0.75389117  0.00536311  1
  O  O222  1  0.37695032  0.76976590  0.49073696  1
  O  O223  1  0.87309481  0.25563077  0.00073409  1
  O  O224  1  0.87120454  0.25779448  0.49426998  1
  O  O225  1  0.86941820  0.75518856  0.00572433  1
  O  O226  1  0.86863490  0.75821619  0.50486810  1
  O  O227  1  0.13072504  0.24633271  0.48383342  1
  O  O228  1  0.13784252  0.24102333  0.99598179  1
  O  O229  1  0.11774509  0.74897412  0.48898345  1
  O  O230  1  0.13407440  0.74133969  1.00142344  1
  O  O231  1  0.63246745  0.25436055  0.48428652  1
  O  O232  1  0.63453229  0.24820224  1.00843659  1
  O  O233  1  0.63263215  0.74871325  0.49334242  1
  O  O234  1  0.63370534  0.75011148  0.99562640  1
  O  O235  1  0.50298793  0.25103629  0.13601665  1
  O  O236  1  0.48481068  0.25187058  0.61868251  1
  O  O237  1  0.49548730  0.74477951  0.13110041  1
  O  O238  1  0.49202441  0.73775297  0.62228737  1
  O  O239  1  0.99370624  0.25400653  0.13142217  1
  O  O240  1  0.99208753  0.25864213  0.61168935  1
  O  O241  1  0.99350921  0.74156799  0.13171604  1
  O  O242  1  0.99229517  0.74609302  0.63445099  1
  O  O243  1  0.01162420  0.25578654  0.36744478  1
  O  O244  1  0.02285476  0.25375357  0.89183034  1
  O  O245  1  0.00480760  0.76070985  0.37313251  1
  O  O246  1  0.00014196  0.76145782  0.87020627  1
  O  O247  1  0.50635908  0.25865043  0.36651519  1
  O  O248  1  0.51179427  0.25330630  0.87281299  1
  O  O249  1  0.50608263  0.75860342  0.36999181  1
  O  O250  1  0.50566692  0.76075630  0.87660954  1
  O  O251  1  0.26087304  0.13893360  0.49904899  1
  O  O252  1  0.24834491  0.13001884  0.99525287  1
  O  O253  1  0.24425600  0.61771653  0.48803846  1
  O  O254  1  0.24027008  0.63130327  1.00992761  1
  O  O255  1  0.75759951  0.13925146  0.48146260  1
  O  O256  1  0.75304185  0.14014744  0.99090969  1
  O  O257  1  0.75131195  0.63281100  0.48819702  1
  O  O258  1  0.74979709  0.63981152  1.00882094  1
  O  O259  1  0.26033910  0.36514102  0.00630234  1
  O  O260  1  0.25514086  0.36836728  0.50774234  1
  O  O261  1  0.25798931  0.86833844  0.00417842  1
  O  O262  1  0.26669537  0.88251084  0.48566038  1
  O  O263  1  0.75652060  0.35699481  -0.00487218  1
  O  O264  1  0.74998925  0.37071871  0.50936543  1
  O  O265  1  0.75580915  0.86451986  0.00964068  1
  O  O266  1  0.76030085  0.86627722  0.49129996  1
  O  O267  1  0.13931110  0.50551281  0.24739249  1
  O  O268  1  0.12276464  0.49263919  0.75039225  1
  O  O269  1  0.13446570  0.99381203  0.25315197  1
  O  O270  1  0.11668416  0.98872707  0.75463122  1
  O  O271  1  0.62692887  0.49111237  0.24238358  1
  O  O272  1  0.64060815  0.49234915  0.79942392  1
  O  O273  1  0.62544955  0.99262850  0.24178501  1
  O  O274  1  0.62905485  0.99667736  0.73535401  1
  O  O275  1  0.37256703  0.00833109  0.25661205  1
  O  O276  1  0.37856850  0.00495170  0.75947561  1
  O  O277  1  0.36441692  0.50963130  0.25034787  1
  O  O278  1  0.37146169  0.49610124  0.76786655  1
  O  O279  1  0.87129329  0.00861909  0.25658113  1
  O  O280  1  0.87579764  0.00417900  0.76224380  1
  O  O281  1  0.87584456  0.50526049  0.25526317  1
  O  O282  1  0.87031470  0.50817257  0.76269472  1
  O  O283  1  0.11395756  0.37735943  0.37776836  1
  O  O284  1  0.13516609  0.36240769  0.87229072  1
  O  O285  1  0.11835236  0.87167267  0.36948663  1
  O  O286  1  0.11678911  0.87308516  0.86950432  1
  O  O287  1  0.61666339  0.36731250  0.36474680  1
  O  O288  1  0.61282414  0.35174202  0.88099065  1
  O  O289  1  0.61896406  0.87261702  0.36992683  1
  O  O290  1  0.61474250  0.86522774  0.87590824  1
  O  O291  1  0.38125409  0.12038648  0.13593230  1
  O  O292  1  0.36662614  0.13582139  0.63602326  1
  O  O293  1  0.38185617  0.63082215  0.13214262  1
  O  O294  1  0.38332108  0.62719671  0.62480356  1
  O  O295  1  0.86978696  0.13416662  0.13407086  1
  O  O296  1  0.82613857  0.14322062  0.63645779  1
  O  O297  1  0.88625822  0.62721433  0.13062155  1
  O  O298  1  0.88097859  0.63166181  0.63273113  1
  O  O299  1  0.25504203  0.25625760  0.11453107  1
  O  O300  1  0.25351563  0.26276704  0.61733025  1
  O  O301  1  0.25832841  0.75222269  0.11851976  1
  O  O302  1  0.25168507  0.76166937  0.61974369  1
  O  O303  1  0.75859214  0.24541503  0.11143732  1
  O  O304  1  0.73481127  0.26676064  0.60728323  1
  O  O305  1  0.75548802  0.75498157  0.12253656  1
  O  O306  1  0.75437719  0.74408799  0.61085929  1
  O  O307  1  0.23552084  0.25362836  0.38156673  1
  O  O308  1  0.24637188  0.24274094  0.88773186  1
  O  O309  1  0.24059727  0.74194944  0.37071741  1
  O  O310  1  0.24992493  0.75326632  0.89225118  1
  O  O311  1  0.74315825  0.24876316  0.37958994  1
  O  O312  1  0.73316193  0.24396177  0.88335844  1
  O  O313  1  0.74836762  0.74319868  0.38346743  1
  O  O314  1  0.74081697  0.75469306  0.88601130  1
  O  O315  1  0.02071742  0.12429824  -0.00046798  1
  O  O316  1  -0.00778371  0.11369829  0.49661790  1
  O  O317  1  0.00556127  0.61835088  0.00986134  1
  O  O318  1  0.00679468  0.62128052  0.50623641  1
  O  O319  1  0.49481550  0.11051993  0.00035570  1
  O  O320  1  0.49803496  0.11722024  0.49168650  1
  O  O321  1  0.49983879  0.61255280  0.00861902  1
  O  O322  1  0.49984429  0.62012875  0.51017015  1
  O  O323  1  0.49159025  0.37364640  0.49014786  1
  O  O324  1  0.49381203  0.38362192  0.99656422  1
  O  O325  1  0.49264419  0.88189656  0.48636863  1
  O  O326  1  0.49207635  0.88200940  0.99053020  1
  O  O327  1  0.99079648  0.37910439  0.49210584  1
  O  O328  1  0.99061033  0.38277212  1.00578731  1
  O  O329  1  0.99105175  0.88090171  0.49575701  1
  O  O330  1  0.99532633  0.87342904  0.99483121  1
  O  O331  1  0.49144261  0.48405764  0.36686439  1
  O  O332  1  0.49055266  0.49021018  0.88409989  1
  O  O333  1  0.49556408  0.99595014  0.37989613  1
  O  O334  1  0.49588438  0.99376159  0.88027932  1
  O  O335  1  0.99681360  0.49274966  0.37900766  1
  O  O336  1  0.99054082  0.50309051  0.89045649  1
  O  O337  1  0.99104873  0.98708553  0.38647525  1
  O  O338  1  0.99387956  0.99011088  0.88281751  1
  O  O339  1  0.00264282  -0.00301246  0.12866464  1
  O  O340  1  -0.00003694  -0.00123781  0.61077490  1
  O  O341  1  0.00239905  0.50570976  0.11883691  1
  O  O342  1  0.00390296  0.50597926  0.62261091  1
  O  O343  1  0.50863988  -0.00116943  0.11537125  1
  O  O344  1  0.49887239  0.00944145  0.60979328  1
  O  O345  1  0.50767293  0.50368397  0.11862415  1
  O  O346  1  0.49413267  0.51286895  0.62364128  1
  O  O347  1  0.25926587  0.38371369  0.24073701  1
  O  O348  1  0.24142594  0.37788991  0.74516802  1
  O  O349  1  0.24050934  0.88292415  0.25105160  1
  O  O350  1  0.23045963  0.87234779  0.75767304  1
  O  O351  1  0.73775207  0.37440613  0.25347628  1
  O  O352  1  0.75196910  0.37622696  0.72469799  1
  O  O353  1  0.74468215  0.87647910  0.24314744  1
  O  O354  1  0.74899735  0.88003470  0.75127626  1
  O  O355  1  0.26024114  0.11968327  0.24691551  1
  O  O356  1  0.25957464  0.12962109  0.76734538  1
  O  O357  1  0.25449220  0.62040390  0.25993496  1
  O  O358  1  0.25066846  0.62070537  0.75197063  1
  O  O359  1  0.75829390  0.12760495  0.25804827  1
  O  O360  1  0.75232038  0.11510022  0.77476345  1
  O  O361  1  0.75867652  0.62519258  0.26087950  1
  O  O362  1  0.76136871  0.62504875  0.74341932  1
  O  O363  1  0.38154121  0.11593471  0.36394459  1
  O  O364  1  0.36929552  0.11713169  0.87083120  1
  O  O365  1  0.36734170  0.62547562  0.37176462  1
  O  O366  1  0.38173881  0.60828037  0.87835123  1
  O  O367  1  0.86834851  0.12216362  0.35991023  1
  O  O368  1  0.86672992  0.10732069  0.89049269  1
  O  O369  1  0.87156177  0.61821702  0.36981512  1
  O  O370  1  0.88185012  0.61927239  0.86645749  1
  O  O371  1  0.14326819  0.37360632  0.11763376  1
  O  O372  1  0.13332530  0.38357606  0.63881616  1
  O  O373  1  0.12504619  0.86559893  0.14209407  1
  O  O374  1  0.11735762  0.87777080  0.64445069  1
  O  O375  1  0.62067745  0.38515467  0.13442175  1
  O  O376  1  0.62639924  0.38473917  0.61953914  1
  O  O377  1  0.62959931  0.88102061  0.13048697  1
  O  O378  1  0.60617181  0.89423197  0.62359677  1
  O  O379  1  0.11967172  0.24727630  0.26032031  1
  O  O380  1  0.12729009  0.25709003  0.76752706  1
  O  O381  1  0.11923723  0.75574318  0.26265010  1
  O  O382  1  0.11108854  0.75642363  0.75354912  1
  O  O383  1  0.61814149  0.25714550  0.25453671  1
  O  O384  1  0.63389684  0.24113466  0.75523158  1
  O  O385  1  0.61951577  0.75821039  0.25398112  1
  O  O386  1  0.61906664  0.75398533  0.75717641  1
  O  O387  1  0.38397012  0.24096216  0.25605525  1
  O  O388  1  0.36912217  0.24420012  0.74067345  1
  O  O389  1  0.38003558  0.74521327  0.24718296  1
  O  O390  1  0.37979478  0.75070322  0.74682489  1
  O  O391  1  0.88202735  0.24585301  0.23908881  1
  O  O392  1  0.88510255  0.24265390  0.78817273  1
  O  O393  1  0.88265094  0.74375166  0.24732105  1
  O  O394  1  0.88338891  0.74421308  0.75010338  1
  O  O395  1  0.37502815  0.48452561  0.49787627  1
  O  O396  1  0.38195418  0.49323640  0.99416331  1
  O  O397  1  0.38640668  0.99757735  0.49091982  1
  O  O398  1  0.38244790  0.99235503  0.99281472  1
  O  O399  1  0.88528505  0.50902049  0.48788910  1
  O  O400  1  0.88357055  0.49120266  1.00113156  1
  O  O401  1  0.88018484  0.99420851  0.49608862  1
  O  O402  1  0.87822320  0.98953824  0.99916852  1
  O  O403  1  0.12791796  0.01427274  -0.00172923  1
  O  O404  1  0.10691058  -0.00315740  0.49893750  1
  O  O405  1  0.11867491  0.50502487  0.00353314  1
  O  O406  1  0.11674391  0.50595433  0.50756464  1
  O  O407  1  0.61494892  -0.00845254  0.00892102  1
  O  O408  1  0.60921451  -0.00006877  0.50483179  1
  O  O409  1  0.61675275  0.49947881  0.00387769  1
  O  O410  1  0.61625096  0.51164277  0.47014925  1
  O  O411  1  0.36798565  0.38147016  0.11118191  1
  O  O412  1  0.36780196  0.36941852  0.62020220  1
  O  O413  1  0.37787398  0.86673527  0.11804167  1
  O  O414  1  0.37886373  0.87822092  0.60507056  1
  O  O415  1  0.87393802  0.36174925  0.11495178  1
  O  O416  1  0.87934962  0.37537293  0.61938214  1
  O  O417  1  0.86721133  0.86663921  0.12305738  1
  O  O418  1  0.88035978  0.86892695  0.61492197  1
  O  O419  1  0.12440857  0.13247352  0.37188246  1
  O  O420  1  0.13447445  0.13392947  0.88433512  1
  O  O421  1  0.13105583  0.63493528  0.38193819  1
  O  O422  1  0.11712906  0.62799950  0.89153021  1
  O  O423  1  0.63393025  0.13621761  0.36440056  1
  O  O424  1  0.62664751  0.13457747  0.87584462  1
  O  O425  1  0.63730993  0.63668341  0.36779968  1
  O  O426  1  0.61302598  0.64318740  0.88072263  1
