# generated using pymatgen
data_V85Zn86O256
_symmetry_space_group_name_H-M   'P 1'
_cell_length_a   16.93217956
_cell_length_b   16.93610987
_cell_length_c   16.93285464
_cell_angle_alpha   89.93918377
_cell_angle_beta   89.93152575
_cell_angle_gamma   90.01872274
_symmetry_Int_Tables_number   1
_chemical_formula_structural   V85Zn86O256
_chemical_formula_sum   'V85 Zn86 O256'
_cell_volume   4855.74788652
_cell_formula_units_Z   1
loop_
 _symmetry_equiv_pos_site_id
 _symmetry_equiv_pos_as_xyz
  1  'x, y, z'
loop_
 _atom_site_type_symbol
 _atom_site_label
 _atom_site_symmetry_multiplicity
 _atom_site_fract_x
 _atom_site_fract_y
 _atom_site_fract_z
 _atom_site_occupancy
  V  V0  1  0.24405978  0.11767766  0.37664236  1
  V  V1  1  0.24997317  0.87623429  0.62458122  1
  V  V2  1  0.75134009  -0.00859963  0.74731061  1
  V  V3  1  0.12340074  0.50109912  0.62659712  1
  V  V4  1  0.37539485  0.50033218  0.37497536  1
  V  V5  1  0.38198501  0.48665417  0.88074886  1
  V  V6  1  0.25872735  0.25326421  0.00050685  1
  V  V7  1  0.87034642  0.49725635  0.38189104  1
  V  V8  1  0.00196379  0.00526706  0.50113398  1
  V  V9  1  -0.00172686  0.75519641  0.75356598  1
  V  V10  1  0.87057746  0.37729460  0.00096183  1
  V  V11  1  0.25905848  0.00610444  0.74862271  1
  V  V12  1  0.74094195  0.12599359  0.38301881  1
  V  V13  1  -0.00293343  0.50388625  -0.00354514  1
  V  V14  1  0.87077643  0.62258126  0.76300198  1
  V  V15  1  0.25051575  0.50012227  0.75116260  1
  V  V16  1  0.12314466  0.74893011  0.88042679  1
  V  V17  1  0.25058039  0.62795570  0.37371529  1
  V  V18  1  0.50863519  0.50087280  0.49934440  1
  V  V19  1  0.12528484  0.62774310  0.50079960  1
  V  V20  1  0.37964908  0.87581866  0.49493419  1
  V  V21  1  0.38090138  -0.00382518  0.87389686  1
  V  V22  1  0.63069035  -0.00237433  0.62169203  1
  V  V23  1  0.12239097  0.87860987  0.75512468  1
  V  V24  1  0.00127115  0.75300736  0.25229714  1
  V  V25  1  0.37791333  0.75568171  0.10986478  1
  V  V26  1  0.62801210  0.74044644  0.87829896  1
  V  V27  1  0.12617513  0.50212714  0.11713058  1
  V  V28  1  0.37529693  0.62400271  0.75101070  1
  V  V29  1  0.49824347  -0.00048971  0.01078890  1
  V  V30  1  0.50117064  0.75459955  0.75176695  1
  V  V31  1  0.87116187  0.74753898  0.12401386  1
  V  V32  1  -0.00467324  0.37791509  0.87692136  1
  V  V33  1  0.87314355  0.12656346  0.74974516  1
  V  V34  1  0.37510912  0.37442110  0.50122192  1
  V  V35  1  0.87228673  -0.00136895  0.37488166  1
  V  V36  1  0.87628006  0.12549294  0.24678440  1
  V  V37  1  0.12255777  0.37580810  0.75136246  1
  V  V38  1  0.61759590  0.75415115  0.37495257  1
  V  V39  1  0.88675515  -0.00428422  0.87166406  1
  V  V40  1  0.24774512  0.62496604  0.88209048  1
  V  V41  1  0.50418809  0.49032728  0.00066207  1
  V  V42  1  0.38304603  0.62730473  0.24544424  1
  V  V43  1  0.00710918  0.62551210  0.12366722  1
  V  V44  1  0.25006146  0.37461692  0.62461686  1
  V  V45  1  -0.00569545  0.37471875  0.38012798  1
  V  V46  1  0.86714153  0.75268908  0.62769047  1
  V  V47  1  0.63395278  0.50498884  0.12273070  1
  V  V48  1  0.00261493  0.25021172  0.24495249  1
  V  V49  1  0.62287574  0.37377494  0.75487962  1
  V  V50  1  0.50741572  0.12603460  0.62631640  1
  V  V51  1  -0.00434685  0.50034364  0.50023541  1
  V  V52  1  0.74085718  0.75038958  0.50415122  1
  V  V53  1  0.74914944  0.24816934  0.00070843  1
  V  V54  1  0.12330442  0.12250884  0.01562910  1
  V  V55  1  0.37551224  0.24127202  0.62781575  1
  V  V56  1  0.62827394  0.36428581  0.24151249  1
  V  V57  1  0.25313220  0.12617257  0.87302171  1
  V  V58  1  0.37432125  0.75086743  0.62496168  1
  V  V59  1  0.86893501  0.87552719  0.50384162  1
  V  V60  1  0.50761874  0.62491826  0.62102391  1
  V  V61  1  -0.00297802  0.62629130  0.62657812  1
  V  V62  1  0.74646949  0.73655637  -0.00307186  1
  V  V63  1  -0.00169447  0.25007531  0.75111317  1
  V  V64  1  0.24868891  0.50582055  0.24666769  1
  V  V65  1  0.75252370  0.50120085  0.76379598  1
  V  V66  1  0.87149359  0.62358585  0.25104985  1
  V  V67  1  0.37811858  0.14091344  0.24893794  1
  V  V68  1  0.49833682  0.24924383  0.75755042  1
  V  V69  1  0.74431697  0.00062120  0.24388561  1
  V  V70  1  0.87228743  0.25803840  0.12620160  1
  V  V71  1  0.12508747  0.37671264  0.25033588  1
  V  V72  1  0.88033052  0.87384980  -0.00730286  1
  V  V73  1  0.74131961  0.62463747  0.37989421  1
  V  V74  1  0.75206870  0.37914570  0.61722486  1
  V  V75  1  0.61512732  0.87833738  0.24823603  1
  V  V76  1  0.25980723  0.37662631  0.11883614  1
  V  V77  1  0.49932428  0.36571482  0.36813012  1
  V  V78  1  0.87350384  0.25400985  0.61649387  1
  V  V79  1  0.50413781  0.00389093  0.49562126  1
  V  V80  1  0.12491679  0.24912988  0.38249245  1
  V  V81  1  0.63331525  0.11397034  0.00601248  1
  V  V82  1  0.12602303  0.00824854  0.62212542  1
  V  V83  1  0.74606526  0.87746261  0.12043401  1
  V  V84  1  0.37598077  -0.00103486  0.36792529  1
  Zn  Zn85  1  0.61613651  0.24500636  0.37815071  1
  Zn  Zn86  1  0.00306499  0.87555536  0.37553214  1
  Zn  Zn87  1  0.75046164  0.49336448  0.24899493  1
  Zn  Zn88  1  0.74994246  0.12280339  0.87477838  1
  Zn  Zn89  1  0.50030055  0.75318764  0.24620375  1
  Zn  Zn90  1  0.50979922  0.13435731  0.13393609  1
  Zn  Zn91  1  0.23620638  0.89154590  0.11753999  1
  Zn  Zn92  1  0.62900220  0.50239861  0.62496385  1
  Zn  Zn93  1  0.25332323  0.75718183  -0.00407762  1
  Zn  Zn94  1  0.12226697  0.75329468  0.37637344  1
  Zn  Zn95  1  0.62158684  0.24933278  0.87862340  1
  Zn  Zn96  1  0.24414196  0.24610128  0.50302131  1
  Zn  Zn97  1  0.13528373  0.89471973  0.25171202  1
  Zn  Zn98  1  0.62947541  0.87430828  0.74943510  1
  Zn  Zn99  1  0.00390840  0.12941884  0.62129651  1
  Zn  Zn100  1  0.24901583  0.75183764  0.50113721  1
  Zn  Zn101  1  0.74239830  0.25025938  0.50173787  1
  Zn  Zn102  1  0.01021755  -0.00195589  0.01216537  1
  Zn  Zn103  1  0.12525145  0.24818953  0.87882538  1
  Zn  Zn104  1  0.38347564  0.25968115  0.12135965  1
  Zn  Zn105  1  0.50676642  0.62714234  0.10840048  1
  Zn  Zn106  1  0.50261600  0.87573203  0.88175267  1
  Zn  Zn107  1  0.19830268  0.06198428  0.19121389  1
  Zn  Zn108  1  0.18768326  0.18783569  0.68961339  1
  Zn  Zn109  1  0.20228882  0.73261879  0.19950500  1
  Zn  Zn110  1  0.18727957  0.68908031  0.69054495  1
  Zn  Zn111  1  0.69154705  0.18938105  0.18444750  1
  Zn  Zn112  1  0.68681611  0.18593081  0.68616810  1
  Zn  Zn113  1  0.68678642  0.68811216  0.18947628  1
  Zn  Zn114  1  0.68687117  0.68536209  0.69163110  1
  Zn  Zn115  1  0.30537697  0.31424165  0.31293356  1
  Zn  Zn116  1  0.31216016  0.30898284  0.80970007  1
  Zn  Zn117  1  0.31626706  0.81283175  0.31101630  1
  Zn  Zn118  1  0.31185484  0.81594152  0.81486309  1
  Zn  Zn119  1  0.80999263  0.31252423  0.31420394  1
  Zn  Zn120  1  0.81107548  0.31489786  0.81419476  1
  Zn  Zn121  1  0.80853367  0.81311285  0.31252579  1
  Zn  Zn122  1  0.80969702  0.81201103  0.81500942  1
  Zn  Zn123  1  0.18605718  0.43929070  0.43817829  1
  Zn  Zn124  1  0.18630049  0.43768714  0.93672740  1
  Zn  Zn125  1  0.18662142  0.93540406  0.43580813  1
  Zn  Zn126  1  0.18976398  0.93897913  0.93915030  1
  Zn  Zn127  1  0.68425897  0.43105776  0.43473396  1
  Zn  Zn128  1  0.68595962  0.43401912  0.93914367  1
  Zn  Zn129  1  0.68587409  0.93591995  0.43600743  1
  Zn  Zn130  1  0.68985928  0.93321158  0.93123910  1
  Zn  Zn131  1  0.31559063  0.06499648  0.05853776  1
  Zn  Zn132  1  0.31366320  0.06298106  0.55727005  1
  Zn  Zn133  1  0.31736349  0.56675308  0.06089669  1
  Zn  Zn134  1  0.31464547  0.56175147  0.56310209  1
  Zn  Zn135  1  0.84694041  0.04999089  0.07627217  1
  Zn  Zn136  1  0.81410026  0.06467650  0.56524407  1
  Zn  Zn137  1  0.81392509  0.55973588  0.06244795  1
  Zn  Zn138  1  0.80896306  0.56641662  0.56516213  1
  Zn  Zn139  1  0.44345010  0.44100417  0.18839137  1
  Zn  Zn140  1  0.43968751  0.43526033  0.68844346  1
  Zn  Zn141  1  0.42415420  0.94236537  0.17998574  1
  Zn  Zn142  1  0.43908577  0.93931233  0.68441157  1
  Zn  Zn143  1  0.93705390  0.43843447  0.18947936  1
  Zn  Zn144  1  0.93227155  0.43850106  0.68873612  1
  Zn  Zn145  1  0.94221898  0.93484324  0.18396808  1
  Zn  Zn146  1  0.93807492  0.93653689  0.68560455  1
  Zn  Zn147  1  0.05782845  0.06571788  0.31651543  1
  Zn  Zn148  1  0.06620837  0.06553145  0.81464191  1
  Zn  Zn149  1  0.06168312  0.56526006  0.31090895  1
  Zn  Zn150  1  0.05999908  0.56538330  0.81396364  1
  Zn  Zn151  1  0.55973554  0.06019758  0.31034324  1
  Zn  Zn152  1  0.56620193  0.06730650  0.81322289  1
  Zn  Zn153  1  0.56495433  0.55624950  0.30995526  1
  Zn  Zn154  1  0.56217533  0.56112146  0.81159557  1
  Zn  Zn155  1  0.43422246  0.18459704  0.44173938  1
  Zn  Zn156  1  0.43887824  0.17883026  0.93925893  1
  Zn  Zn157  1  0.43719027  0.68732082  0.43813927  1
  Zn  Zn158  1  0.44525808  0.67799418  0.93443692  1
  Zn  Zn159  1  0.93404889  0.18515097  0.43494657  1
  Zn  Zn160  1  0.93947253  0.18597488  0.93749120  1
  Zn  Zn161  1  0.93260609  0.68719199  0.43800764  1
  Zn  Zn162  1  0.93856315  0.68932666  0.93867908  1
  Zn  Zn163  1  0.06888214  0.31027234  0.06280425  1
  Zn  Zn164  1  0.05894446  0.31539664  0.56270452  1
  Zn  Zn165  1  0.06330052  0.81431544  0.06351671  1
  Zn  Zn166  1  0.05887755  0.81697636  0.56509251  1
  Zn  Zn167  1  0.56090500  0.31193746  0.06088773  1
  Zn  Zn168  1  0.56585415  0.31182918  0.56312791  1
  Zn  Zn169  1  0.56364732  0.81308367  0.06212443  1
  Zn  Zn170  1  0.56151761  0.81806947  0.56450425  1
  O  O171  1  0.13354276  0.12696096  0.11374332  1
  O  O172  1  0.12456071  0.11264288  0.62732333  1
  O  O173  1  0.10959002  0.61703686  0.12962028  1
  O  O174  1  0.11952627  0.62041700  0.62060076  1
  O  O175  1  0.62796479  0.12597658  0.11114006  1
  O  O176  1  0.61779609  0.11373566  0.62507359  1
  O  O177  1  0.62307131  0.60904076  0.13363350  1
  O  O178  1  0.61103488  0.62378975  0.62785665  1
  O  O179  1  0.37799485  0.38083094  0.38086418  1
  O  O180  1  0.36956427  0.38959057  0.86901102  1
  O  O181  1  0.36949371  0.88329163  0.38380587  1
  O  O182  1  0.37882072  0.89042886  0.87119423  1
  O  O183  1  0.88096187  0.38526327  0.37216284  1
  O  O184  1  0.88820422  0.37186118  0.88326039  1
  O  O185  1  0.87090370  0.88705149  0.38163569  1
  O  O186  1  0.87384488  0.88101799  0.88054162  1
  O  O187  1  0.25807813  0.01097009  0.38233887  1
  O  O188  1  0.25643570  0.00589632  0.86581130  1
  O  O189  1  0.25370834  0.51005952  0.37030200  1
  O  O190  1  0.25689250  0.50600210  0.86980323  1
  O  O191  1  0.75381047  0.00857743  0.36885672  1
  O  O192  1  0.75905005  0.00181710  0.86189678  1
  O  O193  1  0.75428803  0.50677862  0.37655316  1
  O  O194  1  0.74868352  0.49705121  0.86261737  1
  O  O195  1  0.24199120  0.50075328  0.12533203  1
  O  O196  1  0.24473995  0.49539498  0.63161988  1
  O  O197  1  0.27273994  0.99797109  0.13532638  1
  O  O198  1  0.24551649  0.99787658  0.62966433  1
  O  O199  1  0.73832379  0.50024292  0.12727607  1
  O  O200  1  0.74927016  0.49404041  0.63190295  1
  O  O201  1  0.75919996  0.99144171  0.13477149  1
  O  O202  1  0.74202001  1.00585836  0.63166367  1
  O  O203  1  0.00335849  0.37152044  0.26169268  1
  O  O204  1  0.00099675  0.37179801  0.75778309  1
  O  O205  1  -0.00769959  0.86223793  0.25370240  1
  O  O206  1  0.00875993  0.86670470  0.74476594  1
  O  O207  1  0.51112189  0.37990903  0.25875530  1
  O  O208  1  0.51148936  0.36409709  0.74236272  1
  O  O209  1  0.51301903  0.88009719  0.23892251  1
  O  O210  1  0.49692723  0.86067129  0.74798554  1
  O  O211  1  0.48360501  0.12292837  0.25253354  1
  O  O212  1  0.50385308  0.13347282  0.73632993  1
  O  O213  1  0.48852684  0.62319306  0.25481980  1
  O  O214  1  0.49283896  0.63367508  0.74367604  1
  O  O215  1  0.98542690  0.13923965  0.26322547  1
  O  O216  1  0.99489856  0.13518264  0.74822047  1
  O  O217  1  0.98589031  0.62617681  0.24464854  1
  O  O218  1  0.99132710  0.63040717  0.74350033  1
  O  O219  1  0.36241271  0.24394446  -0.00349300  1
  O  O220  1  0.37378067  0.26255542  0.50820275  1
  O  O221  1  0.38247954  0.74431413  0.00644394  1
  O  O222  1  0.37460107  0.75851280  0.50590296  1
  O  O223  1  0.87400657  0.25423521  0.00894771  1
  O  O224  1  0.87232676  0.24478367  0.51387187  1
  O  O225  1  0.86705202  0.75603327  0.00162478  1
  O  O226  1  0.86593695  0.75593776  0.50776579  1
  O  O227  1  0.12212249  0.25566985  0.48787291  1
  O  O228  1  0.13719765  0.24143167  0.99948535  1
  O  O229  1  0.12342829  0.73852094  0.50243592  1
  O  O230  1  0.11660902  0.74990888  0.98199827  1
  O  O231  1  0.62923531  0.25641697  0.49150657  1
  O  O232  1  0.63515406  0.24326334  0.99859682  1
  O  O233  1  0.63432727  0.76027409  0.49445926  1
  O  O234  1  0.63047134  0.75146313  0.98717679  1
  O  O235  1  0.49420047  0.24621820  0.11955032  1
  O  O236  1  0.49432388  0.24328972  0.62952565  1
  O  O237  1  0.49358670  0.74430970  0.12382346  1
  O  O238  1  0.49465763  0.74326114  0.63009642  1
  O  O239  1  0.99621667  0.25769768  0.13984882  1
  O  O240  1  0.99246167  0.25265430  0.63460773  1
  O  O241  1  0.99033211  0.74023644  0.13122698  1
  O  O242  1  0.99257718  0.74594842  0.63493346  1
  O  O243  1  0.00075492  0.25865815  0.37253605  1
  O  O244  1  0.00076613  0.25770100  0.86455628  1
  O  O245  1  -0.00459455  0.75149586  0.36726670  1
  O  O246  1  0.00632092  0.74419261  0.86040128  1
  O  O247  1  0.49454221  0.26291916  0.38031799  1
  O  O248  1  0.49722162  0.24181924  0.86075712  1
  O  O249  1  0.51464151  0.74542454  0.37620020  1
  O  O250  1  0.50810096  0.75196691  0.86845562  1
  O  O251  1  0.25747243  0.13078274  0.48321708  1
  O  O252  1  0.24339996  0.13242150  0.99290299  1
  O  O253  1  0.24195787  0.62383441  0.49481740  1
  O  O254  1  0.25283960  0.62573444  0.98399840  1
  O  O255  1  0.75306732  0.12190904  0.48514850  1
  O  O256  1  0.74281860  0.12878620  1.00087457  1
  O  O257  1  0.75227953  0.63700197  0.49161561  1
  O  O258  1  0.75598180  0.63740983  1.00263029  1
  O  O259  1  0.24409692  0.36789588  0.00708899  1
  O  O260  1  0.25682233  0.37525554  0.50624840  1
  O  O261  1  0.24421505  0.86891761  0.00422051  1
  O  O262  1  0.25962145  0.87524820  0.50816670  1
  O  O263  1  0.76478578  0.36788092  -0.00542910  1
  O  O264  1  0.74960674  0.37761819  0.51346453  1
  O  O265  1  0.75601935  0.86741842  0.00553597  1
  O  O266  1  0.76128465  0.86724961  0.49674648  1
  O  O267  1  0.12895535  0.49856086  0.23975101  1
  O  O268  1  0.12819350  0.49545851  0.74541831  1
  O  O269  1  0.12165743  1.00655471  0.25077816  1
  O  O270  1  0.13152561  0.99426949  0.74382120  1
  O  O271  1  0.62738362  0.49016380  0.23871110  1
  O  O272  1  0.63450307  0.49414201  0.74869736  1
  O  O273  1  0.63623175  0.99378905  0.25349693  1
  O  O274  1  0.63576652  1.00092141  0.74363387  1
  O  O275  1  0.38046480  0.00338410  0.26584909  1
  O  O276  1  0.36506495  -0.00172544  0.75262494  1
  O  O277  1  0.36817746  0.50723837  0.25521660  1
  O  O278  1  0.37224040  0.50646191  0.75603710  1
  O  O279  1  0.86672961  0.00746027  0.25938850  1
  O  O280  1  0.87209791  0.00669597  0.75150079  1
  O  O281  1  0.87167287  0.50619332  0.26037598  1
  O  O282  1  0.86275336  0.50825070  0.74916585  1
  O  O283  1  0.11734198  0.37262046  0.37055713  1
  O  O284  1  0.11337663  0.37310887  0.86987706  1
  O  O285  1  0.12154952  0.86993790  0.37027688  1
  O  O286  1  0.12986035  0.86818886  0.86024808  1
  O  O287  1  0.61415851  0.37478907  0.36287922  1
  O  O288  1  0.63226546  0.36859227  0.85995388  1
  O  O289  1  0.63202116  0.86518854  0.36225709  1
  O  O290  1  0.62181612  0.86370235  0.86767495  1
  O  O291  1  0.37115208  0.13128226  0.14433186  1
  O  O292  1  0.37956416  0.13730090  0.62031348  1
  O  O293  1  0.38591849  0.62664661  0.13210448  1
  O  O294  1  0.38035725  0.62894196  0.63521065  1
  O  O295  1  0.86696977  0.14408181  0.14081826  1
  O  O296  1  0.87845349  0.13328769  0.63600653  1
  O  O297  1  0.87956686  0.62705107  0.13455785  1
  O  O298  1  0.87890910  0.63710652  0.63129999  1
  O  O299  1  0.25964325  0.26534699  0.11477494  1
  O  O300  1  0.25687304  0.25545321  0.62442977  1
  O  O301  1  0.27295509  0.72850300  0.11090361  1
  O  O302  1  0.25663065  0.75631760  0.62479177  1
  O  O303  1  0.75912623  0.25310372  0.11262334  1
  O  O304  1  0.75765107  0.25818269  0.62603398  1
  O  O305  1  0.75247331  0.75389548  0.11743172  1
  O  O306  1  0.75523816  0.74462880  0.61771711  1
  O  O307  1  0.23948108  0.24433558  0.37803416  1
  O  O308  1  0.24912827  0.24356738  0.87881213  1
  O  O309  1  0.24947015  0.73633111  0.38057305  1
  O  O310  1  0.24255643  0.74238516  0.87274371  1
  O  O311  1  0.75436240  0.23331463  0.37726744  1
  O  O312  1  0.75546950  0.24589379  0.88865442  1
  O  O313  1  0.74214263  0.74336160  0.38285076  1
  O  O314  1  0.73717989  0.75140659  0.88097943  1
  O  O315  1  0.02031205  0.13085421  -0.00329697  1
  O  O316  1  -0.00783540  0.11024621  0.50245387  1
  O  O317  1  -0.00876846  0.61493503  0.01010899  1
  O  O318  1  0.00549153  0.62128116  0.50584147  1
  O  O319  1  0.51572478  0.11492034  0.00019911  1
  O  O320  1  0.49464452  0.11580852  0.51272193  1
  O  O321  1  0.50279179  0.60194868  -0.00595723  1
  O  O322  1  0.48995155  0.61386830  0.51007209  1
  O  O323  1  0.49119056  0.38300172  0.49581460  1
  O  O324  1  0.50694335  0.38889703  0.99248983  1
  O  O325  1  0.48620558  0.88538088  0.50692738  1
  O  O326  1  0.51074344  0.89579543  1.00072581  1
  O  O327  1  1.00190434  0.38391682  0.48808427  1
  O  O328  1  0.99484484  0.37920056  0.99428994  1
  O  O329  1  0.98604519  0.88302181  0.49961132  1
  O  O330  1  0.98417853  0.87636184  1.00465013  1
  O  O331  1  0.49367343  0.49313374  0.38242086  1
  O  O332  1  0.48700481  0.49996337  0.87434659  1
  O  O333  1  0.49295658  1.00559321  0.38803205  1
  O  O334  1  0.49467317  1.00157838  0.87875552  1
  O  O335  1  0.99153134  0.49526050  0.37877698  1
  O  O336  1  1.00523417  0.49479563  0.88818430  1
  O  O337  1  0.98793440  0.99880206  0.38377723  1
  O  O338  1  0.98910854  1.00345115  0.87705021  1
  O  O339  1  -0.04498815  0.01363427  0.11009828  1
  O  O340  1  0.00850084  0.00169990  0.61943020  1
  O  O341  1  0.00557872  0.50381285  0.11802653  1
  O  O342  1  0.00233133  0.50505745  0.62062206  1
  O  O343  1  0.49383009  0.00981661  0.11335202  1
  O  O344  1  0.50558200  0.00885531  0.61935286  1
  O  O345  1  0.51147759  0.50042996  0.11633045  1
  O  O346  1  0.49971817  0.50771596  0.61779319  1
  O  O347  1  0.24333941  0.38574095  0.24342260  1
  O  O348  1  0.24279310  0.38055746  0.74434329  1
  O  O349  1  0.23888493  0.84014715  0.23615718  1
  O  O350  1  0.24371761  0.88381819  0.74296386  1
  O  O351  1  0.73306761  0.37626914  0.25712483  1
  O  O352  1  0.74800680  0.38608675  0.74409646  1
  O  O353  1  0.74515378  0.88274452  0.24194323  1
  O  O354  1  0.75394366  0.88766114  0.74682097  1
  O  O355  1  0.26422781  0.12569916  0.26874494  1
  O  O356  1  0.24705840  0.11555662  0.75644956  1
  O  O357  1  0.25959821  0.62480632  0.25793527  1
  O  O358  1  0.25824073  0.61881155  0.75366136  1
  O  O359  1  0.75597386  0.11847125  0.25669413  1
  O  O360  1  0.76002323  0.11835306  0.75033805  1
  O  O361  1  0.75972151  0.62405474  0.25779676  1
  O  O362  1  0.75608795  0.61039452  0.74601297  1
  O  O363  1  0.36885261  0.11969175  0.36990549  1
  O  O364  1  0.36210299  0.11342809  0.87688683  1
  O  O365  1  0.36797755  0.61968452  0.37079204  1
  O  O366  1  0.36830368  0.61903361  0.86287239  1
  O  O367  1  0.86485393  0.11550503  0.36906042  1
  O  O368  1  0.87600345  0.11825249  0.86358952  1
  O  O369  1  0.86497485  0.61868356  0.36908136  1
  O  O370  1  0.87748981  0.62943888  0.86182726  1
  O  O371  1  0.13195119  0.38441270  0.13148893  1
  O  O372  1  0.12863146  0.38231271  0.62991066  1
  O  O373  1  0.12479010  0.86112146  0.13940754  1
  O  O374  1  0.13108940  0.88350252  0.63320823  1
  O  O375  1  0.62203412  0.38174123  0.13784685  1
  O  O376  1  0.63578456  0.37740232  0.63653914  1
  O  O377  1  0.63927857  0.86936046  0.13174757  1
  O  O378  1  0.61913018  0.89168228  0.63146191  1
  O  O379  1  0.11308822  0.26002669  0.26572367  1
  O  O380  1  0.11456293  0.25797543  0.74890692  1
  O  O381  1  0.10382518  0.72956305  0.25704291  1
  O  O382  1  0.11629465  0.75850451  0.75256873  1
  O  O383  1  0.62772768  0.26053294  0.25307866  1
  O  O384  1  0.61766150  0.25557704  0.75071219  1
  O  O385  1  0.62214540  0.75858071  0.25692674  1
  O  O386  1  0.61836034  0.75188823  0.75653730  1
  O  O387  1  0.37343075  0.24255774  0.25391464  1
  O  O388  1  0.38453190  0.25769939  0.73759813  1
  O  O389  1  0.38220597  0.74117724  0.24243986  1
  O  O390  1  0.38058059  0.74261865  0.74738825  1
  O  O391  1  0.87952326  0.24823571  0.24544384  1
  O  O392  1  0.88045732  0.24411616  0.74546570  1
  O  O393  1  0.87877014  0.74134336  0.24711435  1
  O  O394  1  0.87817234  0.74621234  0.74490768  1
  O  O395  1  0.38015299  0.48995802  0.49638140  1
  O  O396  1  0.38061376  0.49998367  0.98618259  1
  O  O397  1  0.38253385  0.99385802  0.49269440  1
  O  O398  1  0.39269617  1.00842479  0.99057622  1
  O  O399  1  0.87932696  0.50884316  0.48903585  1
  O  O400  1  0.88436091  0.48887323  1.00610243  1
  O  O401  1  0.87710882  0.99250739  0.49687363  1
  O  O402  1  0.86407272  0.98814284  0.98138386  1
  O  O403  1  0.12448883  0.01619852  -0.00386415  1
  O  O404  1  0.11425417  -0.00800515  0.50995802  1
  O  O405  1  0.11637222  0.49690574  0.01099168  1
  O  O406  1  0.11849823  0.51109020  0.50575616  1
  O  O407  1  0.62170714  0.00976880  -0.00497931  1
  O  O408  1  0.61496562  -0.00654768  0.50598885  1
  O  O409  1  0.62380169  0.49300385  0.01499645  1
  O  O410  1  0.61177206  0.49538633  0.50163513  1
  O  O411  1  0.36238729  0.38427328  0.12940058  1
  O  O412  1  0.37013532  0.37031175  0.61741127  1
  O  O413  1  0.37474390  0.85571320  0.12521216  1
  O  O414  1  0.36874965  0.87052314  0.61920988  1
  O  O415  1  0.88002666  0.36650352  0.11838970  1
  O  O416  1  0.86557045  0.36545566  0.63109654  1
  O  O417  1  0.86251628  0.86373022  0.11856575  1
  O  O418  1  0.87737770  0.86165590  0.61883244  1
  O  O419  1  0.13674446  0.13319446  0.37456614  1
  O  O420  1  0.13964784  0.12822664  0.87672141  1
  O  O421  1  0.13193362  0.62363197  0.38499116  1
  O  O422  1  0.13628222  0.63602143  0.86253819  1
  O  O423  1  0.63821909  0.12509336  0.36817437  1
  O  O424  1  0.63053117  0.12936489  0.88801798  1
  O  O425  1  0.63651204  0.63072170  0.36784563  1
  O  O426  1  0.62261757  0.64120476  0.86707088  1
