# generated using pymatgen
data_V85Zn86O256
_symmetry_space_group_name_H-M   'P 1'
_cell_length_a   16.93716091
_cell_length_b   16.92475107
_cell_length_c   16.94983941
_cell_angle_alpha   90.08411171
_cell_angle_beta   89.96324512
_cell_angle_gamma   89.95699670
_symmetry_Int_Tables_number   1
_chemical_formula_structural   V85Zn86O256
_chemical_formula_sum   'V85 Zn86 O256'
_cell_volume   4858.78644714
_cell_formula_units_Z   1
loop_
 _symmetry_equiv_pos_site_id
 _symmetry_equiv_pos_as_xyz
  1  'x, y, z'
loop_
 _atom_site_type_symbol
 _atom_site_label
 _atom_site_symmetry_multiplicity
 _atom_site_fract_x
 _atom_site_fract_y
 _atom_site_fract_z
 _atom_site_occupancy
  V  V0  1  0.25311553  0.36883053  0.62698792  1
  V  V1  1  0.62969343  0.62746676  0.00657424  1
  V  V2  1  0.64406978  0.49598079  0.62245134  1
  V  V3  1  0.49765675  0.12599523  0.62349664  1
  V  V4  1  0.49443493  0.24864225  0.24177344  1
  V  V5  1  0.37142686  0.63289946  0.25647616  1
  V  V6  1  0.74809670  0.87738142  0.12189570  1
  V  V7  1  0.87652404  0.62734878  0.24843924  1
  V  V8  1  0.75095339  0.37096348  0.12602399  1
  V  V9  1  0.00535270  0.00230701  0.00704296  1
  V  V10  1  0.24608260  0.25117679  -0.00535876  1
  V  V11  1  0.00035787  0.62993860  0.12700495  1
  V  V12  1  0.25280295  0.50032104  0.75248043  1
  V  V13  1  0.62479681  0.00012526  0.62107760  1
  V  V14  1  0.89406177  0.12289138  0.25166154  1
  V  V15  1  0.50052504  0.25343017  0.74968879  1
  V  V16  1  0.00520864  0.37396108  0.87536558  1
  V  V17  1  0.62591407  0.12461415  0.49690764  1
  V  V18  1  0.61764156  0.87629602  0.74996177  1
  V  V19  1  0.49274320  -0.00475080  0.49713271  1
  V  V20  1  0.49682382  0.62718285  0.13120441  1
  V  V21  1  0.61732562  0.75183472  0.38027236  1
  V  V22  1  0.87623160  0.12499045  0.74752332  1
  V  V23  1  0.61538195  0.12088437  -0.00124103  1
  V  V24  1  0.13964835  0.61958731  0.49436802  1
  V  V25  1  0.61302482  -0.00080072  0.12236525  1
  V  V26  1  0.64227234  0.37512058  0.74519421  1
  V  V27  1  0.37852906  0.75342821  0.12701065  1
  V  V28  1  0.38192837  0.88503928  0.00117185  1
  V  V29  1  0.87516573  0.50075788  0.37162417  1
  V  V30  1  0.38222342  0.50053256  0.87605449  1
  V  V31  1  0.87321271  0.25898706  0.62581924  1
  V  V32  1  0.88979974  0.24298016  0.12933946  1
  V  V33  1  0.62279113  0.49858510  0.12657825  1
  V  V34  1  0.48783414  0.87233822  0.37097560  1
  V  V35  1  -0.00575054  0.62208866  0.63260471  1
  V  V36  1  0.75609178  0.12075598  0.37167917  1
  V  V37  1  -0.00075097  0.50194749  -0.00184744  1
  V  V38  1  0.63302622  0.72019616  0.84780454  1
  V  V39  1  0.37061781  0.50286240  0.37561886  1
  V  V40  1  0.00866990  0.74479357  0.75686835  1
  V  V41  1  0.50608053  0.87862908  0.87883181  1
  V  V42  1  0.02209639  0.87368827  0.87037813  1
  V  V43  1  0.36362030  0.00515285  0.37637509  1
  V  V44  1  -0.00215807  0.36659948  0.37366231  1
  V  V45  1  0.87445009  0.87700026  -0.00964513  1
  V  V46  1  0.12167213  0.86837199  0.25465186  1
  V  V47  1  0.23902374  0.00702358  0.24953896  1
  V  V48  1  0.12147417  0.12588504  0.00993575  1
  V  V49  1  0.50178644  0.49989019  0.50027874  1
  V  V50  1  0.75108836  0.24447031  0.00337572  1
  V  V51  1  0.61731397  0.87048178  0.24835702  1
  V  V52  1  0.87767617  0.75304498  0.12205119  1
  V  V53  1  0.12766944  0.50024105  0.62611115  1
  V  V54  1  0.49922577  0.62636258  0.62463856  1
  V  V55  1  0.37571665  0.37026954  0.49854495  1
  V  V56  1  0.38294679  0.62932912  0.75091650  1
  V  V57  1  0.75435494  0.86625641  0.61328458  1
  V  V58  1  0.25289689  0.76607149  0.49834772  1
  V  V59  1  0.24742834  0.50439938  0.25248237  1
  V  V60  1  0.25121600  0.75388384  -0.00446376  1
  V  V61  1  0.24320219  0.88167856  0.12388541  1
  V  V62  1  0.24361722  0.12821868  0.86660172  1
  V  V63  1  0.74451257  0.62962350  0.37273587  1
  V  V64  1  0.00549900  0.24783205  0.75192525  1
  V  V65  1  -0.00629475  -0.02207894  0.50000567  1
  V  V66  1  0.11798544  0.36934103  0.24943499  1
  V  V67  1  0.12657859  0.37106676  0.75288384  1
  V  V68  1  0.12466784  0.50259623  0.12488307  1
  V  V69  1  0.24729888  -0.02004205  0.74608668  1
  V  V70  1  0.86372017  0.51100892  0.86574814  1
  V  V71  1  0.12549384  0.63174756  -0.00543001  1
  V  V72  1  0.37826494  0.37036446  0.00166850  1
  V  V73  1  0.74831027  0.49812013  0.24807145  1
  V  V74  1  0.87632884  0.37360360  0.00017286  1
  V  V75  1  0.37250356  0.76059513  0.62513817  1
  V  V76  1  0.00296046  0.50173809  0.49717074  1
  V  V77  1  0.75054433  0.12431795  0.87464689  1
  V  V78  1  0.25384832  0.37198615  0.12514567  1
  V  V79  1  0.36754299  0.12938227  0.24635945  1
  V  V80  1  0.62411199  0.24823708  0.37082364  1
  V  V81  1  0.12419142  0.12178566  0.49811105  1
  V  V82  1  0.25298959  0.62845901  0.87588079  1
  V  V83  1  0.75288855  0.25645188  0.50150067  1
  V  V84  1  0.75246724  -0.00257515  0.74664604  1
  Zn  Zn85  1  0.25302574  0.23575053  0.49130812  1
  Zn  Zn86  1  0.62541447  0.63063785  0.49961396  1
  Zn  Zn87  1  0.50038583  0.50020493  0.00159246  1
  Zn  Zn88  1  0.62189478  0.37176855  0.24872452  1
  Zn  Zn89  1  0.50498638  0.37486502  0.87455393  1
  Zn  Zn90  1  0.62600304  0.25192621  0.87525808  1
  Zn  Zn91  1  0.37400093  0.12500901  0.75164502  1
  Zn  Zn92  1  0.49939986  0.37274480  0.37227092  1
  Zn  Zn93  1  0.12616340  0.23972128  0.36939686  1
  Zn  Zn94  1  0.86953138  0.38697731  0.50712580  1
  Zn  Zn95  1  0.88122790  -0.00073464  0.87182155  1
  Zn  Zn96  1  -0.03627360  0.79648316  0.29717809  1
  Zn  Zn97  1  0.00053963  0.11707273  0.62435531  1
  Zn  Zn98  1  0.12324383  0.74643033  0.37720515  1
  Zn  Zn99  1  0.87715393  -0.02776394  0.37795124  1
  Zn  Zn100  1  0.12603440  -0.01138139  0.62882728  1
  Zn  Zn101  1  0.37489366  0.24779322  0.62399851  1
  Zn  Zn102  1  0.49037088  0.12493627  0.11915399  1
  Zn  Zn103  1  0.74807202  0.74946682  -0.00976042  1
  Zn  Zn104  1  0.87651169  0.75119224  0.63149826  1
  Zn  Zn105  1  0.75088333  0.00015274  0.25099973  1
  Zn  Zn106  1  0.38064528  0.00636764  0.87710978  1
  Zn  Zn107  1  0.18776522  0.19077173  0.18472234  1
  Zn  Zn108  1  0.18197585  0.18294035  0.67943348  1
  Zn  Zn109  1  0.19104888  0.69020069  0.18304008  1
  Zn  Zn110  1  0.18984404  0.69523486  0.68844941  1
  Zn  Zn111  1  0.68781725  0.18334170  0.18676693  1
  Zn  Zn112  1  0.68761211  0.18867189  0.68511479  1
  Zn  Zn113  1  0.68702062  0.69283905  0.18776666  1
  Zn  Zn114  1  0.68186521  0.68635785  0.68094836  1
  Zn  Zn115  1  0.30920411  0.31232957  0.31454115  1
  Zn  Zn116  1  0.31670714  0.30986195  0.81397462  1
  Zn  Zn117  1  0.30425217  0.81466811  0.31594911  1
  Zn  Zn118  1  0.32229569  0.80996798  0.81514423  1
  Zn  Zn119  1  0.81568035  0.30869910  0.31219835  1
  Zn  Zn120  1  0.81793390  0.31291255  0.81795438  1
  Zn  Zn121  1  0.79824222  0.81125701  0.30973849  1
  Zn  Zn122  1  0.81291709  0.80690471  0.80528418  1
  Zn  Zn123  1  0.19204216  0.42233636  0.43353835  1
  Zn  Zn124  1  0.18869851  0.44108121  0.93755515  1
  Zn  Zn125  1  0.18141521  0.93935696  0.43780128  1
  Zn  Zn126  1  0.19342215  0.94614567  0.93727350  1
  Zn  Zn127  1  0.68637761  0.43596665  0.43487770  1
  Zn  Zn128  1  0.68635461  0.43626737  0.93830429  1
  Zn  Zn129  1  0.68466890  0.93788489  0.43405484  1
  Zn  Zn130  1  0.68909329  0.94100414  0.93551719  1
  Zn  Zn131  1  0.30770323  0.06512406  0.06469380  1
  Zn  Zn132  1  0.31033201  0.05893851  0.56448162  1
  Zn  Zn133  1  0.31380403  0.56182846  0.06326076  1
  Zn  Zn134  1  0.31629813  0.55830736  0.56708621  1
  Zn  Zn135  1  0.81477340  0.06020567  0.06498259  1
  Zn  Zn136  1  0.81657103  0.06208803  0.56108532  1
  Zn  Zn137  1  0.81283369  0.56156463  0.05895603  1
  Zn  Zn138  1  0.84369789  0.61369740  0.52678443  1
  Zn  Zn139  1  0.43626402  0.43737549  0.18938806  1
  Zn  Zn140  1  0.44170450  0.43779394  0.68702957  1
  Zn  Zn141  1  0.43167436  0.94109088  0.19109335  1
  Zn  Zn142  1  0.43348926  0.94359136  0.69092140  1
  Zn  Zn143  1  0.93758653  0.43700261  0.18494945  1
  Zn  Zn144  1  0.93539158  0.44021408  0.69007024  1
  Zn  Zn145  1  0.93601100  0.94412572  0.18364126  1
  Zn  Zn146  1  0.94053891  0.93163333  0.68721066  1
  Zn  Zn147  1  0.06162109  0.05163961  0.32346353  1
  Zn  Zn148  1  0.06725914  0.06117675  0.81595983  1
  Zn  Zn149  1  0.06004830  0.56787275  0.31460185  1
  Zn  Zn150  1  0.06250189  0.56041901  0.81531264  1
  Zn  Zn151  1  0.55863336  0.06129465  0.30866363  1
  Zn  Zn152  1  0.56232779  0.06147318  0.81272510  1
  Zn  Zn153  1  0.55710233  0.56267354  0.31106323  1
  Zn  Zn154  1  0.57426349  0.56065485  0.80661341  1
  Zn  Zn155  1  0.43666425  0.18426017  0.43276775  1
  Zn  Zn156  1  0.43470905  0.19146675  0.93382208  1
  Zn  Zn157  1  0.43421660  0.68895615  0.43985450  1
  Zn  Zn158  1  0.45149816  0.69504391  0.93687822  1
  Zn  Zn159  1  0.94041872  0.18211719  0.44159795  1
  Zn  Zn160  1  0.93957803  0.18732354  0.93489857  1
  Zn  Zn161  1  0.93475074  0.78488636  0.45281657  1
  Zn  Zn162  1  0.93760676  0.69064951  0.93467745  1
  Zn  Zn163  1  0.06740887  0.31136394  0.06063588  1
  Zn  Zn164  1  0.06049764  0.31015168  0.56298181  1
  Zn  Zn165  1  0.06270496  0.81557394  0.06079680  1
  Zn  Zn166  1  0.07407929  0.80995598  0.57884318  1
  Zn  Zn167  1  0.56325440  0.31092031  0.06235731  1
  Zn  Zn168  1  0.56576566  0.31322962  0.56334167  1
  Zn  Zn169  1  0.56049878  0.80969017  0.06144644  1
  Zn  Zn170  1  0.55756297  0.81459811  0.56246295  1
  O  O171  1  0.12703549  0.12861603  0.10913521  1
  O  O172  1  0.11963755  0.11250521  0.61596441  1
  O  O173  1  0.12108568  0.62260666  0.11671448  1
  O  O174  1  0.12778696  0.61014956  0.62477872  1
  O  O175  1  0.62391909  0.11475358  0.11711309  1
  O  O176  1  0.61602875  0.11994135  0.61779405  1
  O  O177  1  0.61561132  0.62186224  0.12496060  1
  O  O178  1  0.61560980  0.61613846  0.61727101  1
  O  O179  1  0.37792217  0.38352750  0.38381085  1
  O  O180  1  0.37701041  0.38429010  0.88243865  1
  O  O181  1  0.38164922  0.88542188  0.36690211  1
  O  O182  1  0.38876881  0.87282087  0.88533428  1
  O  O183  1  0.88154141  0.38319646  0.37538901  1
  O  O184  1  0.88675777  0.38043615  0.88300354  1
  O  O185  1  0.88275108  0.85591416  0.36846629  1
  O  O186  1  0.87279209  0.87478350  0.88472171  1
  O  O187  1  0.25712474  -0.00581696  0.36729863  1
  O  O188  1  0.25404702  0.01321469  0.86558484  1
  O  O189  1  0.26196984  0.49292079  0.36635483  1
  O  O190  1  0.26307909  0.50719751  0.87220283  1
  O  O191  1  0.75811927  0.00499317  0.37504079  1
  O  O192  1  0.75332947  0.00564033  0.86026506  1
  O  O193  1  0.75102058  0.50107746  0.36083327  1
  O  O194  1  0.76531233  0.49527642  0.88250286  1
  O  O195  1  0.24436250  0.49265417  0.13001845  1
  O  O196  1  0.24771996  0.48919380  0.63440673  1
  O  O197  1  0.25208510  0.99144421  0.13505356  1
  O  O198  1  0.25489549  0.99978583  0.64407851  1
  O  O199  1  0.74557350  0.49518043  0.13388141  1
  O  O200  1  0.73927385  0.50726124  0.61356687  1
  O  O201  1  0.74332135  0.98825614  0.12565312  1
  O  O202  1  0.74603003  0.99558616  0.63165358  1
  O  O203  1  0.00721107  0.38258658  0.25846015  1
  O  O204  1  0.00548293  0.36864647  0.75687146  1
  O  O205  1  0.01763410  0.87835333  0.23598936  1
  O  O206  1  0.00166052  0.86943462  0.76554287  1
  O  O207  1  0.49963642  0.36491065  0.25204943  1
  O  O208  1  0.50683661  0.36297175  0.74731097  1
  O  O209  1  0.50466485  0.88154538  0.25887333  1
  O  O210  1  0.51283607  0.88572365  0.75438798  1
  O  O211  1  0.48904563  0.13120987  0.24708553  1
  O  O212  1  0.50273689  0.13447255  0.74122538  1
  O  O213  1  0.48614311  0.62264593  0.24036704  1
  O  O214  1  0.48984486  0.61838816  0.74065811  1
  O  O215  1  0.99257389  0.11996482  0.25639565  1
  O  O216  1  0.99410365  0.13057493  0.75199958  1
  O  O217  1  0.99066554  0.61940022  0.23876202  1
  O  O218  1  1.00763298  0.63307744  0.74745934  1
  O  O219  1  0.36677789  0.26378065  -0.00262752  1
  O  O220  1  0.37330107  0.25633421  0.50030056  1
  O  O221  1  0.37182125  0.75942445  0.00787286  1
  O  O222  1  0.36175680  0.74606783  0.51021741  1
  O  O223  1  0.86990601  0.25103977  0.00675247  1
  O  O224  1  0.86919630  0.24947607  0.50888475  1
  O  O225  1  0.86903886  0.75814757  0.00371904  1
  O  O226  1  0.87389875  0.72315531  0.52126312  1
  O  O227  1  0.12180095  0.23244470  0.50431069  1
  O  O228  1  0.13227178  0.23968073  0.99828240  1
  O  O229  1  0.14070323  0.73373538  0.50765960  1
  O  O230  1  0.13685163  0.74222531  1.00599058  1
  O  O231  1  0.63224700  0.24381284  0.49288601  1
  O  O232  1  0.63509321  0.24119553  1.00011040  1
  O  O233  1  0.61807089  0.75115035  0.48503114  1
  O  O234  1  0.62926414  0.73928222  1.00434942  1
  O  O235  1  0.50427155  0.24660580  0.13825158  1
  O  O236  1  0.50144931  0.24108633  0.62900474  1
  O  O237  1  0.48561736  0.74592503  0.12700806  1
  O  O238  1  0.48797983  0.73560710  0.61382921  1
  O  O239  1  0.98846288  0.25350961  0.12075168  1
  O  O240  1  0.99105247  0.24761670  0.63619267  1
  O  O241  1  0.98605016  0.74732569  0.11703487  1
  O  O242  1  1.00373974  0.73733494  0.63722963  1
  O  O243  1  0.00250941  0.26415467  0.38202659  1
  O  O244  1  -0.00557139  0.25966108  0.86220020  1
  O  O245  1  0.01011396  0.73778250  0.37883475  1
  O  O246  1  0.00111523  0.76298543  0.87048117  1
  O  O247  1  0.50924658  0.24770464  0.36588321  1
  O  O248  1  0.50491834  0.25241497  0.86424541  1
  O  O249  1  0.50004665  0.76205910  0.37721898  1
  O  O250  1  0.52342075  0.76403955  0.87344637  1
  O  O251  1  0.23246590  0.12026323  0.50568201  1
  O  O252  1  0.24220246  0.13265091  0.99419078  1
  O  O253  1  0.24112986  0.61927914  0.50614943  1
  O  O254  1  0.24623952  0.63305375  0.99713052  1
  O  O255  1  0.74825976  0.13042768  0.48813779  1
  O  O256  1  0.74598037  0.12918481  0.99661263  1
  O  O257  1  0.73973899  0.61131056  0.47556978  1
  O  O258  1  0.73451732  0.62655383  1.00699250  1
  O  O259  1  0.25342747  0.36971047  0.00416965  1
  O  O260  1  0.26519088  0.38281541  0.51286836  1
  O  O261  1  0.25610807  0.87115986  0.00534816  1
  O  O262  1  0.24711273  0.86445961  0.49926777  1
  O  O263  1  0.75473097  0.36430207  0.00605627  1
  O  O264  1  0.75352743  0.36101109  0.49220044  1
  O  O265  1  0.75697937  0.87579212  0.00477691  1
  O  O266  1  0.74133634  0.87895208  0.51554803  1
  O  O267  1  0.13184855  0.49727006  0.24497635  1
  O  O268  1  0.13262816  0.49261641  0.74500473  1
  O  O269  1  0.13384192  0.99061997  0.25487598  1
  O  O270  1  0.14400905  1.00460931  0.75244532  1
  O  O271  1  0.63094535  0.49710129  0.24483372  1
  O  O272  1  0.62321377  0.48208436  0.73726118  1
  O  O273  1  0.62558875  0.99065345  0.24140936  1
  O  O274  1  0.63311355  0.99722264  0.74042502  1
  O  O275  1  0.36152392  0.00768001  0.25674101  1
  O  O276  1  0.36322566  0.00528856  0.75611432  1
  O  O277  1  0.36776134  0.50763569  0.25746931  1
  O  O278  1  0.37163596  0.50540631  0.75738740  1
  O  O279  1  0.87383921  0.01073944  0.25399837  1
  O  O280  1  0.86905450  0.00672443  0.74872163  1
  O  O281  1  0.86579577  0.50533201  0.24974797  1
  O  O282  1  0.87558265  0.49713235  0.76656663  1
  O  O283  1  0.11084793  0.38417012  0.36343313  1
  O  O284  1  0.11346420  0.38200200  0.87069703  1
  O  O285  1  0.12810028  0.87166713  0.35806720  1
  O  O286  1  0.11964423  0.87468642  0.88127189  1
  O  O287  1  0.62305700  0.35955408  0.37241691  1
  O  O288  1  0.62491237  0.37469433  0.86074338  1
  O  O289  1  0.61509656  0.87073888  0.36646643  1
  O  O290  1  0.62321046  0.88391073  0.86003339  1
  O  O291  1  0.37420260  0.12178497  0.13912428  1
  O  O292  1  0.38778478  0.12582653  0.62505153  1
  O  O293  1  0.37780748  0.63240231  0.13276736  1
  O  O294  1  0.38129317  0.62812190  0.63343965  1
  O  O295  1  0.87276931  0.12855300  0.14123433  1
  O  O296  1  0.87669873  0.13237150  0.63649301  1
  O  O297  1  0.87732387  0.63412046  0.12757844  1
  O  O298  1  0.89424503  0.60964490  0.63388852  1
  O  O299  1  0.24527098  0.26480154  0.11333702  1
  O  O300  1  0.25060680  0.26067433  0.62094736  1
  O  O301  1  0.26129464  0.75655903  0.11395331  1
  O  O302  1  0.26494046  0.74466594  0.61592877  1
  O  O303  1  0.75696680  0.24956710  0.11649813  1
  O  O304  1  0.75931975  0.24180440  0.61243643  1
  O  O305  1  0.75823996  0.76276843  0.12335601  1
  O  O306  1  0.74717340  0.76254292  0.62997241  1
  O  O307  1  0.23317391  0.27902937  0.38801028  1
  O  O308  1  0.25218855  0.24358724  0.88607544  1
  O  O309  1  0.24643121  0.74967526  0.39339531  1
  O  O310  1  0.25923371  0.74497401  0.88875826  1
  O  O311  1  0.74418392  0.24165631  0.37964655  1
  O  O312  1  0.75158804  0.24404480  0.88811830  1
  O  O313  1  0.73276043  0.73921524  0.36772187  1
  O  O314  1  0.72895767  0.75609765  0.87168871  1
  O  O315  1  0.01396530  0.11870824  -0.01054456  1
  O  O316  1  0.00816768  0.11520171  0.50444377  1
  O  O317  1  0.00893526  0.62427051  0.00491261  1
  O  O318  1  0.02112067  0.60855227  0.51654879  1
  O  O319  1  0.51154839  0.13324273  0.00041121  1
  O  O320  1  0.50483498  0.11730751  0.50448172  1
  O  O321  1  0.49881589  0.62404104  0.01967399  1
  O  O322  1  0.50056426  0.61504751  0.50434215  1
  O  O323  1  0.48966333  0.37955039  0.50087076  1
  O  O324  1  0.49229365  0.37666182  0.99848148  1
  O  O325  1  0.50307600  0.88904140  0.49003386  1
  O  O326  1  0.49372139  0.87330552  0.99357489  1
  O  O327  1  1.00004344  0.38727719  0.49447452  1
  O  O328  1  0.99845622  0.37902082  0.99278625  1
  O  O329  1  1.00092439  0.87404060  0.50737452  1
  O  O330  1  0.99539485  0.87988907  0.98829910  1
  O  O331  1  0.49060025  0.49672053  0.38155395  1
  O  O332  1  0.49048190  0.49827932  0.87433537  1
  O  O333  1  0.49012054  0.99507479  0.37988747  1
  O  O334  1  0.49872597  0.98759017  0.87347660  1
  O  O335  1  0.99445175  0.49735402  0.38233219  1
  O  O336  1  0.99374208  0.49276165  0.88193142  1
  O  O337  1  0.99486960  0.99133898  0.39386007  1
  O  O338  1  1.00123902  0.98645289  0.87905965  1
  O  O339  1  -0.00009752  -0.00335717  0.10617066  1
  O  O340  1  0.00090144  -0.00404252  0.61499472  1
  O  O341  1  0.00456930  0.50726605  0.11672132  1
  O  O342  1  0.01157978  0.49848828  0.62158500  1
  O  O343  1  0.50966579  0.00078974  0.12673528  1
  O  O344  1  0.50224103  0.00595373  0.61647996  1
  O  O345  1  0.50582106  0.50788975  0.12707972  1
  O  O346  1  0.50100801  0.50913125  0.61584357  1
  O  O347  1  0.24498765  0.38580476  0.24063483  1
  O  O348  1  0.24710918  0.37723175  0.74566235  1
  O  O349  1  0.24101583  0.88227907  0.24188248  1
  O  O350  1  0.25390984  0.88206637  0.75944013  1
  O  O351  1  0.74967714  0.38056518  0.24389771  1
  O  O352  1  0.74066870  0.36556875  0.74996260  1
  O  O353  1  0.73810817  0.87925999  0.23922165  1
  O  O354  1  0.73956432  0.88351595  0.74310264  1
  O  O355  1  0.25203943  0.11917276  0.24684544  1
  O  O356  1  0.25078835  0.13670267  0.76175983  1
  O  O357  1  0.25577546  0.61221790  0.24324667  1
  O  O358  1  0.26139350  0.62209453  0.75671112  1
  O  O359  1  0.75066103  0.12191745  0.26297487  1
  O  O360  1  0.75654137  0.11875952  0.75175779  1
  O  O361  1  0.75189704  0.61697335  0.25172588  1
  O  O362  1  0.66503470  0.63900581  0.78183566  1
  O  O363  1  0.37547472  0.11464390  0.36271276  1
  O  O364  1  0.36031128  0.12543444  0.87730239  1
  O  O365  1  0.37813445  0.61765908  0.36609299  1
  O  O366  1  0.37763236  0.62231139  0.86971360  1
  O  O367  1  0.87053584  0.12883562  0.36325136  1
  O  O368  1  0.86992562  0.12412612  0.86253678  1
  O  O369  1  0.86032501  0.61673511  0.36049097  1
  O  O370  1  0.87698195  0.61038677  0.88284348  1
  O  O371  1  0.12985669  0.38320588  0.13071744  1
  O  O372  1  0.13316664  0.38284125  0.62856340  1
  O  O373  1  0.13837736  0.86938649  0.13050571  1
  O  O374  1  0.14075648  0.87716767  0.63136294  1
  O  O375  1  0.63296114  0.38034267  0.12620771  1
  O  O376  1  0.62716637  0.38059309  0.63407027  1
  O  O377  1  0.62852157  0.87918016  0.12846347  1
  O  O378  1  0.62868345  0.88164941  0.63172753  1
  O  O379  1  0.12758400  0.26555525  0.24937224  1
  O  O380  1  0.11471965  0.25621231  0.74317288  1
  O  O381  1  0.13377026  0.76346292  0.25037681  1
  O  O382  1  0.11093837  0.74807438  0.75134863  1
  O  O383  1  0.61787384  0.24733809  0.25624988  1
  O  O384  1  0.62076553  0.25948798  0.74853867  1
  O  O385  1  0.62314344  0.76416250  0.25523525  1
  O  O386  1  0.61925132  0.77267875  0.74384089  1
  O  O387  1  0.38081512  0.24223696  0.25740830  1
  O  O388  1  0.38613899  0.24736670  0.74553884  1
  O  O389  1  0.36114221  0.74023611  0.24338372  1
  O  O390  1  0.37402013  0.74125469  0.73713574  1
  O  O391  1  0.87328786  0.23457994  0.24244781  1
  O  O392  1  0.87990051  0.24373918  0.74439542  1
  O  O393  1  0.87289400  0.74531785  0.23771613  1
  O  O394  1  0.89422578  0.75343544  0.74724853  1
  O  O395  1  0.38388305  0.49483452  0.49389867  1
  O  O396  1  0.37569296  0.49202203  0.99218808  1
  O  O397  1  0.38113254  1.00645199  0.48948962  1
  O  O398  1  0.36846303  0.98815952  0.99969803  1
  O  O399  1  0.88687113  0.50644932  0.49069552  1
  O  O400  1  0.88281034  0.49123089  0.99932991  1
  O  O401  1  0.88943431  0.99827479  0.49953555  1
  O  O402  1  0.88294651  0.99418332  0.99517048  1
  O  O403  1  0.12111213  0.01508514  -0.00405101  1
  O  O404  1  0.11188619  0.00355893  0.50069211  1
  O  O405  1  0.12051012  0.50862523  0.00627726  1
  O  O406  1  0.12697961  0.50142702  0.50685091  1
  O  O407  1  0.63057535  0.01000442  0.00861048  1
  O  O408  1  0.61621782  0.00675486  0.50182011  1
  O  O409  1  0.62242241  0.50595407  0.01004346  1
  O  O410  1  0.61240463  0.49328168  0.50414002  1
  O  O411  1  0.36415891  0.38380436  0.11543192  1
  O  O412  1  0.36925223  0.37362231  0.61944236  1
  O  O413  1  0.36820646  0.87012808  0.12123702  1
  O  O414  1  0.38531316  0.85867209  0.62880337  1
  O  O415  1  0.86966348  0.36580624  0.11996655  1
  O  O416  1  0.87842325  0.36378116  0.62398432  1
  O  O417  1  0.86833414  0.87179228  0.11506425  1
  O  O418  1  0.85707359  0.87417873  0.62879525  1
  O  O419  1  0.12040864  0.12430683  0.39044218  1
  O  O420  1  0.13995858  0.12578796  0.88350581  1
  O  O421  1  0.12908410  0.61818872  0.39231242  1
  O  O422  1  0.13388378  0.61795300  0.88843202  1
  O  O423  1  0.63115303  0.13126102  0.37739102  1
  O  O424  1  0.63245588  0.12576426  0.88226683  1
  O  O425  1  0.62454298  0.63513262  0.37013010  1
  O  O426  1  0.59482215  0.62742375  0.90323888  1
