# generated using pymatgen
data_V85Zn86O256
_symmetry_space_group_name_H-M   'P 1'
_cell_length_a   16.93089049
_cell_length_b   16.92978451
_cell_length_c   16.93099356
_cell_angle_alpha   90.04892992
_cell_angle_beta   89.93824526
_cell_angle_gamma   90.00288489
_symmetry_Int_Tables_number   1
_chemical_formula_structural   V85Zn86O256
_chemical_formula_sum   'V85 Zn86 O256'
_cell_volume   4853.03322081
_cell_formula_units_Z   1
loop_
 _symmetry_equiv_pos_site_id
 _symmetry_equiv_pos_as_xyz
  1  'x, y, z'
loop_
 _atom_site_type_symbol
 _atom_site_label
 _atom_site_symmetry_multiplicity
 _atom_site_fract_x
 _atom_site_fract_y
 _atom_site_fract_z
 _atom_site_occupancy
  V  V0  1  0.24549685  0.00406025  0.25472424  1
  V  V1  1  0.75012304  0.62457720  0.87501872  1
  V  V2  1  0.37956099  0.25216617  0.12908393  1
  V  V3  1  0.37568612  0.25340072  0.62286855  1
  V  V4  1  0.19365134  0.43669143  0.69542405  1
  V  V5  1  0.62585275  0.62528496  0.00000687  1
  V  V6  1  0.75323381  0.87663800  0.62832805  1
  V  V7  1  -0.01292342  0.74607916  0.25351139  1
  V  V8  1  -0.00529016  0.87593117  0.88250645  1
  V  V9  1  0.37953145  0.12749099  0.25146843  1
  V  V10  1  0.12650213  0.24960951  0.86794911  1
  V  V11  1  0.25364300  0.11710590  0.86810261  1
  V  V12  1  0.11462904  0.87746550  0.25688700  1
  V  V13  1  0.62657354  0.87451754  0.75247628  1
  V  V14  1  0.75353594  0.13364801  0.87962523  1
  V  V15  1  0.62592557  0.49932512  0.12722440  1
  V  V16  1  0.24753709  0.87729072  0.12971586  1
  V  V17  1  0.00252304  0.37441497  0.86909307  1
  V  V18  1  0.50754410  0.37243177  0.86330570  1
  V  V19  1  0.00127400  0.75097673  0.75301316  1
  V  V20  1  0.11590063  0.00714635  0.13181363  1
  V  V21  1  0.12687472  0.25330543  0.37313089  1
  V  V22  1  0.12200308  0.13144882  0.50715093  1
  V  V23  1  0.50998616  0.23985294  0.74052064  1
  V  V24  1  0.11862530  0.75223263  0.37697863  1
  V  V25  1  0.00092860  0.62124074  0.62566040  1
  V  V26  1  0.49641109  0.62980499  0.62237390  1
  V  V27  1  0.50479954  0.87924941  0.37111836  1
  V  V28  1  0.24870548  0.38811179  0.12505710  1
  V  V29  1  0.25154639  0.25023649  0.00009430  1
  V  V30  1  -0.00852350  -0.00006738  0.00556241  1
  V  V31  1  0.37489452  0.75154368  0.12701247  1
  V  V32  1  0.61069126  0.12191870  0.49735389  1
  V  V33  1  0.49600658  0.49530155  0.49756873  1
  V  V34  1  0.62826739  0.12848136  0.00091131  1
  V  V35  1  0.75356453  0.00302155  0.75324623  1
  V  V36  1  0.13085140  0.75256004  0.87750852  1
  V  V37  1  0.49442819  0.75067378  0.74804951  1
  V  V38  1  0.86934537  0.37508577  0.49994142  1
  V  V39  1  0.62094927  0.36608137  0.24899354  1
  V  V40  1  0.37067958  0.49661006  0.37452803  1
  V  V41  1  0.12976177  0.39366940  0.24594043  1
  V  V42  1  0.00331025  -0.00028465  0.49696027  1
  V  V43  1  0.50032931  0.88442279  0.87916907  1
  V  V44  1  0.37156432  0.87250340  0.49650611  1
  V  V45  1  0.50320137  0.49931140  -0.00183632  1
  V  V46  1  0.49757517  0.36549717  0.37334088  1
  V  V47  1  0.88310248  0.87344650  0.49348376  1
  V  V48  1  0.01642532  0.61872739  0.12355085  1
  V  V49  1  0.74416555  0.49052270  0.74856366  1
  V  V50  1  0.49916694  0.12335097  0.11804060  1
  V  V51  1  0.75576712  0.75968351  -0.00223397  1
  V  V52  1  0.24636839  0.75318326  0.00161185  1
  V  V53  1  0.38079010  0.50621758  0.86799465  1
  V  V54  1  0.87799459  0.23941690  0.62151549  1
  V  V55  1  0.25371538  0.26531113  0.50489604  1
  V  V56  1  0.37636483  0.88657479  0.00186549  1
  V  V57  1  0.37796242  0.37475048  -0.00249478  1
  V  V58  1  0.61835624  -0.00896798  0.12689124  1
  V  V59  1  0.74393149  0.74916954  0.50171309  1
  V  V60  1  0.87338173  0.62295696  0.75005078  1
  V  V61  1  0.75049644  0.23675818  0.48917209  1
  V  V62  1  0.62371391  0.75039432  0.87607226  1
  V  V63  1  0.24978911  0.74870943  0.50383910  1
  V  V64  1  0.75059834  0.36540963  0.12089879  1
  V  V65  1  -0.00092138  0.37752594  0.37251681  1
  V  V66  1  0.19166991  0.57742740  0.93468734  1
  V  V67  1  0.36965524  0.62268747  0.25237203  1
  V  V68  1  0.62187015  0.49329779  0.62508124  1
  V  V69  1  0.87419506  0.36824053  -0.00148471  1
  V  V70  1  0.00119901  0.49731620  0.50742056  1
  V  V71  1  0.75727259  0.50372199  0.25124204  1
  V  V72  1  0.87597087  0.74937347  0.62750120  1
  V  V73  1  0.36553506  0.62727781  0.74923691  1
  V  V74  1  0.12979472  0.88247106  0.75197202  1
  V  V75  1  0.75438009  0.87547002  0.13031601  1
  V  V76  1  0.50531748  0.75085053  0.25076576  1
  V  V77  1  0.87615369  0.74285256  0.12249926  1
  V  V78  1  0.12127940  0.12690464  0.00533999  1
  V  V79  1  0.12368078  0.00655208  0.63049242  1
  V  V80  1  0.00141939  0.24944122  0.23509412  1
  V  V81  1  0.25636166  0.87851884  0.62848303  1
  V  V82  1  0.87550339  0.49953285  0.87761885  1
  V  V83  1  0.12548953  0.62075910  0.50486234  1
  V  V84  1  0.00259857  0.24404886  0.74320149  1
  Zn  Zn85  1  0.74396655  0.36877277  0.62449645  1
  Zn  Zn86  1  0.87460810  0.50758757  0.37411284  1
  Zn  Zn87  1  0.87969475  0.12139332  0.74933922  1
  Zn  Zn88  1  0.87670684  0.24152293  0.11664236  1
  Zn  Zn89  1  0.50064717  0.62507077  0.12704886  1
  Zn  Zn90  1  0.86898692  0.11948044  0.24541814  1
  Zn  Zn91  1  0.62429332  0.75007006  0.37359585  1
  Zn  Zn92  1  0.62361870  0.62642068  0.49576545  1
  Zn  Zn93  1  0.62924158  0.25313884  0.87457892  1
  Zn  Zn94  1  0.48973990  0.00170912  0.50894772  1
  Zn  Zn95  1  0.37480526  0.00065383  0.86823188  1
  Zn  Zn96  1  0.62051462  0.00882354  0.62828501  1
  Zn  Zn97  1  0.25055960  0.12925319  0.37639973  1
  Zn  Zn98  1  0.86949278  0.00544048  0.37391163  1
  Zn  Zn99  1  0.37729104  0.11453470  0.73265018  1
  Zn  Zn100  1  0.87258243  -0.00162433  0.88114822  1
  Zn  Zn101  1  0.24693088  0.62045032  0.37304888  1
  Zn  Zn102  1  0.01340575  0.50373984  -0.00015299  1
  Zn  Zn103  1  0.74440952  0.00883576  0.25786702  1
  Zn  Zn104  1  0.75376192  0.63612485  0.36482087  1
  Zn  Zn105  1  0.37246675  0.00120910  0.37630403  1
  Zn  Zn106  1  0.62757079  0.24086078  0.36468491  1
  Zn  Zn107  1  0.18848018  0.19379362  0.18894951  1
  Zn  Zn108  1  0.19149205  0.19194505  0.68625581  1
  Zn  Zn109  1  0.18672131  0.68921396  0.19128274  1
  Zn  Zn110  1  0.18520718  0.69049352  0.68556843  1
  Zn  Zn111  1  0.69196573  0.18035283  0.18901247  1
  Zn  Zn112  1  0.68997383  0.18573611  0.68201110  1
  Zn  Zn113  1  0.68797953  0.68809654  0.18524413  1
  Zn  Zn114  1  0.68339898  0.68386258  0.68578852  1
  Zn  Zn115  1  0.31094854  0.31556464  0.31053563  1
  Zn  Zn116  1  0.32216002  0.30726208  0.80536958  1
  Zn  Zn117  1  0.30910447  0.81057681  0.31523520  1
  Zn  Zn118  1  0.31363041  0.81449012  0.81354491  1
  Zn  Zn119  1  0.81425494  0.31445693  0.30895302  1
  Zn  Zn120  1  0.81600009  0.31069193  0.80883241  1
  Zn  Zn121  1  0.79517104  0.84512737  0.32832471  1
  Zn  Zn122  1  0.81461047  0.81328074  0.81464209  1
  Zn  Zn123  1  0.18501185  0.44042873  0.43721618  1
  Zn  Zn124  1  0.21368479  0.41074527  0.89139185  1
  Zn  Zn125  1  0.18283277  0.93925570  0.43897588  1
  Zn  Zn126  1  0.18352120  0.93937052  0.94270449  1
  Zn  Zn127  1  0.68307512  0.43566077  0.43612333  1
  Zn  Zn128  1  0.68900806  0.43501200  0.93799490  1
  Zn  Zn129  1  0.68551162  0.93813846  0.44163645  1
  Zn  Zn130  1  0.68449717  0.94478917  0.94226523  1
  Zn  Zn131  1  0.30626858  0.06485159  0.06509031  1
  Zn  Zn132  1  0.30623681  0.06513126  0.56197272  1
  Zn  Zn133  1  0.32291490  0.56341298  0.06343781  1
  Zn  Zn134  1  0.31346704  0.55745886  0.56574269  1
  Zn  Zn135  1  0.80971132  0.06589053  0.07011549  1
  Zn  Zn136  1  0.81282796  0.06002010  0.56116515  1
  Zn  Zn137  1  0.81415484  0.56320691  0.06360243  1
  Zn  Zn138  1  0.81123805  0.56220487  0.56106424  1
  Zn  Zn139  1  0.43785496  0.43869646  0.19033146  1
  Zn  Zn140  1  0.43342578  0.43577974  0.68498655  1
  Zn  Zn141  1  0.43683666  0.94056650  0.18994235  1
  Zn  Zn142  1  0.43820759  0.94109953  0.68813612  1
  Zn  Zn143  1  0.93933323  0.43700695  0.18324724  1
  Zn  Zn144  1  0.93505958  0.43081015  0.68674625  1
  Zn  Zn145  1  0.93109529  0.93340453  0.18788398  1
  Zn  Zn146  1  0.94218946  0.93923696  0.68722696  1
  Zn  Zn147  1  0.03400965  0.07880531  0.32689183  1
  Zn  Zn148  1  0.06305684  0.06342676  0.81707979  1
  Zn  Zn149  1  0.05631571  0.56820158  0.31625025  1
  Zn  Zn150  1  0.05996001  0.55803281  0.80579208  1
  Zn  Zn151  1  0.56214137  0.06242944  0.31087752  1
  Zn  Zn152  1  0.56686920  0.06332606  0.81340336  1
  Zn  Zn153  1  0.56409176  0.56499019  0.31462953  1
  Zn  Zn154  1  0.56197753  0.56444129  0.80822489  1
  Zn  Zn155  1  0.43408732  0.18840016  0.43805169  1
  Zn  Zn156  1  0.44050694  0.18818930  0.93619387  1
  Zn  Zn157  1  0.43585572  0.68875932  0.43751083  1
  Zn  Zn158  1  0.43657564  0.69080923  0.93777334  1
  Zn  Zn159  1  0.94003586  0.18774018  0.43482114  1
  Zn  Zn160  1  0.93977992  0.18430711  0.93583180  1
  Zn  Zn161  1  0.93202133  0.68612648  0.43661452  1
  Zn  Zn162  1  0.94145261  0.68523081  0.94242317  1
  Zn  Zn163  1  0.06808000  0.32370579  0.05581385  1
  Zn  Zn164  1  0.06748864  0.31925353  0.56768255  1
  Zn  Zn165  1  0.06177203  0.81405001  0.06723788  1
  Zn  Zn166  1  0.06496169  0.81276981  0.56712445  1
  Zn  Zn167  1  0.56143961  0.31019003  0.06128565  1
  Zn  Zn168  1  0.56263458  0.31112506  0.55908563  1
  Zn  Zn169  1  0.56077301  0.81136419  0.06132777  1
  Zn  Zn170  1  0.55789031  0.82622418  0.56766368  1
  O  O171  1  0.13212079  0.11855548  0.11773596  1
  O  O172  1  0.13101464  0.11904807  0.62016974  1
  O  O173  1  0.11548302  0.62790936  0.12552977  1
  O  O174  1  0.11658157  0.63143422  0.61337655  1
  O  O175  1  0.61656934  0.12050336  0.12009801  1
  O  O176  1  0.63264826  0.12371249  0.60396713  1
  O  O177  1  0.62326422  0.61564775  0.11864156  1
  O  O178  1  0.61190319  0.61424950  0.62464449  1
  O  O179  1  0.38521105  0.38402379  0.36511626  1
  O  O180  1  0.38511229  0.38328511  0.87803606  1
  O  O181  1  0.37775710  0.87760614  0.38160575  1
  O  O182  1  0.38177842  0.87677061  0.88456099  1
  O  O183  1  0.88290053  0.37742348  0.38444348  1
  O  O184  1  0.87984893  0.38101927  0.87924748  1
  O  O185  1  0.88988658  0.86403030  0.39343379  1
  O  O186  1  0.89093643  0.87536829  0.87407419  1
  O  O187  1  0.24515466  0.00401570  0.36368302  1
  O  O188  1  0.24656135  0.01461626  0.88052242  1
  O  O189  1  0.26611137  0.50108111  0.38322262  1
  O  O190  1  0.26026939  0.51796754  0.88310306  1
  O  O191  1  0.76138672  -0.04194684  0.36370697  1
  O  O192  1  0.75246063  0.00662898  0.86901390  1
  O  O193  1  0.74722419  0.49514550  0.35749607  1
  O  O194  1  0.75500756  0.50356467  0.86737358  1
  O  O195  1  0.25978293  0.48685238  0.11780071  1
  O  O196  1  0.25789979  0.48761276  0.63519353  1
  O  O197  1  0.23859565  0.99781269  0.13695429  1
  O  O198  1  0.23552184  0.99020026  0.62085253  1
  O  O199  1  0.74391146  0.49284542  0.13161503  1
  O  O200  1  0.74100485  0.50002957  0.63203377  1
  O  O201  1  0.73942619  0.98876698  0.12416059  1
  O  O202  1  0.74983835  0.99166636  0.63281342  1
  O  O203  1  0.00859119  0.37502379  0.25628327  1
  O  O204  1  -0.00713174  0.36424666  0.76237460  1
  O  O205  1  0.01093567  0.86461586  0.24392306  1
  O  O206  1  0.00962911  0.86978416  0.75857641  1
  O  O207  1  0.51087458  0.38108921  0.25835828  1
  O  O208  1  0.49493545  0.36223327  0.75679463  1
  O  O209  1  0.49096426  0.86842688  0.26378926  1
  O  O210  1  0.50572689  0.86609634  0.76006512  1
  O  O211  1  0.48614084  0.11869551  0.23819975  1
  O  O212  1  0.50003319  0.13684806  0.75347231  1
  O  O213  1  0.48997618  0.63404538  0.25042969  1
  O  O214  1  0.49430389  0.63359600  0.74323831  1
  O  O215  1  1.01680474  0.14988611  0.23763301  1
  O  O216  1  0.99880063  0.13898436  0.75753531  1
  O  O217  1  1.00372673  0.63391018  0.23730139  1
  O  O218  1  0.99329599  0.63045482  0.74563113  1
  O  O219  1  0.37124578  0.25536786  0.00569416  1
  O  O220  1  0.35996242  0.24920568  0.50287925  1
  O  O221  1  0.36294979  0.75639478  0.00507841  1
  O  O222  1  0.36207422  0.76024487  0.49518477  1
  O  O223  1  0.88356174  0.26447383  -0.00255949  1
  O  O224  1  0.86823050  0.25282940  0.50062322  1
  O  O225  1  0.86528725  0.74642150  0.00487463  1
  O  O226  1  0.87128902  0.75601244  0.51209691  1
  O  O227  1  0.13127733  0.24954002  0.49602551  1
  O  O228  1  0.12923820  0.24396853  0.99225278  1
  O  O229  1  0.12628072  0.74435029  0.49398554  1
  O  O230  1  0.13756931  0.75631965  0.99536437  1
  O  O231  1  0.63623698  0.23919998  0.49754676  1
  O  O232  1  0.61991326  0.23483136  0.99774648  1
  O  O233  1  0.63342971  0.75322024  0.50560561  1
  O  O234  1  0.63218927  0.74375403  0.99516440  1
  O  O235  1  0.48669162  0.24273621  0.12232767  1
  O  O236  1  0.49703093  0.25102907  0.63462552  1
  O  O237  1  0.49179547  0.75092140  0.13215730  1
  O  O238  1  0.50565658  0.74393424  0.63675169  1
  O  O239  1  1.00252271  0.26605832  0.13376546  1
  O  O240  1  0.99400258  0.25641711  0.63281498  1
  O  O241  1  0.99501821  0.74201876  0.13005060  1
  O  O242  1  0.99470821  0.74412066  0.63345737  1
  O  O243  1  0.00800745  0.26508446  0.36918333  1
  O  O244  1  0.00761793  0.25554699  0.86931057  1
  O  O245  1  0.01068578  0.74122431  0.36796367  1
  O  O246  1  0.01187937  0.75575715  0.87619306  1
  O  O247  1  0.50133424  0.26225165  0.37889614  1
  O  O248  1  0.50094820  0.25617219  0.86205528  1
  O  O249  1  0.49833040  0.75916509  0.36670520  1
  O  O250  1  0.50670724  0.75741371  0.86958094  1
  O  O251  1  0.23563275  0.13445594  0.49486498  1
  O  O252  1  0.24004639  0.13170129  0.99451152  1
  O  O253  1  0.24271512  0.63098216  0.50394196  1
  O  O254  1  0.24844914  0.63269733  1.00323718  1
  O  O255  1  0.75276682  0.13433841  0.49273497  1
  O  O256  1  0.74246892  0.12102006  0.99078668  1
  O  O257  1  0.74761702  0.64132873  0.50731248  1
  O  O258  1  0.74509447  0.63140301  0.99299178  1
  O  O259  1  0.25872551  0.36760692  -0.00177816  1
  O  O260  1  0.24509075  0.36345975  0.49780227  1
  O  O261  1  0.25489350  0.87024056  0.00752790  1
  O  O262  1  0.25191621  0.86899493  0.50514556  1
  O  O263  1  0.76054530  0.38006647  0.00822367  1
  O  O264  1  0.75615419  0.36731986  0.50032817  1
  O  O265  1  0.74435937  0.86342830  0.00395121  1
  O  O266  1  0.75995624  0.86733800  0.51246348  1
  O  O267  1  0.12483833  0.49223757  0.26072276  1
  O  O268  1  0.13603088  0.50389042  0.74558834  1
  O  O269  1  0.12486343  0.99593343  0.24752115  1
  O  O270  1  0.12100725  0.99095969  0.74695618  1
  O  O271  1  0.63033085  0.49298698  0.23916300  1
  O  O272  1  0.63386662  0.50385625  0.74133989  1
  O  O273  1  0.62509241  1.00415602  0.23198548  1
  O  O274  1  0.63705750  0.99373062  0.74906866  1
  O  O275  1  0.36196120  0.00832993  0.24955598  1
  O  O276  1  0.37683416  0.00411780  0.75404998  1
  O  O277  1  0.38095569  0.51132217  0.25972042  1
  O  O278  1  0.38204821  0.50897792  0.76087968  1
  O  O279  1  0.86881426  -0.00420001  0.25444838  1
  O  O280  1  0.86563635  0.00007843  0.75156592  1
  O  O281  1  0.85974063  0.49127432  0.24954115  1
  O  O282  1  0.86913056  0.50249566  0.75919992  1
  O  O283  1  0.11961929  0.37009718  0.36926047  1
  O  O284  1  0.11275283  0.36132260  0.88219463  1
  O  O285  1  0.12784263  0.86540325  0.36788231  1
  O  O286  1  0.12063990  0.87035421  0.86961926  1
  O  O287  1  0.61721653  0.37177891  0.36398244  1
  O  O288  1  0.61239710  0.37286362  0.87987204  1
  O  O289  1  0.60683189  0.87151238  0.38065343  1
  O  O290  1  0.61938469  0.87120276  0.87287298  1
  O  O291  1  0.37943564  0.13108800  0.12813629  1
  O  O292  1  0.36885541  0.14024428  0.61980611  1
  O  O293  1  0.37936041  0.63320911  0.13309781  1
  O  O294  1  0.38864096  0.62001113  0.63336424  1
  O  O295  1  0.87610859  0.13056140  0.13029432  1
  O  O296  1  0.87440152  0.13561029  0.62440060  1
  O  O297  1  0.88009874  0.63751281  0.12324586  1
  O  O298  1  0.88059061  0.62915295  0.63119733  1
  O  O299  1  0.26013043  0.25681983  0.11652575  1
  O  O300  1  0.25518522  0.25253320  0.61238051  1
  O  O301  1  0.25350788  0.75711806  0.12016463  1
  O  O302  1  0.23877954  0.76227923  0.61063381  1
  O  O303  1  0.75113979  0.26324159  0.12669965  1
  O  O304  1  0.75901079  0.25074478  0.61162184  1
  O  O305  1  0.75587846  0.75185405  0.11521492  1
  O  O306  1  0.75788446  0.75510535  0.62554468  1
  O  O307  1  0.24264391  0.25267869  0.38399755  1
  O  O308  1  0.24445110  0.24330458  0.88096498  1
  O  O309  1  0.23750029  0.74725369  0.38652581  1
  O  O310  1  0.23913040  0.75483509  0.88339772  1
  O  O311  1  0.74943313  0.25688495  0.38693863  1
  O  O312  1  0.74859371  0.23829323  0.86725073  1
  O  O313  1  0.74533552  0.75739029  0.38785605  1
  O  O314  1  0.74573629  0.74578678  0.88053427  1
  O  O315  1  0.01413310  0.11694716  -0.00535333  1
  O  O316  1  0.01403397  0.11944951  0.50044968  1
  O  O317  1  0.00185968  0.62204833  0.01565142  1
  O  O318  1  0.00476701  0.61631636  0.50559755  1
  O  O319  1  0.50335388  0.12527357  0.01172117  1
  O  O320  1  0.50668584  0.12170730  0.50118475  1
  O  O321  1  0.50739255  0.61859693  0.00028531  1
  O  O322  1  0.50051667  0.62122736  0.50756524  1
  O  O323  1  0.50617756  0.38407519  0.48792803  1
  O  O324  1  0.49510916  0.38032285  0.99239541  1
  O  O325  1  0.48625452  0.86793838  0.48506692  1
  O  O326  1  0.48784331  0.86664551  0.99100513  1
  O  O327  1  0.99529427  0.38061234  0.49421991  1
  O  O328  1  0.99362956  0.38491970  0.98937941  1
  O  O329  1  0.99115353  0.88422883  0.51694081  1
  O  O330  1  1.01068320  0.88619545  0.99302677  1
  O  O331  1  0.49466997  0.49457621  0.38158258  1
  O  O332  1  0.49713272  0.49277366  0.87596897  1
  O  O333  1  0.49554598  0.98776885  0.37679973  1
  O  O334  1  0.50200393  0.98751559  0.87468025  1
  O  O335  1  0.99779275  0.49092625  0.38485144  1
  O  O336  1  0.99216111  0.49321204  0.87385196  1
  O  O337  1  1.01573743  0.98891705  0.39627187  1
  O  O338  1  1.00094590  0.99216586  0.88598459  1
  O  O339  1  0.01048265  -0.00715377  0.12117510  1
  O  O340  1  0.01554531  -0.00118905  0.61996318  1
  O  O341  1  -0.00003239  0.51392010  0.12283328  1
  O  O342  1  -0.00675424  0.50213758  0.61497497  1
  O  O343  1  0.50934451  0.00501045  0.12534695  1
  O  O344  1  0.51711383  -0.03919060  0.61278504  1
  O  O345  1  0.50964382  0.49975474  0.11826596  1
  O  O346  1  0.50374172  0.50449277  0.61801113  1
  O  O347  1  0.24165037  0.37327860  0.23748835  1
  O  O348  1  0.24309767  0.38381838  0.77570775  1
  O  O349  1  0.24060455  0.88287651  0.24788897  1
  O  O350  1  0.24045393  0.86813230  0.74224167  1
  O  O351  1  0.74208131  0.38262490  0.24099220  1
  O  O352  1  0.75545408  0.38674916  0.74565988  1
  O  O353  1  0.74165974  0.86375372  0.22960203  1
  O  O354  1  0.74858418  0.88173453  0.74800092  1
  O  O355  1  0.25604986  0.11987349  0.25146559  1
  O  O356  1  0.25114408  0.13096708  0.76643312  1
  O  O357  1  0.26409687  0.63267065  0.25345773  1
  O  O358  1  0.26627820  0.63771351  0.74396290  1
  O  O359  1  0.75319730  0.12433447  0.26039755  1
  O  O360  1  0.75155686  0.11693477  0.75593609  1
  O  O361  1  0.74577682  0.60740335  0.24460375  1
  O  O362  1  0.75530070  0.61661253  0.75563297  1
  O  O363  1  0.37269235  0.12247113  0.36581647  1
  O  O364  1  0.35958552  0.12316628  0.88270705  1
  O  O365  1  0.37331613  0.61787550  0.36869597  1
  O  O366  1  0.38399694  0.61763963  0.86511762  1
  O  O367  1  0.91682589  0.11131990  0.35656254  1
  O  O368  1  0.86740676  0.12076890  0.87319034  1
  O  O369  1  0.86528511  0.62016050  0.37863972  1
  O  O370  1  0.87209906  0.61767604  0.87090834  1
  O  O371  1  0.13623088  0.37752834  0.13169957  1
  O  O372  1  0.13280165  0.37740372  0.63970621  1
  O  O373  1  0.13058291  0.88349442  0.13521558  1
  O  O374  1  0.13154727  0.88169117  0.63573084  1
  O  O375  1  0.63046950  0.38092206  0.12750161  1
  O  O376  1  0.62500755  0.38836877  0.62009826  1
  O  O377  1  0.62784060  0.88727887  0.11568397  1
  O  O378  1  0.64426201  0.86797690  0.63634034  1
  O  O379  1  0.11979759  0.26339568  0.25698728  1
  O  O380  1  0.11965302  0.24574282  0.76068164  1
  O  O381  1  0.11885096  0.75774110  0.25902514  1
  O  O382  1  0.12011469  0.75780294  0.75907236  1
  O  O383  1  0.62676635  0.26254286  0.24609919  1
  O  O384  1  0.61366154  0.24628687  0.74859831  1
  O  O385  1  0.60915339  0.74626202  0.24688358  1
  O  O386  1  0.61878795  0.75377188  0.75780781  1
  O  O387  1  0.36763982  0.24064474  0.24003328  1
  O  O388  1  0.38563604  0.24012266  0.74028996  1
  O  O389  1  0.38108408  0.74604813  0.24557721  1
  O  O390  1  0.38767656  0.74461116  0.75755188  1
  O  O391  1  0.89485014  0.25689049  0.24853392  1
  O  O392  1  0.88296211  0.24777478  0.73788888  1
  O  O393  1  0.88627241  0.75672027  0.24383695  1
  O  O394  1  0.88130437  0.74403610  0.74730184  1
  O  O395  1  0.38856836  0.50509722  0.49202280  1
  O  O396  1  0.38469511  0.49761815  0.98794950  1
  O  O397  1  0.37031794  0.98766346  0.49791389  1
  O  O398  1  0.36761559  0.98869234  1.00031497  1
  O  O399  1  0.87978936  0.49006839  0.49996661  1
  O  O400  1  0.87366094  0.49491517  0.98647858  1
  O  O401  1  0.88398459  0.99302361  0.49746279  1
  O  O402  1  0.88892398  1.00325154  1.00308797  1
  O  O403  1  0.11982756  0.00867167  0.01220723  1
  O  O404  1  0.12231392  0.00982498  0.51001960  1
  O  O405  1  0.13539235  0.50880079  -0.02068765  1
  O  O406  1  0.11462607  0.50863672  0.49786895  1
  O  O407  1  0.62543952  0.01344742  0.01453349  1
  O  O408  1  0.62516255  0.01356629  0.50009819  1
  O  O409  1  0.62339983  0.50339551  0.00925337  1
  O  O410  1  0.61556555  0.50394118  0.50571444  1
  O  O411  1  0.37291966  0.36845195  0.12014715  1
  O  O412  1  0.37815707  0.35585145  0.62759960  1
  O  O413  1  0.36870648  0.87179850  0.12040657  1
  O  O414  1  0.36035618  0.87538618  0.61799057  1
  O  O415  1  0.86780945  0.37472624  0.11464112  1
  O  O416  1  0.87349593  0.36397381  0.61162282  1
  O  O417  1  0.86559938  0.85972736  0.12212986  1
  O  O418  1  0.86760422  0.86927573  0.62561485  1
  O  O419  1  0.12123734  0.14338385  0.38109416  1
  O  O420  1  0.13520398  0.13076849  0.88284939  1
  O  O421  1  0.12679295  0.63104833  0.38756986  1
  O  O422  1  0.12734335  0.63265886  0.87275377  1
  O  O423  1  0.61884105  0.12683326  0.38837571  1
  O  O424  1  0.63361459  0.12534631  0.88417633  1
  O  O425  1  0.63374256  0.63122418  0.37733997  1
  O  O426  1  0.63063134  0.62978617  0.87917410  1
