# generated using pymatgen
data_V85Zn86O256
_symmetry_space_group_name_H-M   'P 1'
_cell_length_a   16.94124485
_cell_length_b   16.93890138
_cell_length_c   16.92811865
_cell_angle_alpha   90.00317879
_cell_angle_beta   90.04221197
_cell_angle_gamma   90.02190179
_symmetry_Int_Tables_number   1
_chemical_formula_structural   V85Zn86O256
_chemical_formula_sum   'V85 Zn86 O256'
_cell_volume   4857.79409722
_cell_formula_units_Z   1
loop_
 _symmetry_equiv_pos_site_id
 _symmetry_equiv_pos_as_xyz
  1  'x, y, z'
loop_
 _atom_site_type_symbol
 _atom_site_label
 _atom_site_symmetry_multiplicity
 _atom_site_fract_x
 _atom_site_fract_y
 _atom_site_fract_z
 _atom_site_occupancy
  V  V0  1  -0.00078080  0.62320499  0.12463546  1
  V  V1  1  0.37476979  0.62423319  0.75050933  1
  V  V2  1  0.74714407  0.25242688  -0.00068434  1
  V  V3  1  0.12655216  0.87083510  0.26240544  1
  V  V4  1  0.50694317  0.87846960  0.37155677  1
  V  V5  1  0.37495781  0.62867085  0.24078814  1
  V  V6  1  0.36915797  0.00750650  0.87417775  1
  V  V7  1  0.13367506  0.75064327  0.88127601  1
  V  V8  1  -0.00711609  0.12979889  0.62624119  1
  V  V9  1  0.12240981  0.36356366  0.24620410  1
  V  V10  1  0.37982020  0.49807143  0.87565869  1
  V  V11  1  0.74832084  0.87645700  0.12247206  1
  V  V12  1  0.25059082  0.37374888  0.12162819  1
  V  V13  1  0.24747796  0.49894392  0.24950916  1
  V  V14  1  -0.00328607  0.87232496  0.88246981  1
  V  V15  1  0.62853550  0.62036847  0.00233085  1
  V  V16  1  0.50099297  0.75026791  0.74930511  1
  V  V17  1  0.73555458  0.49893327  0.24553683  1
  V  V18  1  0.37661275  0.24610988  0.12487818  1
  V  V19  1  0.73645022  0.37541988  0.12933143  1
  V  V20  1  0.25191350  0.12567249  0.38212560  1
  V  V21  1  0.62344038  0.37292041  0.75342960  1
  V  V22  1  0.12130041  0.12110176  0.50210554  1
  V  V23  1  0.37848068  0.37148875  -0.00090829  1
  V  V24  1  0.75185903  0.00076572  0.74938384  1
  V  V25  1  0.88784228  0.12466065  0.25312038  1
  V  V26  1  0.50632637  0.61628183  0.12543199  1
  V  V27  1  0.87709157  0.62237354  0.75247890  1
  V  V28  1  0.49978830  0.75436341  0.24184129  1
  V  V29  1  -0.01626128  0.87725712  0.37574213  1
  V  V30  1  0.11734012  0.36964233  0.74618297  1
  V  V31  1  -0.01677785  -0.00382200  0.49536016  1
  V  V32  1  0.88551757  0.24969922  0.13452765  1
  V  V33  1  0.75101784  0.49948662  0.74914609  1
  V  V34  1  0.62550380  0.87899083  0.74717764  1
  V  V35  1  0.62382437  -0.00487531  0.13720166  1
  V  V36  1  0.62332922  0.12638330  0.51280805  1
  V  V37  1  0.62550034  0.62899950  0.50170368  1
  V  V38  1  -0.00587993  0.35615965  0.86856803  1
  V  V39  1  0.25279534  0.49420435  0.74592780  1
  V  V40  1  0.38896844  0.24769133  0.63029299  1
  V  V41  1  0.37470120  0.49716251  0.37378877  1
  V  V42  1  0.50553409  0.00340357  0.51481470  1
  V  V43  1  0.87436480  0.37262810  0.49768692  1
  V  V44  1  0.13056113  0.49996442  0.62272064  1
  V  V45  1  0.25141347  -0.00105587  0.25184285  1
  V  V46  1  0.12375474  0.63240067  0.49447027  1
  V  V47  1  0.74603774  0.25074356  0.49396800  1
  V  V48  1  0.12263036  0.24959608  0.37435248  1
  V  V49  1  0.37704746  0.87658279  0.49995558  1
  V  V50  1  0.74913069  0.88103615  0.62088908  1
  V  V51  1  0.12737788  0.87398045  0.75133816  1
  V  V52  1  0.12421027  0.00541492  0.12725161  1
  V  V53  1  0.51349688  0.36915083  0.37244367  1
  V  V54  1  0.37655589  0.12812999  0.25260545  1
  V  V55  1  0.24796214  0.63118716  0.37313771  1
  V  V56  1  0.74156723  0.12193986  0.36622344  1
  V  V57  1  0.24933420  0.26004543  0.51304822  1
  V  V58  1  0.37066501  0.86067260  0.00559143  1
  V  V59  1  -0.00008525  0.62847154  0.62315052  1
  V  V60  1  -0.00099614  0.50135185  0.49790940  1
  V  V61  1  0.13375462  0.62529917  0.00164791  1
  V  V62  1  0.49946261  0.87539880  0.87969530  1
  V  V63  1  0.87313778  0.49960782  0.37181647  1
  V  V64  1  0.87571141  0.75643081  0.62293701  1
  V  V65  1  0.37959990  0.00174651  0.37961645  1
  V  V66  1  0.75431639  0.62359502  0.87577684  1
  V  V67  1  0.00267903  0.74955690  0.25607294  1
  V  V68  1  0.62436211  0.12104304  0.00093938  1
  V  V69  1  0.74610956  0.12942074  0.87535314  1
  V  V70  1  0.62550279  0.75439205  0.36947642  1
  V  V71  1  -0.00266674  0.37238778  0.36851325  1
  V  V72  1  0.25098115  0.86130685  0.12700254  1
  V  V73  1  0.12022273  0.49704009  0.12357807  1
  V  V74  1  0.24989627  0.88703597  0.62773006  1
  V  V75  1  0.87658611  0.75685682  0.11755600  1
  V  V76  1  -0.00063383  0.00660325  0.00560744  1
  V  V77  1  0.87258623  0.62275190  0.24772713  1
  V  V78  1  0.50031675  0.50088784  0.50116825  1
  V  V79  1  -0.00252394  0.50164631  -0.01634016  1
  V  V80  1  0.50976773  0.23316968  0.75359071  1
  V  V81  1  0.87073558  -0.00580532  0.88485394  1
  V  V82  1  0.37350032  0.75217956  0.62574028  1
  V  V83  1  0.24904844  0.75189398  0.49925264  1
  V  V84  1  0.75459331  0.75622014  0.49697868  1
  Zn  Zn85  1  0.49903806  -0.00326303  0.00570483  1
  Zn  Zn86  1  0.51021599  0.25161314  0.25303777  1
  Zn  Zn87  1  0.49988296  0.62545879  0.62586966  1
  Zn  Zn88  1  0.00057811  0.75110175  0.75115381  1
  Zn  Zn89  1  0.62899713  0.75039524  0.87625011  1
  Zn  Zn90  1  0.12625741  0.12888663  -0.03072156  1
  Zn  Zn91  1  0.87523512  0.25470066  0.62984144  1
  Zn  Zn92  1  0.37106168  0.37837980  0.50289615  1
  Zn  Zn93  1  0.50274476  0.12336224  0.12930122  1
  Zn  Zn94  1  0.75440757  0.75301822  -0.00392306  1
  Zn  Zn95  1  0.74872887  0.62566209  0.37275912  1
  Zn  Zn96  1  0.87781204  0.13347389  0.75686560  1
  Zn  Zn97  1  0.50733698  0.49397727  0.00372206  1
  Zn  Zn98  1  0.50701960  0.36829086  0.87569827  1
  Zn  Zn99  1  0.62543065  0.50017194  0.62533065  1
  Zn  Zn100  1  0.74993496  0.37458030  0.62447273  1
  Zn  Zn101  1  0.75713795  -0.00912332  0.25704444  1
  Zn  Zn102  1  0.25238276  0.62388483  0.87821718  1
  Zn  Zn103  1  0.87345303  0.37700168  -0.00020641  1
  Zn  Zn104  1  0.25982288  0.22711896  -0.03198820  1
  Zn  Zn105  1  0.11855875  -0.00233508  0.62570105  1
  Zn  Zn106  1  0.22051870  0.04365246  0.79226354  1
  Zn  Zn107  1  0.18603145  0.18628910  0.11136126  1
  Zn  Zn108  1  0.18871305  0.20110845  0.79106831  1
  Zn  Zn109  1  0.18369812  0.68673940  0.18901614  1
  Zn  Zn110  1  0.18954489  0.68844448  0.68883850  1
  Zn  Zn111  1  0.68929683  0.18563897  0.18206419  1
  Zn  Zn112  1  0.69392448  0.19115933  0.68568685  1
  Zn  Zn113  1  0.68750936  0.68986975  0.18528025  1
  Zn  Zn114  1  0.68837787  0.69051386  0.68701535  1
  Zn  Zn115  1  0.31070208  0.31049229  0.31259048  1
  Zn  Zn116  1  0.32442876  0.31709018  0.79921977  1
  Zn  Zn117  1  0.31718590  0.81202013  0.31212583  1
  Zn  Zn118  1  0.31271930  0.81665697  0.81477410  1
  Zn  Zn119  1  0.68910632  0.30806050  0.31072566  1
  Zn  Zn120  1  0.81480081  0.31265550  0.81260166  1
  Zn  Zn121  1  0.81028088  0.81070848  0.30404771  1
  Zn  Zn122  1  0.81476076  0.81053422  0.81130096  1
  Zn  Zn123  1  0.18545115  0.44016177  0.43566154  1
  Zn  Zn124  1  0.20817094  0.38853554  0.90800741  1
  Zn  Zn125  1  0.18562758  0.93881914  0.43934799  1
  Zn  Zn126  1  0.18655686  0.93377683  0.94687561  1
  Zn  Zn127  1  0.69002391  0.44380740  0.43907343  1
  Zn  Zn128  1  0.69062774  0.43937602  0.93461888  1
  Zn  Zn129  1  0.68822669  0.94281860  0.43806913  1
  Zn  Zn130  1  0.68660908  0.93624496  0.94236309  1
  Zn  Zn131  1  0.31408985  0.05276407  0.06089181  1
  Zn  Zn132  1  0.27466998  0.10493713  0.61976137  1
  Zn  Zn133  1  0.31489422  0.55800315  0.06216735  1
  Zn  Zn134  1  0.31355752  0.56484708  0.56242348  1
  Zn  Zn135  1  0.81384376  0.06406442  0.06703931  1
  Zn  Zn136  1  0.80892313  0.06309943  0.55875351  1
  Zn  Zn137  1  0.81368591  0.55914859  0.06252387  1
  Zn  Zn138  1  0.81183112  0.56534602  0.56327436  1
  Zn  Zn139  1  0.43920264  0.43629165  0.18976905  1
  Zn  Zn140  1  0.43962396  0.43077196  0.68397390  1
  Zn  Zn141  1  0.43679713  0.93682238  0.18749727  1
  Zn  Zn142  1  0.43389490  0.94041254  0.69270997  1
  Zn  Zn143  1  0.93228280  0.43304086  0.18502291  1
  Zn  Zn144  1  0.93782527  0.44016017  0.68565047  1
  Zn  Zn145  1  0.93587739  0.93870338  0.18820756  1
  Zn  Zn146  1  0.93714027  0.93945523  0.69053700  1
  Zn  Zn147  1  0.06353123  0.05942339  0.31394326  1
  Zn  Zn148  1  0.05316877  0.05868691  0.81059753  1
  Zn  Zn149  1  0.06316909  0.56055462  0.31107354  1
  Zn  Zn150  1  0.06728728  0.56483916  0.80957320  1
  Zn  Zn151  1  0.56521294  0.06640211  0.31499430  1
  Zn  Zn152  1  0.56476838  0.05626989  0.81625682  1
  Zn  Zn153  1  0.55986245  0.56649014  0.31679237  1
  Zn  Zn154  1  0.56590766  0.56197107  0.81484321  1
  Zn  Zn155  1  0.43769281  0.18810090  0.44712559  1
  Zn  Zn156  1  0.44301020  0.18542366  0.93613451  1
  Zn  Zn157  1  0.43712389  0.68811021  0.43364750  1
  Zn  Zn158  1  0.44049390  0.68550161  0.93747332  1
  Zn  Zn159  1  0.93323318  0.18716993  0.43207591  1
  Zn  Zn160  1  0.93031980  0.18412628  0.94276209  1
  Zn  Zn161  1  0.93524674  0.69028717  0.43457398  1
  Zn  Zn162  1  0.94175829  0.68601118  0.93551690  1
  Zn  Zn163  1  0.06251823  0.31100328  0.05154971  1
  Zn  Zn164  1  0.06283213  0.31277994  0.56204933  1
  Zn  Zn165  1  0.06470993  0.81513148  0.06563964  1
  Zn  Zn166  1  0.06173817  0.81574527  0.55940564  1
  Zn  Zn167  1  0.56277190  0.30667656  0.06394321  1
  Zn  Zn168  1  0.56530093  0.31463145  0.56443119  1
  Zn  Zn169  1  0.56745193  0.80797107  0.06132927  1
  Zn  Zn170  1  0.56489548  0.81616794  0.56255357  1
  O  O171  1  0.12155516  0.10343430  0.15048761  1
  O  O172  1  0.10755515  0.12000932  0.60936000  1
  O  O173  1  0.11852296  0.61955822  0.11991754  1
  O  O174  1  0.12030158  0.61987167  0.61728728  1
  O  O175  1  0.62662563  0.11233596  0.11756931  1
  O  O176  1  0.63418421  0.12217763  0.61109424  1
  O  O177  1  0.61818135  0.62728563  0.11723324  1
  O  O178  1  0.62179134  0.62903908  0.61270659  1
  O  O179  1  0.37572644  0.38902134  0.37600677  1
  O  O180  1  0.38122411  0.38032602  0.88184539  1
  O  O181  1  0.38554237  0.88127018  0.37991444  1
  O  O182  1  0.38144711  0.87620354  0.88729887  1
  O  O183  1  0.88507424  0.38158249  0.38468300  1
  O  O184  1  0.89037312  0.37405909  0.87869558  1
  O  O185  1  0.88431108  0.87228131  0.36746976  1
  O  O186  1  0.88365213  0.88076019  0.87260232  1
  O  O187  1  0.25985473  0.00505501  0.37501805  1
  O  O188  1  0.26370924  -0.01179812  0.88093312  1
  O  O189  1  0.25664979  0.51006146  0.37144573  1
  O  O190  1  0.26426468  0.49462750  0.86541195  1
  O  O191  1  0.75040280  0.01569600  0.37400255  1
  O  O192  1  0.75565586  0.00156952  0.87091176  1
  O  O193  1  0.75675768  0.50332125  0.36520106  1
  O  O194  1  0.75110423  0.51277376  0.86188814  1
  O  O195  1  0.24274560  0.49287159  0.12981311  1
  O  O196  1  0.24067537  0.50605961  0.62934276  1
  O  O197  1  0.24447188  0.98816847  0.13599950  1
  O  O198  1  0.24527183  0.98904351  0.61607865  1
  O  O199  1  0.75667291  0.48496649  0.13163716  1
  O  O200  1  0.74828007  0.50174033  0.63598950  1
  O  O201  1  0.74482376  0.98898056  0.12479449  1
  O  O202  1  0.75816000  0.98921100  0.63317120  1
  O  O203  1  0.00644979  0.38063968  0.26156379  1
  O  O204  1  0.00160151  0.38150507  0.76084255  1
  O  O205  1  0.00610707  0.86927277  0.25690301  1
  O  O206  1  0.00773434  0.87383784  0.76122701  1
  O  O207  1  0.49748831  0.37764416  0.26913520  1
  O  O208  1  0.50980132  0.36695270  0.75119298  1
  O  O209  1  0.49467429  0.86561530  0.25900365  1
  O  O210  1  0.50706657  0.87064999  0.75674228  1
  O  O211  1  0.48752776  0.12546101  0.25333879  1
  O  O212  1  0.51206178  0.13387818  0.75044066  1
  O  O213  1  0.49316325  0.63053927  0.24525836  1
  O  O214  1  0.49601368  0.63458487  0.74939561  1
  O  O215  1  0.98689635  0.12565322  0.26050890  1
  O  O216  1  0.99514872  0.11544087  0.72958191  1
  O  O217  1  0.99516642  0.63153264  0.24590466  1
  O  O218  1  0.99368501  0.62763263  0.74260930  1
  O  O219  1  0.37396823  0.25315420  0.00601804  1
  O  O220  1  0.36036401  0.25653079  0.49764609  1
  O  O221  1  0.37668854  0.76140122  -0.00289118  1
  O  O222  1  0.37187795  0.75664242  0.50439737  1
  O  O223  1  0.86148399  0.24831367  0.01035355  1
  O  O224  1  0.86738549  0.25952933  0.49772449  1
  O  O225  1  0.87777747  0.74169460  0.01459401  1
  O  O226  1  0.86215310  0.74660891  0.50537532  1
  O  O227  1  0.13294502  0.24619308  0.49516133  1
  O  O228  1  0.13945387  0.23899591  1.01569591  1
  O  O229  1  0.12942928  0.73848626  0.50301536  1
  O  O230  1  0.11827119  0.73859630  0.99434934  1
  O  O231  1  0.63007011  0.23791756  0.50328917  1
  O  O232  1  0.63805806  0.23858275  1.00754647  1
  O  O233  1  0.63210320  0.74751591  0.49136298  1
  O  O234  1  0.63035217  0.73621413  0.99618972  1
  O  O235  1  0.48751229  0.24744396  0.12933805  1
  O  O236  1  0.49624727  0.25049848  0.63414767  1
  O  O237  1  0.50681419  0.74154053  0.13823045  1
  O  O238  1  0.49445441  0.75407596  0.63603877  1
  O  O239  1  0.98383086  0.25747517  0.11850605  1
  O  O240  1  0.99587091  0.23255321  0.61147373  1
  O  O241  1  0.99421039  0.74671341  0.13443504  1
  O  O242  1  0.99172377  0.74742562  0.62353338  1
  O  O243  1  0.01378795  0.25873460  0.38314168  1
  O  O244  1  -0.00179650  0.25758165  0.87923169  1
  O  O245  1  -0.00409323  0.75698214  0.36315309  1
  O  O246  1  0.00983143  0.75705805  0.87396475  1
  O  O247  1  0.49372097  0.26850015  0.37897125  1
  O  O248  1  0.49733688  0.24920414  0.85745691  1
  O  O249  1  0.50733253  0.75776931  0.36885146  1
  O  O250  1  0.49983837  0.75893623  0.86401772  1
  O  O251  1  0.23726940  0.13590149  0.50158761  1
  O  O252  1  0.23991899  0.12638346  1.01955037  1
  O  O253  1  0.24414022  0.63065882  0.49215851  1
  O  O254  1  0.23728794  0.61719086  1.00011423  1
  O  O255  1  0.74220626  0.12964561  0.49116555  1
  O  O256  1  0.74316260  0.12968831  0.99546525  1
  O  O257  1  0.74196798  0.63520726  0.49729874  1
  O  O258  1  0.74779189  0.62336801  0.99244273  1
  O  O259  1  0.26633891  0.37458450  0.00597568  1
  O  O260  1  0.24639143  0.36387499  0.49565303  1
  O  O261  1  0.26117813  0.87257626  0.01181262  1
  O  O262  1  0.25526884  0.86922341  0.50424022  1
  O  O263  1  0.75151002  0.37000127  0.00616607  1
  O  O264  1  0.75736374  0.36969822  0.49731871  1
  O  O265  1  0.75004115  0.87055518  0.01410245  1
  O  O266  1  0.74439629  0.86897029  0.50857723  1
  O  O267  1  0.13001324  0.49165744  0.24369546  1
  O  O268  1  0.13306263  0.49991486  0.73994632  1
  O  O269  1  0.13093825  0.98768128  0.25099659  1
  O  O270  1  0.12402291  0.98403166  0.74754812  1
  O  O271  1  0.63691761  0.51036288  0.25431656  1
  O  O272  1  0.63291402  0.49586216  0.74638605  1
  O  O273  1  0.63002450  1.00395654  0.23999965  1
  O  O274  1  0.63654355  0.98673891  0.75562348  1
  O  O275  1  0.37310576  0.00348950  0.26251044  1
  O  O276  1  0.37561105  -0.00594778  0.77247740  1
  O  O277  1  0.36796697  0.50683599  0.25587091  1
  O  O278  1  0.37090768  0.50190578  0.75193682  1
  O  O279  1  0.87265539  0.01906010  0.24068526  1
  O  O280  1  0.86388009  0.00078980  0.76147788  1
  O  O281  1  0.86919976  0.50695127  0.25336426  1
  O  O282  1  0.86817548  0.51486024  0.74167362  1
  O  O283  1  0.11843190  0.37060342  0.36831615  1
  O  O284  1  0.10643437  0.38383185  0.85897460  1
  O  O285  1  0.11970528  0.87499580  0.36568556  1
  O  O286  1  0.12118917  0.86873246  0.87119388  1
  O  O287  1  0.61735733  0.37718451  0.37732248  1
  O  O288  1  0.62594072  0.38001020  0.85966192  1
  O  O289  1  0.61518125  0.86980115  0.37910516  1
  O  O290  1  0.61670824  0.87221643  0.87034113  1
  O  O291  1  0.37589547  0.12968131  0.13537704  1
  O  O292  1  0.38007967  0.14959084  0.60392110  1
  O  O293  1  0.38026208  0.62163878  0.13585282  1
  O  O294  1  0.37760808  0.63408196  0.63148154  1
  O  O295  1  0.86830319  0.13860403  0.13632093  1
  O  O296  1  0.88596801  0.12380050  0.61985287  1
  O  O297  1  0.88003939  0.62924419  0.13386330  1
  O  O298  1  0.87967544  0.63705314  0.62825001  1
  O  O299  1  0.26798655  0.26086502  0.13726467  1
  O  O300  1  0.25785248  0.25359487  0.61169997  1
  O  O301  1  0.24948187  0.76160278  0.13472404  1
  O  O302  1  0.25539353  0.75774510  0.61817030  1
  O  O303  1  0.75554429  0.26228919  0.12016736  1
  O  O304  1  0.75416065  0.25318327  0.60874177  1
  O  O305  1  0.75833337  0.75869966  0.12388176  1
  O  O306  1  0.75594640  0.75843035  0.61679777  1
  O  O307  1  0.23947807  0.24467379  0.38106689  1
  O  O308  1  0.24291138  0.27436732  0.86644456  1
  O  O309  1  0.25686608  0.73755198  0.37992138  1
  O  O310  1  0.23728769  0.74822717  0.87268484  1
  O  O311  1  0.74747631  0.23979790  0.38576864  1
  O  O312  1  0.75355059  0.23976246  0.88472366  1
  O  O313  1  0.74303986  0.75150905  0.37982098  1
  O  O314  1  0.75154476  0.73857348  0.87554993  1
  O  O315  1  0.00661808  0.11059788  -0.00930362  1
  O  O316  1  0.00045919  0.11326972  0.49910410  1
  O  O317  1  0.00605303  0.61593865  0.00483315  1
  O  O318  1  0.00708218  0.62297253  0.49979578  1
  O  O319  1  0.51433254  0.12415003  0.00302764  1
  O  O320  1  0.51539817  0.11863346  0.49526192  1
  O  O321  1  0.50772355  0.62409831  0.00930169  1
  O  O322  1  0.50670671  0.61960468  0.49883140  1
  O  O323  1  0.50076758  0.38499953  0.48958159  1
  O  O324  1  0.49254007  0.37339285  0.99819703  1
  O  O325  1  0.49725202  0.88164381  0.49285606  1
  O  O326  1  0.49240538  0.87027310  0.99492003  1
  O  O327  1  0.99600761  0.38165323  0.48989736  1
  O  O328  1  1.00338623  0.38580607  0.98328664  1
  O  O329  1  1.00233140  0.88643827  0.49082411  1
  O  O330  1  1.00801486  0.88362932  0.98773274  1
  O  O331  1  0.49381820  0.49482192  0.38293800  1
  O  O332  1  0.48863654  0.49832438  0.87411918  1
  O  O333  1  0.49713859  0.99291957  0.37822040  1
  O  O334  1  0.49336753  0.98704620  0.87940314  1
  O  O335  1  0.99524886  0.49364450  0.37922082  1
  O  O336  1  0.99923810  0.50650763  0.88372328  1
  O  O337  1  1.00086834  0.99165820  0.38638823  1
  O  O338  1  0.98938301  0.99194934  0.88136058  1
  O  O339  1  0.00902646  -0.01184814  0.11426459  1
  O  O340  1  -0.00264364  0.00319724  0.61105416  1
  O  O341  1  0.00520883  0.50482599  0.12509884  1
  O  O342  1  0.00514184  0.51120939  0.61596421  1
  O  O343  1  0.50916495  0.00059399  0.12575644  1
  O  O344  1  0.49626195  -0.00660948  0.61366801  1
  O  O345  1  0.49751536  0.51231058  0.12599725  1
  O  O346  1  0.49997698  0.50257167  0.61138624  1
  O  O347  1  0.24151552  0.38095464  0.24589583  1
  O  O348  1  0.24001133  0.38903498  0.74697700  1
  O  O349  1  0.24500205  0.87804466  0.24985977  1
  O  O350  1  0.24217196  0.86994666  0.73969041  1
  O  O351  1  0.74586149  0.38286666  0.23821678  1
  O  O352  1  0.74612700  0.38517254  0.74943461  1
  O  O353  1  0.75158795  0.87602277  0.23272785  1
  O  O354  1  0.74415792  0.87930325  0.74410389  1
  O  O355  1  0.26597071  0.11589504  0.26463191  1
  O  O356  1  0.24628407  0.12761518  0.72621329  1
  O  O357  1  0.25540615  0.62143040  0.25542320  1
  O  O358  1  0.25645173  0.61434559  0.75277919  1
  O  O359  1  0.75311496  0.12444664  0.26052064  1
  O  O360  1  0.74713674  0.11532072  0.75793137  1
  O  O361  1  0.75830135  0.61952896  0.24797464  1
  O  O362  1  0.75624802  0.62187666  0.75446644  1
  O  O363  1  0.37406626  0.11846293  0.37521776  1
  O  O364  1  0.37464680  0.10720960  0.88655173  1
  O  O365  1  0.37033805  0.61518425  0.36625945  1
  O  O366  1  0.37316511  0.61702889  0.87009322  1
  O  O367  1  0.86242327  0.13300965  0.35961033  1
  O  O368  1  0.86280371  0.11369857  0.87609733  1
  O  O369  1  0.87371063  0.62222414  0.36139833  1
  O  O370  1  0.86963045  0.63028347  0.86366009  1
  O  O371  1  0.12736418  0.37781381  0.13053373  1
  O  O372  1  0.11140524  0.39409719  0.62822423  1
  O  O373  1  0.13332653  0.88002448  0.13666102  1
  O  O374  1  0.13186959  0.87309107  0.63308831  1
  O  O375  1  0.63751832  0.37591240  0.11925194  1
  O  O376  1  0.62933570  0.37978083  0.63597883  1
  O  O377  1  0.63624637  0.88059525  0.12186585  1
  O  O378  1  0.63667794  0.87093174  0.63476307  1
  O  O379  1  0.12769884  0.26235476  0.25851515  1
  O  O380  1  0.11987559  0.27169757  0.73151046  1
  O  O381  1  0.11346934  0.75655904  0.24752434  1
  O  O382  1  0.12297468  0.75774511  0.75748497  1
  O  O383  1  0.62232414  0.24694652  0.24616860  1
  O  O384  1  0.61648954  0.25598617  0.74408142  1
  O  O385  1  0.61813460  0.74387297  0.26359766  1
  O  O386  1  0.61801367  0.75974933  0.75126561  1
  O  O387  1  0.37944624  0.24235017  0.24690937  1
  O  O388  1  0.39113318  0.24767330  0.73790086  1
  O  O389  1  0.38716599  0.73919800  0.25709047  1
  O  O390  1  0.38188402  0.74691307  0.74693045  1
  O  O391  1  0.87545265  0.24034735  0.23675888  1
  O  O392  1  0.86684936  0.24454570  0.74219507  1
  O  O393  1  0.88158131  0.74049367  0.24048875  1
  O  O394  1  0.87647606  0.73994130  0.73986321  1
  O  O395  1  0.38196009  0.50137999  0.49208321  1
  O  O396  1  0.38005263  0.49102442  0.99212549  1
  O  O397  1  0.38654209  0.99408120  0.48752837  1
  O  O398  1  0.38007432  0.98547992  0.99334930  1
  O  O399  1  0.87838253  0.49782401  0.49187277  1
  O  O400  1  0.89449903  0.49749376  1.00704999  1
  O  O401  1  0.88463978  0.99899921  0.49701698  1
  O  O402  1  0.88150714  1.00269674  0.99285186  1
  O  O403  1  0.11872275  0.00232109  0.01097851  1
  O  O404  1  0.11629211  0.00868601  0.49923461  1
  O  O405  1  0.11039223  0.50847905  0.00858906  1
  O  O406  1  0.12141156  0.51152136  0.50433354  1
  O  O407  1  0.62244660  0.00536788  0.01011514  1
  O  O408  1  0.61746558  0.01317244  0.49707438  1
  O  O409  1  0.62355492  0.51403983  -0.00779915  1
  O  O410  1  0.61869221  0.51164856  0.50075370  1
  O  O411  1  0.37404409  0.36934560  0.11813467  1
  O  O412  1  0.37949134  0.35773560  0.61799458  1
  O  O413  1  0.36835758  0.87626205  0.11448064  1
  O  O414  1  0.36740345  0.87211111  0.62109282  1
  O  O415  1  0.86581682  0.36352447  0.12293850  1
  O  O416  1  0.87659733  0.37844963  0.60855998  1
  O  O417  1  0.86675796  0.86635741  0.12747245  1
  O  O418  1  0.86765141  0.86288628  0.63256930  1
  O  O419  1  0.12780483  0.13264362  0.38285762  1
  O  O420  1  0.13874571  0.11644014  0.85603447  1
  O  O421  1  0.13545121  0.61968518  0.38193036  1
  O  O422  1  0.12716902  0.63221134  0.88368319  1
  O  O423  1  0.63782817  0.12592035  0.38199296  1
  O  O424  1  0.63821368  0.11453682  0.88500829  1
  O  O425  1  0.62517816  0.63554533  0.38634761  1
  O  O426  1  0.63552253  0.62869079  0.87990989  1
