# generated using pymatgen
data_V85Zn86O256
_symmetry_space_group_name_H-M   'P 1'
_cell_length_a   16.96424194
_cell_length_b   16.97003389
_cell_length_c   16.95324985
_cell_angle_alpha   89.88107704
_cell_angle_beta   90.00463229
_cell_angle_gamma   90.01163620
_symmetry_Int_Tables_number   1
_chemical_formula_structural   V85Zn86O256
_chemical_formula_sum   'V85 Zn86 O256'
_cell_volume   4880.55469322
_cell_formula_units_Z   1
loop_
 _symmetry_equiv_pos_site_id
 _symmetry_equiv_pos_as_xyz
  1  'x, y, z'
loop_
 _atom_site_type_symbol
 _atom_site_label
 _atom_site_symmetry_multiplicity
 _atom_site_fract_x
 _atom_site_fract_y
 _atom_site_fract_z
 _atom_site_occupancy
  V  V0  1  0.12186737  0.25189788  0.86940944  1
  V  V1  1  0.11391778  0.37376487  0.74417448  1
  V  V2  1  0.62460442  0.87020220  0.24894458  1
  V  V3  1  0.25743544  0.12772399  0.36911674  1
  V  V4  1  0.50179107  0.00155137  0.50086011  1
  V  V5  1  0.74658218  0.87800783  0.62593569  1
  V  V6  1  0.50627711  0.87352671  0.87742990  1
  V  V7  1  0.88335446  0.24765722  0.63793694  1
  V  V8  1  0.87909674  0.61500094  0.25072028  1
  V  V9  1  0.37287203  0.87367558  -0.00167221  1
  V  V10  1  0.50186187  0.12787559  0.62616509  1
  V  V11  1  0.12604091  -0.00091825  0.12572951  1
  V  V12  1  0.49360788  0.40651199  0.40506518  1
  V  V13  1  0.74541770  0.00297513  0.75510207  1
  V  V14  1  -0.01128400  0.63784299  0.63009378  1
  V  V15  1  -0.00381996  0.74854370  0.24886922  1
  V  V16  1  0.51460519  0.25083124  0.25739539  1
  V  V17  1  0.88026909  0.38250087  0.49588374  1
  V  V18  1  0.14278435  -0.00461776  0.62220207  1
  V  V19  1  0.37433492  0.74271021  0.12199742  1
  V  V20  1  0.87655231  0.00224185  0.37670609  1
  V  V21  1  0.49914073  0.75042119  0.74444090  1
  V  V22  1  0.36638850  0.12239595  0.74747507  1
  V  V23  1  0.74530719  0.12711843  0.37713526  1
  V  V24  1  0.75040890  -0.00061967  0.25107333  1
  V  V25  1  0.25994757  0.25426611  -0.00245423  1
  V  V26  1  0.50404580  0.50339865  -0.00589874  1
  V  V27  1  0.37139457  0.62678724  0.74774546  1
  V  V28  1  0.25958065  0.00052697  0.25005495  1
  V  V29  1  0.75576963  0.61892552  0.37325832  1
  V  V30  1  0.62201891  0.72257363  0.88616049  1
  V  V31  1  0.00299129  0.00179020  0.50014274  1
  V  V32  1  -0.05190709  0.82075716  0.81496339  1
  V  V33  1  0.87045080  0.51582373  0.87492152  1
  V  V34  1  0.75459456  0.87047947  0.12374423  1
  V  V35  1  0.00872115  0.49993290  -0.00184051  1
  V  V36  1  0.00108796  0.12457703  0.12596507  1
  V  V37  1  0.87495360  0.24944609  0.12491845  1
  V  V38  1  0.12793464  0.87328420  0.25629704  1
  V  V39  1  0.63051497  0.74862175  0.37032958  1
  V  V40  1  0.87548292  0.87501170  0.49854997  1
  V  V41  1  0.36799959  0.76134922  0.62653011  1
  V  V42  1  0.49979495  0.61963942  0.12485039  1
  V  V43  1  0.00463290  0.25747699  0.24852880  1
  V  V44  1  0.24352911  0.49921378  0.74860134  1
  V  V45  1  0.87679424  0.12427169  0.25051400  1
  V  V46  1  0.92546372  0.06132472  0.81536381  1
  V  V47  1  0.25020767  0.87146836  0.12719733  1
  V  V48  1  0.87639620  0.87626932  0.00116711  1
  V  V49  1  0.75291247  0.25241895  0.50405676  1
  V  V50  1  0.23718168  0.62380445  0.87959291  1
  V  V51  1  0.25383906  0.26004045  0.49725139  1
  V  V52  1  0.74595731  0.48857008  0.25376552  1
  V  V53  1  0.62401172  -0.00282729  0.12487835  1
  V  V54  1  0.12789167  0.12678646  -0.00128142  1
  V  V55  1  0.37029642  0.49687887  0.87953697  1
  V  V56  1  0.25272244  0.37490112  0.12791640  1
  V  V57  1  0.75222757  0.51248974  0.74924600  1
  V  V58  1  0.75278866  0.74952393  0.50242942  1
  V  V59  1  0.62234820  0.25276303  0.87562994  1
  V  V60  1  0.74865289  0.12439155  0.87090416  1
  V  V61  1  0.48717418  0.73954426  0.26221599  1
  V  V62  1  0.37402819  0.25573776  0.62289450  1
  V  V63  1  0.12820337  0.49320398  0.12720236  1
  V  V64  1  0.24667092  0.74453130  0.50136687  1
  V  V65  1  0.49978055  0.87748236  0.37729843  1
  V  V66  1  0.87301313  0.37438774  -0.00245179  1
  V  V67  1  0.62219960  0.12445724  0.00215767  1
  V  V68  1  0.12533589  0.25692057  0.37009625  1
  V  V69  1  0.15069487  0.87448477  0.74772308  1
  V  V70  1  0.25271417  0.50076778  0.26308654  1
  V  V71  1  0.49787251  -0.00130256  0.00070275  1
  V  V72  1  0.62178211  0.48813943  0.12537497  1
  V  V73  1  0.12761995  0.73078270  0.37898020  1
  V  V74  1  0.00795366  0.62596511  0.12291354  1
  V  V75  1  0.74807720  0.25011846  0.00065712  1
  V  V76  1  0.62681665  0.37873150  0.74339994  1
  V  V77  1  0.23586599  0.74479533  0.00157571  1
  V  V78  1  -0.00251074  -0.00235253  -0.00212083  1
  V  V79  1  0.36749886  -0.00088340  0.87049183  1
  V  V80  1  0.37520541  0.24557834  0.13863068  1
  V  V81  1  0.11667736  0.51064716  0.61591664  1
  V  V82  1  0.62686829  0.61741755  0.51210837  1
  V  V83  1  0.49359013  0.37463829  0.87488195  1
  V  V84  1  0.12575507  0.12806881  0.49923036  1
  Zn  Zn85  1  0.83184254  0.71260355  0.07573051  1
  Zn  Zn86  1  0.62500446  0.00395383  0.62619480  1
  Zn  Zn87  1  0.37959713  0.00414321  0.37111410  1
  Zn  Zn88  1  0.38155474  0.60026478  0.27850040  1
  Zn  Zn89  1  0.62860957  0.27172680  0.37527739  1
  Zn  Zn90  1  0.00225192  0.87205647  0.37745360  1
  Zn  Zn91  1  0.74083799  0.36694190  0.13104943  1
  Zn  Zn92  1  0.87486196  0.75178084  0.64183176  1
  Zn  Zn93  1  -0.00175089  0.38429603  0.36926849  1
  Zn  Zn94  1  -0.00208029  0.51445938  0.48735733  1
  Zn  Zn95  1  0.47889620  0.57077900  0.59017928  1
  Zn  Zn96  1  0.62370298  0.13068475  0.49965791  1
  Zn  Zn97  1  0.62282554  0.87456394  0.75202224  1
  Zn  Zn98  1  0.00115005  0.12728717  0.63542958  1
  Zn  Zn99  1  -0.00388343  0.37315188  0.86996654  1
  Zn  Zn100  1  0.49770516  0.25145715  0.75055299  1
  Zn  Zn101  1  0.25239026  0.12666982  0.87272985  1
  Zn  Zn102  1  0.75218165  0.37906902  0.62661664  1
  Zn  Zn103  1  0.12264559  0.75430255  0.86648310  1
  Zn  Zn104  1  0.48933407  0.11993856  0.12999461  1
  Zn  Zn105  1  0.25100021  0.38360243  0.61787366  1
  Zn  Zn106  1  0.36799414  0.87964126  0.50444930  1
  Zn  Zn107  1  0.18900439  0.18694182  0.18701474  1
  Zn  Zn108  1  0.18779285  0.18823427  0.68437656  1
  Zn  Zn109  1  0.18874819  0.67898382  0.19344687  1
  Zn  Zn110  1  0.18559906  0.68736675  0.68438088  1
  Zn  Zn111  1  0.68560016  0.18547958  0.18795960  1
  Zn  Zn112  1  0.68749788  0.19297744  0.68797079  1
  Zn  Zn113  1  0.69820947  0.66486368  0.16090735  1
  Zn  Zn114  1  0.68825829  0.69267491  0.69501691  1
  Zn  Zn115  1  0.32027856  0.32318178  0.31397066  1
  Zn  Zn116  1  0.30949597  0.31375352  0.80664804  1
  Zn  Zn117  1  0.32262255  0.79176492  0.32369248  1
  Zn  Zn118  1  0.31269443  0.81088362  0.81769982  1
  Zn  Zn119  1  0.81654062  0.30951069  0.31597506  1
  Zn  Zn120  1  0.80980809  0.31493897  0.81376525  1
  Zn  Zn121  1  0.81560830  0.81064523  0.31058636  1
  Zn  Zn122  1  0.78702981  0.81093107  0.82223560  1
  Zn  Zn123  1  0.18148721  0.43761771  0.43675998  1
  Zn  Zn124  1  0.18713987  0.43152954  0.93769713  1
  Zn  Zn125  1  0.19296388  0.93412068  0.43691290  1
  Zn  Zn126  1  0.18564474  0.93382716  0.93695322  1
  Zn  Zn127  1  0.68481647  0.43722930  0.43902902  1
  Zn  Zn128  1  0.68511077  0.44037321  0.93522713  1
  Zn  Zn129  1  0.68507596  0.94068324  0.43858407  1
  Zn  Zn130  1  0.69071446  0.93649254  0.93995550  1
  Zn  Zn131  1  0.31078147  0.06370484  0.06066389  1
  Zn  Zn132  1  0.31836959  0.07005526  0.55375610  1
  Zn  Zn133  1  0.31279487  0.56194065  0.06098850  1
  Zn  Zn134  1  0.30726694  0.56703860  0.56093486  1
  Zn  Zn135  1  0.81284644  0.05876980  0.06026057  1
  Zn  Zn136  1  0.81477579  0.06720072  0.56662673  1
  Zn  Zn137  1  0.81143460  0.54836320  0.06416056  1
  Zn  Zn138  1  0.81442239  0.56482996  0.56751043  1
  Zn  Zn139  1  0.43430125  0.42846862  0.18549890  1
  Zn  Zn140  1  0.43200536  0.44604056  0.66996039  1
  Zn  Zn141  1  0.43805812  0.92931298  0.18707297  1
  Zn  Zn142  1  0.43773946  0.93889591  0.68904076  1
  Zn  Zn143  1  0.93525617  0.43735601  0.18367349  1
  Zn  Zn144  1  0.93349758  0.43985601  0.68486260  1
  Zn  Zn145  1  0.93921788  0.93553021  0.18711275  1
  Zn  Zn146  1  0.93849093  0.94033100  0.67390110  1
  Zn  Zn147  1  0.06741866  0.06478739  0.31357447  1
  Zn  Zn148  1  0.08864238  0.05450432  0.81130006  1
  Zn  Zn149  1  0.06655907  0.55419018  0.30739858  1
  Zn  Zn150  1  0.05693447  0.56235141  0.80898601  1
  Zn  Zn151  1  0.56151064  0.06671185  0.30815016  1
  Zn  Zn152  1  0.55871449  0.06245819  0.81152659  1
  Zn  Zn153  1  0.56751549  0.55887984  0.31529620  1
  Zn  Zn154  1  0.55348865  0.55459338  0.78451371  1
  Zn  Zn155  1  0.43736679  0.19182736  0.43670900  1
  Zn  Zn156  1  0.43648897  0.18555615  0.93762132  1
  Zn  Zn157  1  0.44172433  0.69102035  0.44493437  1
  Zn  Zn158  1  0.43525996  0.68416189  0.93377118  1
  Zn  Zn159  1  0.93727287  0.19184734  0.43907660  1
  Zn  Zn160  1  0.94233465  0.19248421  0.94184005  1
  Zn  Zn161  1  0.94038948  0.68509518  0.43920661  1
  Zn  Zn162  1  0.94540048  0.68463636  0.94038117  1
  Zn  Zn163  1  0.06563358  0.31449783  0.05919833  1
  Zn  Zn164  1  0.06084981  0.31377154  0.56362847  1
  Zn  Zn165  1  0.05976498  0.81415148  0.06441118  1
  Zn  Zn166  1  0.06603849  0.81139431  0.56427848  1
  Zn  Zn167  1  0.55120375  0.31380661  0.05911270  1
  Zn  Zn168  1  0.56356423  0.31515794  0.56077077  1
  Zn  Zn169  1  0.56183695  0.80647909  0.06340814  1
  Zn  Zn170  1  0.56421972  0.81004634  0.56153726  1
  O  O171  1  0.12033073  0.11874281  0.11878872  1
  O  O172  1  0.12329403  0.11463030  0.61783426  1
  O  O173  1  0.11628732  0.61098368  0.13098034  1
  O  O174  1  0.11643019  0.61413804  0.62577792  1
  O  O175  1  0.62776245  0.11810254  0.11217685  1
  O  O176  1  0.61243618  0.12794069  0.62515000  1
  O  O177  1  0.60428513  0.60753345  0.12821570  1
  O  O178  1  0.63696838  0.63544009  0.60996377  1
  O  O179  1  0.40301626  0.36701012  0.37722637  1
  O  O180  1  0.38079208  0.38511534  0.86440789  1
  O  O181  1  0.39259461  0.87431546  0.37551811  1
  O  O182  1  0.38379181  0.88060533  0.88017434  1
  O  O183  1  0.87828685  0.36784069  0.39210761  1
  O  O184  1  0.87758940  0.37383398  0.88774857  1
  O  O185  1  0.87637919  0.88175032  0.38499054  1
  O  O186  1  0.88039693  0.86921201  0.87777935  1
  O  O187  1  0.25154995  0.00818617  0.36635112  1
  O  O188  1  0.26459695  0.00086843  0.88238534  1
  O  O189  1  0.24868826  0.49141481  0.36237966  1
  O  O190  1  0.25103442  0.50482923  0.87073741  1
  O  O191  1  0.75717617  0.00710587  0.37216982  1
  O  O192  1  0.74831345  0.00582098  0.86401380  1
  O  O193  1  0.74462639  0.50938776  0.36756650  1
  O  O194  1  0.76595410  0.49788962  0.87468232  1
  O  O195  1  0.24455248  0.49100121  0.12193377  1
  O  O196  1  0.23242372  0.50400743  0.63314793  1
  O  O197  1  0.24452165  0.99442861  0.13090664  1
  O  O198  1  0.24028911  1.00321388  0.61011016  1
  O  O199  1  0.73826656  0.48815181  0.13427827  1
  O  O200  1  0.75988112  0.49773558  0.64533545  1
  O  O201  1  0.74416955  0.99167396  0.13078479  1
  O  O202  1  0.75027611  0.99744510  0.63649316  1
  O  O203  1  -0.00808697  0.36037733  0.24868929  1
  O  O204  1  0.01025808  0.38011435  0.75018839  1
  O  O205  1  0.00777017  0.86555862  0.25013717  1
  O  O206  1  0.00030666  0.88160461  0.75253536  1
  O  O207  1  0.49431666  0.35037008  0.24481440  1
  O  O208  1  0.50952782  0.37228043  0.76292646  1
  O  O209  1  0.50695385  0.86680647  0.25879987  1
  O  O210  1  0.50044570  0.86889056  0.76055478  1
  O  O211  1  0.50430391  0.14078866  0.24282640  1
  O  O212  1  0.49143372  0.12796474  0.74166158  1
  O  O213  1  0.49528796  0.62253364  0.24213239  1
  O  O214  1  0.48102638  0.64353751  0.76612327  1
  O  O215  1  0.99534170  0.13020235  0.24476114  1
  O  O216  1  0.99388822  0.10991664  0.75728883  1
  O  O217  1  0.99560687  0.62868250  0.24580312  1
  O  O218  1  1.00288738  0.62248436  0.72999959  1
  O  O219  1  0.36242985  0.24611088  0.00308810  1
  O  O220  1  0.36505020  0.24358366  0.50948737  1
  O  O221  1  0.36763130  0.75410305  0.00650107  1
  O  O222  1  0.37071166  0.75406941  0.51209738  1
  O  O223  1  0.87007156  0.25490997  0.00578125  1
  O  O224  1  0.86694020  0.25701882  0.50618429  1
  O  O225  1  0.89282614  0.76856823  0.00094822  1
  O  O226  1  0.86403883  0.75968056  0.49549058  1
  O  O227  1  0.13057547  0.24329282  0.49423835  1
  O  O228  1  0.13325706  0.24424389  0.99386517  1
  O  O229  1  0.12949635  0.75319078  0.48654118  1
  O  O230  1  0.13389212  0.75802795  0.99473235  1
  O  O231  1  0.63910975  0.25103159  0.49823432  1
  O  O232  1  0.62646740  0.24175778  0.99655944  1
  O  O233  1  0.64000774  0.74857765  0.49293749  1
  O  O234  1  0.60631308  0.73958358  0.98519298  1
  O  O235  1  0.48677627  0.24612810  0.12818026  1
  O  O236  1  0.49183395  0.24397612  0.62405356  1
  O  O237  1  0.49250263  0.73725688  0.13062580  1
  O  O238  1  0.49454751  0.75713396  0.63823730  1
  O  O239  1  0.99745340  0.24397612  0.12952764  1
  O  O240  1  0.98918234  0.24550744  0.62412531  1
  O  O241  1  1.01122418  0.73927474  0.13619435  1
  O  O242  1  0.99526208  0.74360579  0.62452412  1
  O  O243  1  0.00811913  0.24756455  0.36455168  1
  O  O244  1  0.01722161  0.25150301  0.88006534  1
  O  O245  1  0.01196110  0.75069776  0.36950427  1
  O  O246  1  0.00492803  0.75257474  0.86884700  1
  O  O247  1  0.50969001  0.24096993  0.36312764  1
  O  O248  1  0.50384087  0.25716916  0.87661363  1
  O  O249  1  0.51978437  0.76262089  0.38279127  1
  O  O250  1  0.50172641  0.75864400  0.86905687  1
  O  O251  1  0.24053230  0.13321106  0.49054360  1
  O  O252  1  0.24279308  0.13419838  0.99781140  1
  O  O253  1  0.25845141  0.64224856  0.49424994  1
  O  O254  1  0.25107264  0.63333165  0.99235127  1
  O  O255  1  0.75042025  0.13255008  0.49331549  1
  O  O256  1  0.74396819  0.12634421  0.98972046  1
  O  O257  1  0.74993826  0.63278716  0.49290613  1
  O  O258  1  0.74996909  0.63901153  1.05863312  1
  O  O259  1  0.24383932  0.36426506  0.01249276  1
  O  O260  1  0.24705438  0.36375454  0.49922778  1
  O  O261  1  0.25313045  0.86627923  0.00636907  1
  O  O262  1  0.25577623  0.85722345  0.48913656  1
  O  O263  1  0.75584431  0.36672523  0.00064032  1
  O  O264  1  0.75829663  0.36946073  0.50289353  1
  O  O265  1  0.76162700  0.87848722  0.00959920  1
  O  O266  1  0.75554763  0.87223002  0.50567125  1
  O  O267  1  0.14144125  0.49814546  0.23940673  1
  O  O268  1  0.12692441  0.49381647  0.74223163  1
  O  O269  1  0.13102457  0.99128787  0.24505700  1
  O  O270  1  0.13192296  0.99043810  0.73138027  1
  O  O271  1  0.63551461  0.50216155  0.24153277  1
  O  O272  1  0.64784021  0.48818288  0.77031307  1
  O  O273  1  0.63026087  0.99374013  0.24316316  1
  O  O274  1  0.63168830  0.99769418  0.74761584  1
  O  O275  1  0.36315186  -0.00643051  0.24941572  1
  O  O276  1  0.38101303  0.00876858  0.75941510  1
  O  O277  1  0.36003701  0.49405560  0.24501095  1
  O  O278  1  0.36076665  0.51018256  0.75732062  1
  O  O279  1  0.87199354  0.00469478  0.25635227  1
  O  O280  1  0.87007944  0.00128987  0.75184154  1
  O  O281  1  0.86745441  0.50979071  0.24443934  1
  O  O282  1  0.86633495  0.49396925  0.76719146  1
  O  O283  1  0.12067551  0.35959030  0.37714872  1
  O  O284  1  0.12188835  0.36860085  0.86496367  1
  O  O285  1  0.12237724  0.87534370  0.36278068  1
  O  O286  1  0.13009380  0.88001069  0.85275554  1
  O  O287  1  0.59971318  0.38382797  0.38211762  1
  O  O288  1  0.61780909  0.36752217  0.87216109  1
  O  O289  1  0.62192124  0.87082539  0.36842810  1
  O  O290  1  0.61180275  0.87808140  0.87843324  1
  O  O291  1  0.37177913  0.14045676  0.12005880  1
  O  O292  1  0.38309423  0.13126199  0.63021727  1
  O  O293  1  0.38189668  0.63127370  0.12499868  1
  O  O294  1  0.37374159  0.64206191  0.64084922  1
  O  O295  1  0.88062976  0.12901532  0.12858772  1
  O  O296  1  0.88083136  0.14121030  0.62282947  1
  O  O297  1  0.89322902  0.62392098  0.13520250  1
  O  O298  1  0.88248411  0.63363321  0.62929153  1
  O  O299  1  0.25639784  0.25457768  0.12083302  1
  O  O300  1  0.25595466  0.24905839  0.61290264  1
  O  O301  1  0.25354796  0.74894131  0.11926000  1
  O  O302  1  0.25539625  0.74848193  0.61535210  1
  O  O303  1  0.75552357  0.24890486  0.11909939  1
  O  O304  1  0.76040461  0.25073991  0.61830674  1
  O  O305  1  0.75271153  0.76982987  0.14574770  1
  O  O306  1  0.75454822  0.76025654  0.62038925  1
  O  O307  1  0.24571180  0.24689161  0.37658118  1
  O  O308  1  0.24236137  0.25273704  0.88253101  1
  O  O309  1  0.23203675  0.74963066  0.37738764  1
  O  O310  1  0.24742137  0.74182034  0.88449273  1
  O  O311  1  0.74743524  0.24360766  0.38235845  1
  O  O312  1  0.74346021  0.24196348  0.88127324  1
  O  O313  1  0.74474521  0.74577449  0.37988185  1
  O  O314  1  0.72229404  0.74293472  0.87826783  1
  O  O315  1  0.00569582  0.11548354  0.00517528  1
  O  O316  1  0.01393131  0.12015026  0.49566605  1
  O  O317  1  -0.00108574  0.61308337  0.01081469  1
  O  O318  1  -0.00584720  0.62495307  0.51831405  1
  O  O319  1  0.50749667  0.11775110  0.00285162  1
  O  O320  1  0.50094048  0.11983358  0.50727096  1
  O  O321  1  0.48852270  0.61000252  0.00633006  1
  O  O322  1  0.51950044  0.63351360  0.50468876  1
  O  O323  1  0.49884944  0.38938453  0.50462960  1
  O  O324  1  0.49913490  0.38576436  0.98439922  1
  O  O325  1  0.50290788  0.88446360  0.49369851  1
  O  O326  1  0.49283852  0.87854477  0.99566633  1
  O  O327  1  0.98678689  0.37427204  0.49845937  1
  O  O328  1  0.99156157  0.38275389  0.99871969  1
  O  O329  1  0.99245792  0.88290260  0.50042978  1
  O  O330  1  0.99843509  0.89101817  1.00321272  1
  O  O331  1  0.48994573  0.50593656  0.38065391  1
  O  O332  1  0.48948332  0.49493425  0.87737486  1
  O  O333  1  0.50199659  0.99501843  0.37971482  1
  O  O334  1  0.49168070  0.99300165  0.88142084  1
  O  O335  1  1.00337808  0.49661407  0.37612607  1
  O  O336  1  0.98876914  0.49914758  0.88199437  1
  O  O337  1  0.99666772  0.99978007  0.38511514  1
  O  O338  1  0.99298251  1.01147004  0.87736914  1
  O  O339  1  0.00629894  0.00512674  0.11764228  1
  O  O340  1  0.00782425  0.00667052  0.61064323  1
  O  O341  1  0.00873571  0.50237105  0.11942063  1
  O  O342  1  0.00752170  0.50555401  0.62203904  1
  O  O343  1  0.50504224  -0.00059428  0.12001744  1
  O  O344  1  0.50079413  0.00871670  0.61795744  1
  O  O345  1  0.49949301  0.49926723  0.11585499  1
  O  O346  1  0.52002003  0.51534678  0.67949922  1
  O  O347  1  0.25376337  0.38201675  0.23702121  1
  O  O348  1  0.23978500  0.38969634  0.74854905  1
  O  O349  1  0.24334096  0.88008648  0.24565190  1
  O  O350  1  0.24920636  0.87904162  0.74849995  1
  O  O351  1  0.75746971  0.38497911  0.25264694  1
  O  O352  1  0.74263440  0.38075893  0.75012078  1
  O  O353  1  0.74609440  0.88342083  0.24833263  1
  O  O354  1  0.74560784  0.88468967  0.74338815  1
  O  O355  1  0.24248375  0.11254462  0.25733880  1
  O  O356  1  0.26209491  0.12538025  0.74962963  1
  O  O357  1  0.25869159  0.60586050  0.24938824  1
  O  O358  1  0.25035519  0.61675500  0.75592790  1
  O  O359  1  0.75650068  0.11948999  0.25664145  1
  O  O360  1  0.74404097  0.12068531  0.76268264  1
  O  O361  1  0.75940607  0.61663063  0.25471726  1
  O  O362  1  0.74766450  0.61164456  0.75109996  1
  O  O363  1  0.36101425  0.12495719  0.37779085  1
  O  O364  1  0.37502499  0.11664109  0.86626015  1
  O  O365  1  0.39599695  0.69188551  0.34166885  1
  O  O366  1  0.35992309  0.61969280  0.86658830  1
  O  O367  1  0.86634833  0.12192686  0.37154784  1
  O  O368  1  0.87003993  0.12785828  0.87331773  1
  O  O369  1  0.86374172  0.63080891  0.36685046  1
  O  O370  1  0.87476681  0.61403537  0.88210977  1
  O  O371  1  0.13162884  0.38525244  0.12311804  1
  O  O372  1  0.12631373  0.38419746  0.62989282  1
  O  O373  1  0.13082118  0.87837405  0.13575090  1
  O  O374  1  0.12467293  0.88816047  0.63163015  1
  O  O375  1  0.61953514  0.38350469  0.12173062  1
  O  O376  1  0.62836057  0.36962008  0.64058821  1
  O  O377  1  0.63025494  0.87698772  0.12917559  1
  O  O378  1  0.63777009  0.87738234  0.62465220  1
  O  O379  1  0.11545171  0.24273527  0.25680117  1
  O  O380  1  0.13297112  0.26015420  0.75640044  1
  O  O381  1  0.12021320  0.75336126  0.26015227  1
  O  O382  1  0.13298908  0.77016313  0.74526493  1
  O  O383  1  0.61935138  0.25274201  0.25256786  1
  O  O384  1  0.62337765  0.25807290  0.76046342  1
  O  O385  1  0.61415076  0.74989963  0.26042615  1
  O  O386  1  0.61345837  0.75291456  0.75994268  1
  O  O387  1  0.37388009  0.24608898  0.23970474  1
  O  O388  1  0.37556633  0.23897928  0.74403794  1
  O  O389  1  0.37784537  0.77318118  0.22295131  1
  O  O390  1  0.37678886  0.74748893  0.74686702  1
  O  O391  1  0.88154395  0.24220260  0.24397312  1
  O  O392  1  0.87249908  0.25507846  0.73668283  1
  O  O393  1  0.89033826  0.74155307  0.25497626  1
  O  O394  1  0.87899438  0.76757700  0.76011615  1
  O  O395  1  0.39253737  0.49914270  0.56846162  1
  O  O396  1  0.37733591  0.50143470  0.98401829  1
  O  O397  1  0.38813948  0.99841307  0.49493934  1
  O  O398  1  0.38004131  0.99463907  0.99431430  1
  O  O399  1  0.87381863  0.48483486  0.50694686  1
  O  O400  1  0.88109884  0.49178608  0.99310486  1
  O  O401  1  0.88270900  0.99573629  0.49789091  1
  O  O402  1  0.88445751  0.99083637  0.99880560  1
  O  O403  1  0.11927238  0.00524835  0.00334109  1
  O  O404  1  0.12151733  0.00412102  0.50421664  1
  O  O405  1  0.11338442  0.49396234  0.00391527  1
  O  O406  1  0.12190815  0.49742782  0.51370390  1
  O  O407  1  0.61977427  0.00584423  0.00456971  1
  O  O408  1  0.61429785  0.00570309  0.50349989  1
  O  O409  1  0.61356021  0.49715592  0.00731385  1
  O  O410  1  0.63514465  0.51858536  0.50445631  1
  O  O411  1  0.36630416  0.35689535  0.12136847  1
  O  O412  1  0.36662731  0.35694584  0.64194082  1
  O  O413  1  0.36803719  0.87149403  0.11234756  1
  O  O414  1  0.37734130  0.86554582  0.62615090  1
  O  O415  1  0.87227738  0.36789067  0.11291386  1
  O  O416  1  0.87534707  0.36374245  0.61571722  1
  O  O417  1  0.86721770  0.88152220  0.11581520  1
  O  O418  1  0.86469591  0.87462700  0.61375715  1
  O  O419  1  0.13464662  0.13363690  0.38165033  1
  O  O420  1  0.13267725  0.13255028  0.87940730  1
  O  O421  1  0.12418470  0.63333927  0.37229899  1
  O  O422  1  0.13417397  0.62782951  0.86799229  1
  O  O423  1  0.64008875  0.12262236  0.37537035  1
  O  O424  1  0.62908689  0.12908747  0.88439187  1
  O  O425  1  0.63692549  0.63369475  0.38257140  1
  O  O426  1  0.60877147  0.62567983  0.86878275  1
