# generated using pymatgen
data_V85Zn86O256
_symmetry_space_group_name_H-M   'P 1'
_cell_length_a   16.94274516
_cell_length_b   16.94586653
_cell_length_c   16.94648535
_cell_angle_alpha   90.01652345
_cell_angle_beta   90.00902531
_cell_angle_gamma   90.04476077
_symmetry_Int_Tables_number   1
_chemical_formula_structural   V85Zn86O256
_chemical_formula_sum   'V85 Zn86 O256'
_cell_volume   4865.49515625
_cell_formula_units_Z   1
loop_
 _symmetry_equiv_pos_site_id
 _symmetry_equiv_pos_as_xyz
  1  'x, y, z'
loop_
 _atom_site_type_symbol
 _atom_site_label
 _atom_site_symmetry_multiplicity
 _atom_site_fract_x
 _atom_site_fract_y
 _atom_site_fract_z
 _atom_site_occupancy
  V  V0  1  0.63099763  -0.00804174  0.62703163  1
  V  V1  1  0.12558302  0.00492980  0.12334610  1
  V  V2  1  0.87163539  0.87776333  0.50646705  1
  V  V3  1  0.11890237  0.25551885  0.86066779  1
  V  V4  1  0.12782855  0.87168772  0.25220164  1
  V  V5  1  0.24830726  0.61993648  0.36698412  1
  V  V6  1  0.75145550  -0.00159602  0.25070684  1
  V  V7  1  0.01216080  0.24832681  0.25693897  1
  V  V8  1  0.62277262  0.49940652  0.62423551  1
  V  V9  1  0.62257395  0.62755954  0.49730248  1
  V  V10  1  0.87891139  0.74784237  0.12522248  1
  V  V11  1  0.88439564  0.12129181  0.24601447  1
  V  V12  1  0.62223262  0.61968792  -0.00429561  1
  V  V13  1  0.12530487  0.13195392  0.00046012  1
  V  V14  1  0.75184756  0.37124379  0.12617778  1
  V  V15  1  0.62509095  0.37128103  0.24819673  1
  V  V16  1  0.49458596  0.87355421  0.37856665  1
  V  V17  1  0.61046003  0.25180754  0.87207177  1
  V  V18  1  0.13749444  0.49341155  0.13448740  1
  V  V19  1  0.48934027  -0.01519113  -0.00614043  1
  V  V20  1  0.38169987  0.24749711  0.64492953  1
  V  V21  1  0.24996586  0.88295039  0.62116613  1
  V  V22  1  0.00306135  0.75006848  0.25300360  1
  V  V23  1  0.25599770  0.74603313  -0.00859469  1
  V  V24  1  0.75327138  0.12559388  0.87441608  1
  V  V25  1  0.25551287  0.87756450  0.11623632  1
  V  V26  1  0.37218580  0.26300001  0.12413490  1
  V  V27  1  0.00603048  -0.00051204  0.51100144  1
  V  V28  1  0.86859236  0.75414428  0.62917395  1
  V  V29  1  0.49914841  0.37633328  0.37477120  1
  V  V30  1  0.00667768  0.87230274  0.37847733  1
  V  V31  1  0.62241380  0.12069016  -0.00171983  1
  V  V32  1  0.49749574  -0.00146127  0.50329053  1
  V  V33  1  0.38845806  0.37727732  -0.00596718  1
  V  V34  1  0.61818813  0.49742853  0.12024415  1
  V  V35  1  0.24781439  0.25275251  0.50396175  1
  V  V36  1  0.23762167  0.75695619  0.49153278  1
  V  V37  1  0.62415355  0.12627997  0.50493864  1
  V  V38  1  0.37381215  0.75108396  0.12681801  1
  V  V39  1  0.75649943  -0.00602398  0.74840209  1
  V  V40  1  0.49553827  0.62527311  0.11944453  1
  V  V41  1  0.49667773  0.62746265  0.62298754  1
  V  V42  1  0.75230378  0.74740980  0.00032454  1
  V  V43  1  0.62701941  0.24890358  0.37648710  1
  V  V44  1  -0.02241802  0.49242729  0.49786767  1
  V  V45  1  0.88066710  0.87488212  -0.00186589  1
  V  V46  1  0.24756670  0.26310812  0.00159071  1
  V  V47  1  0.37731257  0.12432424  0.24822821  1
  V  V48  1  0.24793388  0.12956439  0.37579002  1
  V  V49  1  0.00348245  0.00440218  0.00192526  1
  V  V50  1  0.49895631  0.12198088  0.12272678  1
  V  V51  1  0.87490611  0.37798472  -0.00568447  1
  V  V52  1  0.37192651  -0.00487107  0.85992680  1
  V  V53  1  0.24616519  0.38832273  0.63247199  1
  V  V54  1  0.49710044  0.74320895  0.25056974  1
  V  V55  1  0.87361268  0.62620133  0.75447519  1
  V  V56  1  0.00478320  0.13709179  0.63222395  1
  V  V57  1  0.75338670  0.62111952  0.37957500  1
  V  V58  1  0.37667150  0.37411095  0.50300839  1
  V  V59  1  0.50205862  0.24762264  0.24896424  1
  V  V60  1  0.37349491  0.75430772  0.61376234  1
  V  V61  1  0.12749757  0.88507074  0.74755327  1
  V  V62  1  0.25231014  -0.00077562  0.24949783  1
  V  V63  1  0.00299822  0.61661295  0.12806743  1
  V  V64  1  0.75880580  0.25202919  0.50204053  1
  V  V65  1  0.00322609  0.75181347  0.75190239  1
  V  V66  1  -0.00196769  0.49947025  -0.00058709  1
  V  V67  1  0.75222542  0.49852617  0.75137112  1
  V  V68  1  0.75244823  0.37369994  0.62282416  1
  V  V69  1  0.20126547  0.57072573  0.81790433  1
  V  V70  1  0.62411372  0.75062533  0.37533664  1
  V  V71  1  0.75274708  0.87311085  0.12572803  1
  V  V72  1  0.87587618  0.62212832  0.25620412  1
  V  V73  1  0.37715307  -0.00040456  0.37739275  1
  V  V74  1  0.49836177  0.75622465  0.75720527  1
  V  V75  1  0.62488900  -0.00281029  0.12293047  1
  V  V76  1  0.87622259  -0.00191222  0.37668026  1
  V  V77  1  0.88418182  0.24554664  0.12506957  1
  V  V78  1  0.12633335  0.12353618  0.50087932  1
  V  V79  1  0.74956016  0.75503937  0.50407979  1
  V  V80  1  0.37220167  0.62252914  0.75399272  1
  V  V81  1  0.74498700  0.50152832  0.25319229  1
  V  V82  1  0.74949130  0.62024370  0.87678471  1
  V  V83  1  0.38468755  0.50449343  0.88002913  1
  V  V84  1  0.12364440  0.61225216  0.50184063  1
  Zn  Zn85  1  0.24974247  0.01267141  0.73955390  1
  Zn  Zn86  1  0.00331221  0.62385848  0.62377317  1
  Zn  Zn87  1  0.62882857  0.87309057  0.75547672  1
  Zn  Zn88  1  0.74997201  0.24716980  0.00086028  1
  Zn  Zn89  1  0.49723609  0.50232830  0.49528002  1
  Zn  Zn90  1  0.88207009  0.25621549  0.63119646  1
  Zn  Zn91  1  -0.01161388  0.37188718  0.86457557  1
  Zn  Zn92  1  0.88066927  0.00325246  0.87392025  1
  Zn  Zn93  1  0.61941317  0.75215117  0.87928755  1
  Zn  Zn94  1  0.62462826  0.87363175  0.25072169  1
  Zn  Zn95  1  0.50147103  0.12583183  0.64249718  1
  Zn  Zn96  1  0.36323113  0.49859537  0.36848369  1
  Zn  Zn97  1  0.25693010  0.12889031  0.86922512  1
  Zn  Zn98  1  0.00655111  0.87542192  0.87649397  1
  Zn  Zn99  1  0.61229949  0.36427508  0.75023871  1
  Zn  Zn100  1  0.14022103  0.37837482  0.26367246  1
  Zn  Zn101  1  0.12210891  0.38615248  0.74369309  1
  Zn  Zn102  1  0.13211372  0.74939119  0.87242537  1
  Zn  Zn103  1  0.12819566  0.62459546  -0.00029224  1
  Zn  Zn104  1  0.88032329  0.13306339  0.75397711  1
  Zn  Zn105  1  0.75184113  0.12394666  0.37681935  1
  Zn  Zn106  1  -0.00135926  0.37609758  0.37963769  1
  Zn  Zn107  1  0.19320853  0.18671121  0.18432617  1
  Zn  Zn108  1  0.19004714  0.18985576  0.68526312  1
  Zn  Zn109  1  0.18660010  0.68867745  0.18458288  1
  Zn  Zn110  1  0.18518837  0.69648738  0.67849888  1
  Zn  Zn111  1  0.69254306  0.18322517  0.18664294  1
  Zn  Zn112  1  0.68684227  0.18369601  0.69127956  1
  Zn  Zn113  1  0.68475138  0.68624983  0.18819643  1
  Zn  Zn114  1  0.68541660  0.68689030  0.68798255  1
  Zn  Zn115  1  0.31320425  0.30990887  0.31532413  1
  Zn  Zn116  1  0.30500608  0.32076427  0.81824579  1
  Zn  Zn117  1  0.31431977  0.80989760  0.31122107  1
  Zn  Zn118  1  0.31912577  0.82053436  0.80892947  1
  Zn  Zn119  1  0.81797877  0.30992107  0.31788498  1
  Zn  Zn120  1  0.80634961  0.30822582  0.80909466  1
  Zn  Zn121  1  0.81544747  0.81037057  0.31692222  1
  Zn  Zn122  1  0.81073352  0.81251302  0.81799917  1
  Zn  Zn123  1  0.18203728  0.43456536  0.43566083  1
  Zn  Zn124  1  0.18093343  0.43593444  0.94449528  1
  Zn  Zn125  1  0.18831430  0.94069246  0.43834255  1
  Zn  Zn126  1  0.19191883  0.93568752  0.93315319  1
  Zn  Zn127  1  0.68779127  0.43763739  0.43901851  1
  Zn  Zn128  1  0.68692451  0.43540117  0.93774711  1
  Zn  Zn129  1  0.68531632  0.93711872  0.43785604  1
  Zn  Zn130  1  0.68835012  0.93488945  0.93377794  1
  Zn  Zn131  1  0.31325894  0.07006452  0.05494085  1
  Zn  Zn132  1  0.31788834  0.06809986  0.56470883  1
  Zn  Zn133  1  0.31494887  0.56467787  0.05916547  1
  Zn  Zn134  1  0.31294974  0.56560834  0.55518000  1
  Zn  Zn135  1  0.81339060  0.06152807  0.06186434  1
  Zn  Zn136  1  0.81507057  0.06650306  0.56657103  1
  Zn  Zn137  1  0.81249785  0.55928347  0.06782524  1
  Zn  Zn138  1  0.81296475  0.56583416  0.56724889  1
  Zn  Zn139  1  0.31644632  0.44110976  0.19554702  1
  Zn  Zn140  1  0.43503680  0.43873378  0.68972645  1
  Zn  Zn141  1  0.43932668  0.93360619  0.18824603  1
  Zn  Zn142  1  0.43796629  0.93578193  0.68282746  1
  Zn  Zn143  1  0.92090882  0.41873035  0.22418557  1
  Zn  Zn144  1  0.93521629  0.43946742  0.67678867  1
  Zn  Zn145  1  0.94196394  0.93784210  0.18491489  1
  Zn  Zn146  1  0.93882082  0.94068353  0.68946584  1
  Zn  Zn147  1  0.06450093  0.06041678  0.31627554  1
  Zn  Zn148  1  0.06844837  0.06504985  0.81645630  1
  Zn  Zn149  1  0.06721018  0.56178761  0.31997895  1
  Zn  Zn150  1  0.02813139  0.53048869  0.79065645  1
  Zn  Zn151  1  0.56623830  0.06178087  0.31391702  1
  Zn  Zn152  1  0.56620896  0.05425885  0.81612730  1
  Zn  Zn153  1  0.50060226  0.52043007  0.26030717  1
  Zn  Zn154  1  0.54601150  0.53388588  0.79692592  1
  Zn  Zn155  1  0.43743227  0.18843478  0.44140983  1
  Zn  Zn156  1  0.43344630  0.17822078  0.81939089  1
  Zn  Zn157  1  0.43141914  0.68574412  0.43503914  1
  Zn  Zn158  1  0.43212315  0.68582853  0.93745617  1
  Zn  Zn159  1  0.93756755  0.18422820  0.43660739  1
  Zn  Zn160  1  0.94065671  0.18931542  0.93964132  1
  Zn  Zn161  1  0.94043073  0.68913453  0.43901013  1
  Zn  Zn162  1  0.94036797  0.68397171  0.93569602  1
  Zn  Zn163  1  0.05926942  0.31565810  0.06845772  1
  Zn  Zn164  1  0.06711644  0.31899895  0.55499570  1
  Zn  Zn165  1  0.06867355  0.81041392  0.06307901  1
  Zn  Zn166  1  0.06290276  0.81142776  0.56824063  1
  Zn  Zn167  1  0.56142951  0.30735357  0.05810839  1
  Zn  Zn168  1  0.56294765  0.31239430  0.56425831  1
  Zn  Zn169  1  0.56685826  0.80960537  0.06273387  1
  Zn  Zn170  1  0.55970200  0.81490340  0.56454131  1
  O  O171  1  0.13267502  0.11089256  0.11806995  1
  O  O172  1  0.11650100  0.12970419  0.61184038  1
  O  O173  1  0.11807365  0.61694480  0.12576410  1
  O  O174  1  0.12203750  0.63454866  0.60663639  1
  O  O175  1  0.62211056  0.11719372  0.11937129  1
  O  O176  1  0.62205289  0.11619742  0.61854884  1
  O  O177  1  0.62136017  0.61728734  0.11718195  1
  O  O178  1  0.61985078  0.62369796  0.61248531  1
  O  O179  1  0.38435912  0.37026993  0.38583227  1
  O  O180  1  0.37186425  0.38523878  0.88692330  1
  O  O181  1  0.38715166  0.88154340  0.36972615  1
  O  O182  1  0.37389896  0.89415027  0.87790668  1
  O  O183  1  0.89282361  0.38841196  0.33375671  1
  O  O184  1  0.86948366  0.36990408  0.89091289  1
  O  O185  1  0.88345132  0.87854767  0.38678749  1
  O  O186  1  0.87877360  0.87721309  0.88949801  1
  O  O187  1  0.25833031  0.00902566  0.37200803  1
  O  O188  1  0.26190314  0.00212652  0.87228241  1
  O  O189  1  0.24566873  0.51433284  0.37843585  1
  O  O190  1  0.25277771  0.50605907  0.87965004  1
  O  O191  1  0.75626881  -0.00171301  0.36690993  1
  O  O192  1  0.75383336  0.00997978  0.86922404  1
  O  O193  1  0.74165446  0.51443148  0.37039776  1
  O  O194  1  0.74332517  0.51065030  0.86622073  1
  O  O195  1  0.24151794  0.50614695  0.12793579  1
  O  O196  1  0.25952513  0.48561359  0.62006341  1
  O  O197  1  0.24744310  0.99404787  0.12771374  1
  O  O198  1  0.25912037  0.98737141  0.62004633  1
  O  O199  1  0.73869213  0.49310093  0.13267715  1
  O  O200  1  0.74299985  0.49383090  0.62765987  1
  O  O201  1  0.74640992  0.99330268  0.13216745  1
  O  O202  1  0.74330370  1.00701643  0.63448306  1
  O  O203  1  0.01606355  0.35210101  0.23875621  1
  O  O204  1  0.00910232  0.41520282  0.75862972  1
  O  O205  1  0.00775603  0.87326094  0.25784724  1
  O  O206  1  0.00805998  0.86875429  0.75017497  1
  O  O207  1  0.51008020  0.36217617  0.25983539  1
  O  O208  1  0.51868310  0.42398562  0.76074819  1
  O  O209  1  0.50251178  0.86133265  0.25689748  1
  O  O210  1  0.49923610  0.85808909  0.74463391  1
  O  O211  1  0.49841393  0.12780175  0.24337038  1
  O  O212  1  0.50310668  0.12069154  0.75401093  1
  O  O213  1  0.50637608  0.63792076  0.23701862  1
  O  O214  1  0.49027698  0.63079794  0.74087085  1
  O  O215  1  0.99026024  0.12521360  0.25302490  1
  O  O216  1  1.00740118  0.12146003  0.73374088  1
  O  O217  1  0.99365308  0.62856950  0.24905377  1
  O  O218  1  0.99007916  0.62980009  0.74691001  1
  O  O219  1  0.36597517  0.26591821  0.00544814  1
  O  O220  1  0.36849239  0.25919562  0.50666960  1
  O  O221  1  0.36539415  0.75009598  0.01136058  1
  O  O222  1  0.36415946  0.74587163  0.50961029  1
  O  O223  1  0.87408763  0.25686573  0.01034817  1
  O  O224  1  0.86140891  0.24319126  0.50283733  1
  O  O225  1  0.87351193  0.75562764  0.00507081  1
  O  O226  1  0.87195685  0.75768569  0.50965399  1
  O  O227  1  0.14133710  0.24379631  0.50325878  1
  O  O228  1  0.13013106  0.24604576  1.00540907  1
  O  O229  1  0.13540754  0.74950608  0.49903182  1
  O  O230  1  0.13917278  0.74697049  0.99705503  1
  O  O231  1  0.62965475  0.24199455  0.49634775  1
  O  O232  1  0.62729357  0.23704268  0.99415690  1
  O  O233  1  0.62915227  0.74650674  0.49760591  1
  O  O234  1  0.63569452  0.73730849  1.00378048  1
  O  O235  1  0.49274364  0.24192356  0.12818386  1
  O  O236  1  0.48479461  0.25443232  0.62777828  1
  O  O237  1  0.49419355  0.74665057  0.13086049  1
  O  O238  1  0.49045935  0.74516468  0.62824850  1
  O  O239  1  0.98913269  0.24589063  0.13257923  1
  O  O240  1  1.00260195  0.24007835  0.61642214  1
  O  O241  1  0.99873172  0.74040985  0.13211128  1
  O  O242  1  0.98834378  0.74897599  0.63627164  1
  O  O243  1  -0.00545288  0.24742283  0.35931556  1
  O  O244  1  0.01454237  0.25621158  0.88069767  1
  O  O245  1  -0.00336202  0.76514708  0.36994318  1
  O  O246  1  0.00135337  0.75062934  0.86206212  1
  O  O247  1  0.50710722  0.25486309  0.37168490  1
  O  O248  1  0.51237022  0.24424317  0.88019620  1
  O  O249  1  0.50041235  0.75418660  0.36933891  1
  O  O250  1  0.49687047  0.74387234  0.85970333  1
  O  O251  1  0.24561483  0.13023707  0.49676459  1
  O  O252  1  0.23837184  0.13423007  0.99459635  1
  O  O253  1  0.23918689  0.63650177  0.49652943  1
  O  O254  1  0.24897596  0.64261900  1.00555152  1
  O  O255  1  0.73949996  0.13083059  0.50038981  1
  O  O256  1  0.73960234  0.12070568  0.99464210  1
  O  O257  1  0.74494393  0.63303965  0.49610491  1
  O  O258  1  0.74766554  0.62510855  0.99418123  1
  O  O259  1  0.25205384  0.36568722  0.00227647  1
  O  O260  1  0.25755184  0.36830599  0.50685004  1
  O  O261  1  0.24450027  0.86561828  0.01202081  1
  O  O262  1  0.24593588  0.86478325  0.50288428  1
  O  O263  1  0.75646007  0.37555437  0.01340071  1
  O  O264  1  0.74181495  0.36390488  0.50867360  1
  O  O265  1  0.76153745  0.87020214  0.00715179  1
  O  O266  1  0.76096257  0.86928316  0.49439616  1
  O  O267  1  0.11991993  0.49957426  0.23724484  1
  O  O268  1  0.14076536  0.51427560  0.75913467  1
  O  O269  1  0.13100502  0.99389646  0.24246400  1
  O  O270  1  0.12647113  0.98832062  0.75255533  1
  O  O271  1  0.62533023  0.48916140  0.24006441  1
  O  O272  1  0.64137559  0.52145252  0.73093341  1
  O  O273  1  0.63532719  0.99758740  0.24419257  1
  O  O274  1  0.63565538  0.99537382  0.74301821  1
  O  O275  1  0.37095008  0.00521266  0.25482618  1
  O  O276  1  0.37355607  -0.00376084  0.75626930  1
  O  O277  1  0.39061716  0.49399186  0.25855528  1
  O  O278  1  0.37370900  0.51503308  0.75998924  1
  O  O279  1  0.87182346  0.00248409  0.25275171  1
  O  O280  1  0.87155573  0.00867269  0.75271283  1
  O  O281  1  0.86146407  0.51854264  0.23905909  1
  O  O282  1  0.85961993  0.51133596  0.74217217  1
  O  O283  1  0.11448988  0.37316227  0.37428542  1
  O  O284  1  0.12300775  0.36435747  0.87325711  1
  O  O285  1  0.11831769  0.88308392  0.36463138  1
  O  O286  1  0.12601382  0.86980819  0.86390921  1
  O  O287  1  0.62098608  0.36538397  0.37191546  1
  O  O288  1  0.63006769  0.35415484  0.88127507  1
  O  O289  1  0.61333912  0.86903255  0.37382584  1
  O  O290  1  0.63286262  0.86373404  0.86998081  1
  O  O291  1  0.38261380  0.13033913  0.12903663  1
  O  O292  1  0.37915161  0.14495878  0.62500862  1
  O  O293  1  0.38742150  0.63276008  0.11961144  1
  O  O294  1  0.37728729  0.63216894  0.62963785  1
  O  O295  1  0.86956087  0.13222495  0.13396855  1
  O  O296  1  0.89515899  0.12811943  0.62235747  1
  O  O297  1  0.88217942  0.63179984  0.13250421  1
  O  O298  1  0.87335675  0.63728178  0.63726581  1
  O  O299  1  0.26383264  0.24010169  0.11393755  1
  O  O300  1  0.26413436  0.25835414  0.62038163  1
  O  O301  1  0.25713840  0.75742421  0.12033222  1
  O  O302  1  0.25581527  0.75938513  0.61134578  1
  O  O303  1  0.75807659  0.25660680  0.12421286  1
  O  O304  1  0.74384210  0.25731241  0.61779142  1
  O  O305  1  0.75777341  0.75285226  0.12092774  1
  O  O306  1  0.76082148  0.74965200  0.62217058  1
  O  O307  1  0.25979765  0.23502753  0.38660611  1
  O  O308  1  0.23644483  0.25203929  0.88468329  1
  O  O309  1  0.25572012  0.74687541  0.38860914  1
  O  O310  1  0.25713193  0.75839802  0.88952855  1
  O  O311  1  0.74536422  0.24884591  0.38290370  1
  O  O312  1  0.74376764  0.23536323  0.88002870  1
  O  O313  1  0.74471310  0.74255624  0.38200877  1
  O  O314  1  0.75234516  0.73635516  0.88394630  1
  O  O315  1  0.01429151  0.11808623  -0.00003845  1
  O  O316  1  0.00905448  0.11861902  0.50241238  1
  O  O317  1  0.00096675  0.62001344  0.01121604  1
  O  O318  1  0.01197987  0.62437996  0.49904074  1
  O  O319  1  0.51485052  0.10890388  0.00942409  1
  O  O320  1  0.51253640  0.11945798  0.50114279  1
  O  O321  1  0.51062764  0.63556691  0.00966248  1
  O  O322  1  0.50684776  0.62622832  0.50281899  1
  O  O323  1  0.49374186  0.37352222  0.49345572  1
  O  O324  1  0.48694588  0.37425723  1.00148151  1
  O  O325  1  0.50328669  0.88524490  0.49096466  1
  O  O326  1  0.50480480  0.88735732  1.00691370  1
  O  O327  1  0.99202075  0.38699493  0.50122080  1
  O  O328  1  0.98997718  0.38247489  1.00317795  1
  O  O329  1  0.99783961  0.88103666  0.49624407  1
  O  O330  1  0.99608911  0.87946918  1.00072108  1
  O  O331  1  0.50749330  0.48168453  0.37607829  1
  O  O332  1  0.48295650  0.51841796  0.89154816  1
  O  O333  1  0.49867155  0.99211673  0.38059538  1
  O  O334  1  0.49123638  0.99760282  0.88842940  1
  O  O335  1  1.00330324  0.50483008  0.39566179  1
  O  O336  1  0.99911156  0.50183875  0.89722175  1
  O  O337  1  0.99501649  0.98971648  0.38358058  1
  O  O338  1  1.00215315  0.99843695  0.88876247  1
  O  O339  1  0.01221794  -0.00525410  0.11282438  1
  O  O340  1  -0.00084891  0.00859486  0.61358370  1
  O  O341  1  0.00376184  0.51161963  0.12287947  1
  O  O342  1  -0.00789209  0.50893568  0.60451015  1
  O  O343  1  0.50753293  0.00221020  0.12229579  1
  O  O344  1  0.50666991  0.00219704  0.61693213  1
  O  O345  1  0.51395684  0.51202627  0.13081521  1
  O  O346  1  0.50693275  0.51047653  0.61763096  1
  O  O347  1  0.24995261  0.36225693  0.24213188  1
  O  O348  1  0.24701384  0.37702569  0.73640056  1
  O  O349  1  0.24402168  0.88005757  0.24465259  1
  O  O350  1  0.24333330  0.87567599  0.73813703  1
  O  O351  1  0.74388202  0.37729656  0.24061606  1
  O  O352  1  0.73932145  0.38582993  0.74518798  1
  O  O353  1  0.75418352  0.88411674  0.24666215  1
  O  O354  1  0.75646007  0.88958728  0.75301055  1
  O  O355  1  0.25574250  0.11934492  0.25887231  1
  O  O356  1  0.24390112  0.12400249  0.75498518  1
  O  O357  1  0.24204949  0.63621196  0.26904701  1
  O  O358  1  0.25409108  0.63379862  0.75128871  1
  O  O359  1  0.75998091  0.11102788  0.25127454  1
  O  O360  1  0.75114627  0.11465193  0.76004997  1
  O  O361  1  0.75458897  0.62437855  0.26027274  1
  O  O362  1  0.75539890  0.62429921  0.75869117  1
  O  O363  1  0.37207928  0.11942416  0.36895063  1
  O  O364  1  0.37354788  0.10408729  0.88321510  1
  O  O365  1  0.35488922  0.62076242  0.38324023  1
  O  O366  1  0.36808127  0.62074504  0.86686456  1
  O  O367  1  0.87242285  0.11503143  0.36682168  1
  O  O368  1  0.86789144  0.12352275  0.87910709  1
  O  O369  1  0.86546487  0.63448088  0.36776438  1
  O  O370  1  0.86786004  0.62768028  0.86266228  1
  O  O371  1  0.12473221  0.39272697  0.12561075  1
  O  O372  1  0.14142553  0.37405895  0.62470206  1
  O  O373  1  0.13379714  0.88513126  0.13170595  1
  O  O374  1  0.13636958  0.87073885  0.63354378  1
  O  O375  1  0.63043155  0.37879433  0.12448951  1
  O  O376  1  0.62999505  0.38529185  0.62734658  1
  O  O377  1  0.63552618  0.87874382  0.12882567  1
  O  O378  1  0.62334590  0.88841727  0.62699384  1
  O  O379  1  0.11138587  0.23226943  0.24751307  1
  O  O380  1  0.12341059  0.25629741  0.75959373  1
  O  O381  1  0.11953731  0.76513922  0.24360841  1
  O  O382  1  0.11702554  0.75737718  0.75003177  1
  O  O383  1  0.62345143  0.25074061  0.25518962  1
  O  O384  1  0.62647333  0.24878237  0.76617220  1
  O  O385  1  0.61814596  0.75101145  0.25855936  1
  O  O386  1  0.60777581  0.74805569  0.74570876  1
  O  O387  1  0.38331994  0.24308025  0.24160850  1
  O  O388  1  0.37519186  0.25543119  0.74907070  1
  O  O389  1  0.38214433  0.75060368  0.23755772  1
  O  O390  1  0.38244995  0.74287638  0.74249222  1
  O  O391  1  0.88269838  0.23726114  0.24291698  1
  O  O392  1  0.87254308  0.24672979  0.74483134  1
  O  O393  1  0.88150710  0.74224319  0.24561993  1
  O  O394  1  0.87927323  0.74812082  0.74560454  1
  O  O395  1  0.37703455  0.48592823  0.49475108  1
  O  O396  1  0.36712635  0.48492929  0.99657991  1
  O  O397  1  0.39074935  1.00919302  0.49469222  1
  O  O398  1  0.38862115  0.99773777  1.00613772  1
  O  O399  1  0.87872378  0.50695433  0.49480061  1
  O  O400  1  0.88325451  0.48786117  1.01357604  1
  O  O401  1  0.88137380  0.99380634  0.49761988  1
  O  O402  1  0.88638126  0.99206779  1.00350605  1
  O  O403  1  0.12310983  0.00609366  0.00448559  1
  O  O404  1  0.11696644  0.00907794  0.49785996  1
  O  O405  1  0.11712029  0.50398610  0.01456153  1
  O  O406  1  0.12537556  0.51228105  0.50517956  1
  O  O407  1  0.62132083  0.00223852  0.00563569  1
  O  O408  1  0.61939392  0.00661554  0.50569190  1
  O  O409  1  0.62995273  0.51017544  0.00645957  1
  O  O410  1  0.62492168  0.50966308  0.50914557  1
  O  O411  1  0.37655130  0.36628943  0.11694561  1
  O  O412  1  0.37062801  0.36709528  0.62282726  1
  O  O413  1  0.36440743  0.86720675  0.13085082  1
  O  O414  1  0.36585898  0.86351285  0.62766252  1
  O  O415  1  0.86721131  0.36484987  0.12733356  1
  O  O416  1  0.85689640  0.37398878  0.62680812  1
  O  O417  1  0.87409464  0.86834518  0.11704031  1
  O  O418  1  0.88141605  0.87062657  0.61380792  1
  O  O419  1  0.13607820  0.11968043  0.38650592  1
  O  O420  1  0.12447436  0.14165463  0.88327039  1
  O  O421  1  0.13506762  0.62776778  0.38970221  1
  O  O422  1  0.13488466  0.62620519  0.87391946  1
  O  O423  1  0.62881434  0.13160858  0.38334010  1
  O  O424  1  0.63201502  0.12852109  0.88377455  1
  O  O425  1  0.63289529  0.63294448  0.38953955  1
  O  O426  1  0.63278069  0.62906359  0.88459304  1
