# generated using pymatgen
data_V85Zn86O256
_symmetry_space_group_name_H-M   'P 1'
_cell_length_a   16.96002118
_cell_length_b   16.97092420
_cell_length_c   16.97223840
_cell_angle_alpha   89.97372239
_cell_angle_beta   89.99642493
_cell_angle_gamma   89.93210723
_symmetry_Int_Tables_number   1
_chemical_formula_structural   V85Zn86O256
_chemical_formula_sum   'V85 Zn86 O256'
_cell_volume   4885.06847960
_cell_formula_units_Z   1
loop_
 _symmetry_equiv_pos_site_id
 _symmetry_equiv_pos_as_xyz
  1  'x, y, z'
loop_
 _atom_site_type_symbol
 _atom_site_label
 _atom_site_symmetry_multiplicity
 _atom_site_fract_x
 _atom_site_fract_y
 _atom_site_fract_z
 _atom_site_occupancy
  V  V0  1  0.62072941  0.37624766  0.24990453  1
  V  V1  1  0.87410128  0.00457258  0.37709645  1
  V  V2  1  0.74261783  0.37769500  0.11933268  1
  V  V3  1  0.74801894  0.00907196  0.24980177  1
  V  V4  1  0.87651333  0.12765423  0.25224154  1
  V  V5  1  0.01587125  0.00274074  0.50046412  1
  V  V6  1  0.12382991  0.74522235  0.87114167  1
  V  V7  1  0.12722959  0.24049877  0.88164861  1
  V  V8  1  0.87419560  0.12036643  0.75280664  1
  V  V9  1  0.49681132  0.75156325  0.25029723  1
  V  V10  1  0.37624139  0.00264780  0.38149534  1
  V  V11  1  0.12522243  0.61917295  0.00500111  1
  V  V12  1  0.61495811  0.62098867  0.49919910  1
  V  V13  1  0.63729575  0.23687072  0.37124523  1
  V  V14  1  0.74232933  0.74883547  0.50358990  1
  V  V15  1  0.12644628  0.87661017  0.24592558  1
  V  V16  1  0.25227021  0.75853998  0.51202023  1
  V  V17  1  0.87673955  0.62594791  0.74704913  1
  V  V18  1  0.37207661  0.74986418  0.12498133  1
  V  V19  1  0.38658872  -0.01471814  0.87424075  1
  V  V20  1  0.00554231  0.76150574  0.73589338  1
  V  V21  1  0.24820735  0.50092581  0.74957085  1
  V  V22  1  0.00228091  0.37355029  0.87571239  1
  V  V23  1  0.24400152  0.38479816  0.12355767  1
  V  V24  1  0.63312720  0.86654638  0.77490126  1
  V  V25  1  0.12424469  0.37378880  0.75114097  1
  V  V26  1  0.01120233  0.12053727  0.12053314  1
  V  V27  1  0.61834048  0.00380777  0.11056693  1
  V  V28  1  0.62200998  0.25068070  0.87918871  1
  V  V29  1  0.50679456  0.62281799  0.12520077  1
  V  V30  1  0.75539333  0.37776133  0.60783908  1
  V  V31  1  0.42868590  0.20144882  0.58066275  1
  V  V32  1  0.50644951  0.49972817  0.00238138  1
  V  V33  1  0.01548932  0.12174973  0.62232929  1
  V  V34  1  0.75116620  0.49566944  0.74748088  1
  V  V35  1  0.00063442  0.74866537  0.25259824  1
  V  V36  1  0.61735065  0.49871872  0.62116951  1
  V  V37  1  0.38426600  0.49974459  0.37968798  1
  V  V38  1  -0.00310609  0.37308427  0.37975934  1
  V  V39  1  0.24821559  0.74878717  0.00072936  1
  V  V40  1  0.00224865  0.49863032  0.00195685  1
  V  V41  1  0.86932750  0.49782291  0.37640060  1
  V  V42  1  0.38131141  0.49867666  0.87465891  1
  V  V43  1  0.00214355  0.61691754  0.12782392  1
  V  V44  1  0.74457349  0.62885568  0.87484331  1
  V  V45  1  0.37513942  0.25258306  0.12857694  1
  V  V46  1  0.25426585  0.37179367  0.62448675  1
  V  V47  1  0.87212921  0.37425116  -0.00009405  1
  V  V48  1  0.00172233  0.25208673  0.24748298  1
  V  V49  1  0.49534463  0.87987324  0.38185106  1
  V  V50  1  0.87410209  0.87701609  0.50129574  1
  V  V51  1  0.25422887  0.11650156  0.87301710  1
  V  V52  1  0.23851816  0.24752427  0.50474791  1
  V  V53  1  0.38820753  0.87259082  -0.00572579  1
  V  V54  1  0.49891282  0.75689000  0.75771422  1
  V  V55  1  0.00058947  0.87558288  0.37498428  1
  V  V56  1  0.24858491  0.00405767  0.24832687  1
  V  V57  1  0.24095315  0.12697739  0.37805631  1
  V  V58  1  0.24935084  0.62439563  0.87431111  1
  V  V59  1  -0.00086623  0.24610868  0.75029426  1
  V  V60  1  0.75160680  -0.00521672  0.75907645  1
  V  V61  1  0.62232421  0.75090685  0.37631859  1
  V  V62  1  0.48730047  0.26839562  0.76626995  1
  V  V63  1  0.68970114  0.93166023  0.57930622  1
  V  V64  1  0.87716004  0.49984922  0.87386161  1
  V  V65  1  0.37731965  0.37556133  -0.00121528  1
  V  V66  1  -0.00085460  0.62292180  0.61616943  1
  V  V67  1  0.12050111  0.38810876  0.24552796  1
  V  V68  1  -0.00812240  0.49572536  0.50027566  1
  V  V69  1  0.74925134  0.23200329  -0.00587839  1
  V  V70  1  0.62393676  0.87759886  0.24815077  1
  V  V71  1  0.75189877  0.87571910  0.12797593  1
  V  V72  1  0.87044854  0.75416574  0.62141376  1
  V  V73  1  0.24077333  0.62456653  0.38328705  1
  V  V74  1  0.87768995  0.25046612  0.61200921  1
  V  V75  1  0.12387533  0.50044497  0.61731663  1
  V  V76  1  0.24687513  -0.00611048  0.73435706  1
  V  V77  1  0.69631100  0.19314486  0.55514877  1
  V  V78  1  0.40086059  0.10758238  0.74422314  1
  V  V79  1  0.87417299  0.74746535  0.12459800  1
  V  V80  1  0.24688242  0.88655932  0.11867249  1
  V  V81  1  0.74458317  0.50216897  0.24419129  1
  V  V82  1  0.87718226  0.87757253  0.00297301  1
  V  V83  1  0.00063688  0.87467376  0.87872984  1
  V  V84  1  0.37712327  0.62886192  0.74252361  1
  Zn  Zn85  1  0.50082638  0.24959205  0.24876200  1
  Zn  Zn86  1  0.49425286  0.62527390  0.62246001  1
  Zn  Zn87  1  0.37571833  0.87818666  0.51291692  1
  Zn  Zn88  1  0.51232129  0.13328355  0.11741852  1
  Zn  Zn89  1  0.36975151  0.62474954  0.25237956  1
  Zn  Zn90  1  0.01269152  0.00075405  0.00086604  1
  Zn  Zn91  1  0.24963972  0.24570166  0.00227660  1
  Zn  Zn92  1  0.37543166  0.12808671  0.24789653  1
  Zn  Zn93  1  0.62384785  0.62842351  -0.00157252  1
  Zn  Zn94  1  0.24735157  0.50522067  0.25097718  1
  Zn  Zn95  1  0.37803339  0.37954833  0.50330047  1
  Zn  Zn96  1  0.74765597  0.62556000  0.37274464  1
  Zn  Zn97  1  0.50688101  0.37379159  0.38832643  1
  Zn  Zn98  1  0.87350768  0.24885540  0.12344684  1
  Zn  Zn99  1  0.12360977  0.25008680  0.37609535  1
  Zn  Zn100  1  0.62380114  0.37932874  0.75409266  1
  Zn  Zn101  1  0.74556577  0.75623603  -0.01064956  1
  Zn  Zn102  1  0.87894178  0.00811142  0.88136933  1
  Zn  Zn103  1  0.13733115  0.87381079  0.74221851  1
  Zn  Zn104  1  0.17997986  0.06787917  0.05258287  1
  Zn  Zn105  1  0.12272755  0.74727813  0.38544123  1
  Zn  Zn106  1  0.87181485  0.62474352  0.25143920  1
  Zn  Zn107  1  0.19070134  0.19775472  0.19141179  1
  Zn  Zn108  1  0.19575642  0.18620253  0.69504901  1
  Zn  Zn109  1  0.18673049  0.68734182  0.19045229  1
  Zn  Zn110  1  0.18529810  0.68144344  0.68320340  1
  Zn  Zn111  1  0.68874765  0.18910068  0.18371158  1
  Zn  Zn112  1  0.66967017  0.17149499  0.73337019  1
  Zn  Zn113  1  0.68572739  0.68840004  0.18572486  1
  Zn  Zn114  1  0.68326715  0.68771098  0.68788901  1
  Zn  Zn115  1  0.30873245  0.31769003  0.31301482  1
  Zn  Zn116  1  0.30909599  0.31348477  0.81655282  1
  Zn  Zn117  1  0.31028108  0.81168208  0.31608871  1
  Zn  Zn118  1  0.32453753  0.81604453  0.68399644  1
  Zn  Zn119  1  0.81093432  0.31528781  0.31216259  1
  Zn  Zn120  1  0.81268955  0.30950500  0.81143313  1
  Zn  Zn121  1  0.81214094  0.81474542  0.31439441  1
  Zn  Zn122  1  0.81959003  0.81392768  0.81038755  1
  Zn  Zn123  1  0.18533423  0.43679967  0.43745382  1
  Zn  Zn124  1  0.18934643  0.43754676  0.93735202  1
  Zn  Zn125  1  0.19159481  0.93150538  0.43273489  1
  Zn  Zn126  1  0.19028313  0.93181234  0.92908521  1
  Zn  Zn127  1  0.68346492  0.43695499  0.43390650  1
  Zn  Zn128  1  0.68633767  0.43794874  0.93470195  1
  Zn  Zn129  1  0.68124322  0.94863008  0.41859735  1
  Zn  Zn130  1  0.69484014  0.94177804  0.93913189  1
  Zn  Zn131  1  0.36246756  0.08353839  0.03640028  1
  Zn  Zn132  1  0.30852875  0.06234124  0.55784782  1
  Zn  Zn133  1  0.31619196  0.56251793  0.06408205  1
  Zn  Zn134  1  0.30868704  0.56429347  0.55811671  1
  Zn  Zn135  1  0.81988987  0.05974474  0.06914592  1
  Zn  Zn136  1  0.82519759  0.06120317  0.57085131  1
  Zn  Zn137  1  0.81331534  0.56130696  0.06171086  1
  Zn  Zn138  1  0.80773650  0.56465690  0.55896322  1
  Zn  Zn139  1  0.43222082  0.44075028  0.18963196  1
  Zn  Zn140  1  0.43640020  0.44071860  0.68771941  1
  Zn  Zn141  1  0.43486548  0.93726292  0.18753217  1
  Zn  Zn142  1  0.45254394  0.94017318  0.68972901  1
  Zn  Zn143  1  0.92928536  0.43641026  0.18816727  1
  Zn  Zn144  1  0.93490972  0.43275336  0.68726833  1
  Zn  Zn145  1  0.93977683  0.94065644  0.18755915  1
  Zn  Zn146  1  0.95158322  0.93371387  0.68453683  1
  Zn  Zn147  1  0.06420723  0.06158937  0.30966081  1
  Zn  Zn148  1  0.06573548  0.05852802  0.81231731  1
  Zn  Zn149  1  0.06067635  0.56392683  0.31738804  1
  Zn  Zn150  1  0.05997384  0.56443757  0.80734625  1
  Zn  Zn151  1  0.55664485  0.06670878  0.30402957  1
  Zn  Zn152  1  0.55939795  0.05782581  0.79662233  1
  Zn  Zn153  1  0.56213818  0.56435711  0.31017353  1
  Zn  Zn154  1  0.56183346  0.56197524  0.81088030  1
  Zn  Zn155  1  0.43759814  0.19288966  0.41854761  1
  Zn  Zn156  1  0.44212330  0.18865050  0.93302228  1
  Zn  Zn157  1  0.43072914  0.68791902  0.43717431  1
  Zn  Zn158  1  0.43781532  0.68696339  0.93431906  1
  Zn  Zn159  1  0.94128845  0.18445975  0.43739011  1
  Zn  Zn160  1  0.93765897  0.18803485  0.93883417  1
  Zn  Zn161  1  0.93420011  0.68469626  0.43753047  1
  Zn  Zn162  1  0.93612266  0.68781965  0.93742603  1
  Zn  Zn163  1  0.06399741  0.31032889  0.06374565  1
  Zn  Zn164  1  0.06211178  0.31336354  0.56324810  1
  Zn  Zn165  1  0.06368218  0.80860248  0.06413862  1
  Zn  Zn166  1  0.06524422  0.81449423  0.56207900  1
  Zn  Zn167  1  0.56216106  0.31275118  0.05860976  1
  Zn  Zn168  1  0.56504002  0.31878223  0.56371749  1
  Zn  Zn169  1  0.56808334  0.81004489  0.06102876  1
  Zn  Zn170  1  0.54597944  0.80868842  0.57042511  1
  O  O171  1  0.11633271  0.13281647  0.12683580  1
  O  O172  1  0.11331810  0.13166139  0.63114608  1
  O  O173  1  0.11460481  0.63089413  0.11675111  1
  O  O174  1  0.11195989  0.61221718  0.62745957  1
  O  O175  1  0.62831934  0.10821920  0.12697811  1
  O  O176  1  0.64035181  0.14661425  0.62296270  1
  O  O177  1  0.60969753  0.62456698  0.12790018  1
  O  O178  1  0.62895825  0.61411276  0.61593492  1
  O  O179  1  0.37206766  0.39102580  0.37644886  1
  O  O180  1  0.36578817  0.38813299  0.88555923  1
  O  O181  1  0.38104610  0.88462185  0.37323559  1
  O  O182  1  0.37462764  0.88195886  0.88185370  1
  O  O183  1  0.88492455  0.38682884  0.36779334  1
  O  O184  1  0.88241412  0.37924685  0.87936816  1
  O  O185  1  0.88119560  0.88366906  0.38035347  1
  O  O186  1  0.87777388  0.87015508  0.89521811  1
  O  O187  1  0.25547656  0.00677295  0.36770637  1
  O  O188  1  0.25470857  0.00779284  0.86787148  1
  O  O189  1  0.25057986  0.51268749  0.37705787  1
  O  O190  1  0.25553304  0.50650942  0.86881005  1
  O  O191  1  0.76534875  -0.00066072  0.36478033  1
  O  O192  1  0.76228128  -0.00373114  0.86459807  1
  O  O193  1  0.75651693  0.49979513  0.36754945  1
  O  O194  1  0.75789561  0.50597539  0.86628323  1
  O  O195  1  0.25522273  0.48987163  0.12918711  1
  O  O196  1  0.23801435  0.49669439  0.62694459  1
  O  O197  1  0.24897673  0.99093961  0.12874723  1
  O  O198  1  0.25220540  1.00291054  0.63548446  1
  O  O199  1  0.75394070  0.49186643  0.13244171  1
  O  O200  1  0.74737503  0.49487249  0.63092304  1
  O  O201  1  0.74459381  0.99436142  0.13256224  1
  O  O202  1  0.75522179  0.98997438  0.63445287  1
  O  O203  1  0.00176767  0.36963030  0.25328682  1
  O  O204  1  0.00469456  0.36722630  0.75591557  1
  O  O205  1  0.00632685  0.86974727  0.25321561  1
  O  O206  1  -0.03275923  0.86541730  0.77853193  1
  O  O207  1  0.51585245  0.38030145  0.24497045  1
  O  O208  1  0.49871343  0.37191449  0.75430952  1
  O  O209  1  0.50170124  0.86503039  0.25496745  1
  O  O210  1  0.51741590  0.86318402  0.75668134  1
  O  O211  1  0.49237370  0.12977792  0.23592710  1
  O  O212  1  0.49400119  0.15617926  0.77430865  1
  O  O213  1  0.49605905  0.63681195  0.24485639  1
  O  O214  1  0.48969796  0.62563741  0.74893108  1
  O  O215  1  0.99856170  0.13353781  0.24282294  1
  O  O216  1  0.99832617  0.12606937  0.73929362  1
  O  O217  1  0.99841228  0.63170232  0.24433293  1
  O  O218  1  0.99477293  0.63348308  0.73562498  1
  O  O219  1  0.37107207  0.26327959  0.00516862  1
  O  O220  1  0.36652444  0.25090863  0.50926495  1
  O  O221  1  0.36899595  0.75347269  0.00507366  1
  O  O222  1  0.35747497  0.75321265  0.49627053  1
  O  O223  1  0.86372234  0.25582821  -0.00143283  1
  O  O224  1  0.88233202  0.24643981  0.51251621  1
  O  O225  1  0.87221862  0.75483169  0.01070091  1
  O  O226  1  0.86342939  0.75592626  0.50158767  1
  O  O227  1  0.13458152  0.25449026  0.49580370  1
  O  O228  1  0.12843110  0.25465718  0.98535569  1
  O  O229  1  0.14132287  0.75868989  0.50081945  1
  O  O230  1  0.12514483  0.73708085  0.99340339  1
  O  O231  1  0.63239483  0.24815170  0.49157189  1
  O  O232  1  0.63500591  0.24861840  0.99039050  1
  O  O233  1  0.62835116  0.74650159  0.49780402  1
  O  O234  1  0.63710239  0.74042136  1.01205967  1
  O  O235  1  0.48944883  0.25409114  0.12646219  1
  O  O236  1  0.49263658  0.25762290  0.64020491  1
  O  O237  1  0.49105310  0.74660594  0.13298659  1
  O  O238  1  0.51216248  0.73702647  0.64965913  1
  O  O239  1  0.99739242  0.24216199  0.13216818  1
  O  O240  1  0.99647639  0.24241144  0.62961470  1
  O  O241  1  0.99071744  0.74153470  0.13210071  1
  O  O242  1  0.98678748  0.73511228  0.61529675  1
  O  O243  1  -0.00026099  0.25789752  0.36773572  1
  O  O244  1  0.00846790  0.25289212  0.87092382  1
  O  O245  1  0.00007636  0.75360938  0.36897843  1
  O  O246  1  0.00985365  0.75085600  0.86920543  1
  O  O247  1  0.51443173  0.25580516  0.36645761  1
  O  O248  1  0.50807826  0.26441547  0.87698016  1
  O  O249  1  0.50124571  0.75567925  0.36660752  1
  O  O250  1  0.50543361  0.73520489  0.85645785  1
  O  O251  1  0.25146504  0.13536303  0.49140962  1
  O  O252  1  0.25908972  0.12503953  0.99041471  1
  O  O253  1  0.24945529  0.63708593  0.49005759  1
  O  O254  1  0.24214525  0.62768540  0.99794663  1
  O  O255  1  0.75378976  0.12663093  0.50804610  1
  O  O256  1  0.75961560  0.13441613  1.00234504  1
  O  O257  1  0.73859368  0.63447932  0.49452012  1
  O  O258  1  0.75310562  0.61997888  0.98317263  1
  O  O259  1  0.25834533  0.37762237  0.00730058  1
  O  O260  1  0.25027824  0.36707909  0.50763389  1
  O  O261  1  0.25409307  0.86492491  0.00622454  1
  O  O262  1  0.25594431  0.86405520  0.49903823  1
  O  O263  1  0.75538562  0.37589018  0.00557718  1
  O  O264  1  0.75428656  0.38454101  0.50899913  1
  O  O265  1  0.76092471  0.87473846  0.01045323  1
  O  O266  1  0.74773968  0.87305877  0.50729739  1
  O  O267  1  0.12103193  0.49115128  0.25143031  1
  O  O268  1  0.12790579  0.49463980  0.74065309  1
  O  O269  1  0.13735725  0.99016313  0.25280274  1
  O  O270  1  0.14264096  0.99651927  0.75159882  1
  O  O271  1  0.63708148  0.49369693  0.25591965  1
  O  O272  1  0.63463822  0.49861327  0.74206845  1
  O  O273  1  0.63594146  0.99525328  0.25167053  1
  O  O274  1  0.63806594  0.98143625  0.75777834  1
  O  O275  1  0.36027794  -0.00129072  0.25402107  1
  O  O276  1  0.36075623  -0.00436019  0.76258741  1
  O  O277  1  0.36879948  0.50381233  0.26375257  1
  O  O278  1  0.36839585  0.50596156  0.75873561  1
  O  O279  1  0.87066008  0.00714280  0.25588866  1
  O  O280  1  0.87226387  0.00518241  0.74771987  1
  O  O281  1  0.86235700  0.50129843  0.25728905  1
  O  O282  1  0.87072914  0.50610326  0.75270995  1
  O  O283  1  0.11163197  0.37601308  0.36621001  1
  O  O284  1  0.12067003  0.36924782  0.86948492  1
  O  O285  1  0.11989509  0.87056449  0.36101547  1
  O  O286  1  0.11561545  0.86271037  0.86647026  1
  O  O287  1  0.62521111  0.36771347  0.36481720  1
  O  O288  1  0.63538745  0.35857202  0.87194071  1
  O  O289  1  0.61531822  0.87092187  0.36645667  1
  O  O290  1  0.63397345  0.86832876  0.87349356  1
  O  O291  1  0.35445205  0.14896063  0.13152627  1
  O  O292  1  0.36863574  0.13365840  0.63303701  1
  O  O293  1  0.37894153  0.63885287  0.12733864  1
  O  O294  1  0.37341036  0.61500362  0.63859306  1
  O  O295  1  0.88745743  0.12708208  0.13811188  1
  O  O296  1  0.88725289  0.13381782  0.63548774  1
  O  O297  1  0.88184346  0.63261431  0.12715749  1
  O  O298  1  0.87846467  0.63048034  0.62688840  1
  O  O299  1  0.25290098  0.26785583  0.12296411  1
  O  O300  1  0.24311937  0.25999463  0.61955898  1
  O  O301  1  0.25620803  0.75617679  0.12137804  1
  O  O302  1  0.25067682  0.74964499  0.61802498  1
  O  O303  1  0.75073838  0.25594419  0.10927896  1
  O  O304  1  0.75779636  0.25827904  0.61656392  1
  O  O305  1  0.76498771  0.75621494  0.13347524  1
  O  O306  1  0.75651350  0.74351406  0.61252225  1
  O  O307  1  0.24877043  0.24394383  0.38342126  1
  O  O308  1  0.24392891  0.23598285  0.87397380  1
  O  O309  1  0.24681651  0.73974578  0.38126090  1
  O  O310  1  0.23353719  0.74096397  0.88379959  1
  O  O311  1  0.73709463  0.25188398  0.37144121  1
  O  O312  1  0.74573092  0.25085595  0.88852655  1
  O  O313  1  0.74219659  0.75330248  0.38622474  1
  O  O314  1  0.76262081  0.73146777  0.87245138  1
  O  O315  1  -0.00319306  0.12589107  0.01763077  1
  O  O316  1  0.00100536  0.11759850  0.51208591  1
  O  O317  1  0.00535723  0.61966417  0.00791748  1
  O  O318  1  -0.00507279  0.61418589  0.50883267  1
  O  O319  1  0.46901725  0.11921691  0.01452229  1
  O  O320  1  0.48422971  0.14822737  0.51884365  1
  O  O321  1  0.49835410  0.61896376  0.00853672  1
  O  O322  1  0.51076903  0.63389516  0.50260112  1
  O  O323  1  0.49092997  0.36963220  0.50062706  1
  O  O324  1  0.48639069  0.38590768  1.00739018  1
  O  O325  1  0.49887976  0.86841233  0.48410839  1
  O  O326  1  0.48673129  0.86778065  1.00588735  1
  O  O327  1  1.00029063  0.38061007  0.48985622  1
  O  O328  1  0.99487553  0.37949739  0.99648722  1
  O  O329  1  0.99454275  0.88200768  0.49180098  1
  O  O330  1  0.99552410  0.86983987  0.99344524  1
  O  O331  1  0.48722315  0.50007072  0.37151838  1
  O  O332  1  0.48736080  0.50722841  0.88326238  1
  O  O333  1  0.48921482  0.99188216  0.36468752  1
  O  O334  1  0.48464924  0.99967010  0.86839413  1
  O  O335  1  0.99263372  0.49483230  0.38288103  1
  O  O336  1  0.99595158  0.49437781  0.87877732  1
  O  O337  1  0.99231830  0.99744443  0.37909741  1
  O  O338  1  0.99897777  0.98911872  0.87822419  1
  O  O339  1  0.00328864  0.01745947  0.12930265  1
  O  O340  1  -0.00153941  0.01410857  0.61501722  1
  O  O341  1  -0.00766934  0.51179104  0.12261854  1
  O  O342  1  0.00084024  0.50137700  0.61800583  1
  O  O343  1  0.51761606  -0.00545555  0.13091232  1
  O  O344  1  0.48243826  0.04523292  0.69836032  1
  O  O345  1  0.48758836  0.51271614  0.11572750  1
  O  O346  1  0.51435089  0.50247291  0.62920817  1
  O  O347  1  0.23583753  0.37948104  0.24403711  1
  O  O348  1  0.24301155  0.38096622  0.74468682  1
  O  O349  1  0.24319781  0.87994281  0.24281811  1
  O  O350  1  0.25155746  0.88684015  0.74233236  1
  O  O351  1  0.74232280  0.38153814  0.24026205  1
  O  O352  1  0.75451200  0.38806454  0.74513067  1
  O  O353  1  0.74727068  0.88583142  0.24632521  1
  O  O354  1  0.74196417  0.87609242  0.75324326  1
  O  O355  1  0.24804634  0.11826322  0.25627497  1
  O  O356  1  0.26467018  0.11417603  0.75444895  1
  O  O357  1  0.24894691  0.62599276  0.26421807  1
  O  O358  1  0.25507659  0.61902207  0.75422927  1
  O  O359  1  0.76170911  0.11647145  0.24228207  1
  O  O360  1  0.76299344  0.10876759  0.74402408  1
  O  O361  1  0.75001896  0.61709241  0.25110311  1
  O  O362  1  0.75540527  0.61502689  0.75627765  1
  O  O363  1  0.36455785  0.11880481  0.36883651  1
  O  O364  1  0.37127869  0.11252632  0.86403763  1
  O  O365  1  0.36444966  0.61569132  0.37428097  1
  O  O366  1  0.36623428  0.61858393  0.86671393  1
  O  O367  1  0.88438994  0.11802910  0.36160596  1
  O  O368  1  0.88727717  0.12521916  0.85807053  1
  O  O369  1  0.87216891  0.61170734  0.37254917  1
  O  O370  1  0.87275293  0.61748780  0.86704276  1
  O  O371  1  0.13032579  0.37478083  0.13231253  1
  O  O372  1  0.13014679  0.38208699  0.63198136  1
  O  O373  1  0.13359150  0.86571647  0.13669362  1
  O  O374  1  0.05589117  0.85671374  0.66587500  1
  O  O375  1  0.63683978  0.36992850  0.12978356  1
  O  O376  1  0.63849385  0.38316405  0.62752946  1
  O  O377  1  0.63217498  0.88431380  0.13141287  1
  O  O378  1  0.62352029  0.87544219  0.63076109  1
  O  O379  1  0.11261031  0.26142217  0.25297802  1
  O  O380  1  0.12004586  0.25442997  0.76043694  1
  O  O381  1  0.11141592  0.75516504  0.25102064  1
  O  O382  1  0.12219428  0.74445309  0.75783939  1
  O  O383  1  0.62829336  0.25770175  0.25602986  1
  O  O384  1  0.60813747  0.26383601  0.75860232  1
  O  O385  1  0.61701853  0.75724865  0.25416456  1
  O  O386  1  0.62566892  0.76142211  0.75363633  1
  O  O387  1  0.37643022  0.25724053  0.24225303  1
  O  O388  1  0.38526304  0.25004499  0.75815452  1
  O  O389  1  0.38041734  0.75153126  0.24205417  1
  O  O390  1  0.38809923  0.74253973  0.75047146  1
  O  O391  1  0.88443218  0.24460360  0.25002218  1
  O  O392  1  0.88216115  0.24255034  0.74339438  1
  O  O393  1  0.88605346  0.75074120  0.24609426  1
  O  O394  1  0.87942453  0.74384232  0.73618352  1
  O  O395  1  0.36920436  0.50120757  0.48416192  1
  O  O396  1  0.38090885  0.49690808  0.99222524  1
  O  O397  1  0.37160520  0.99845956  0.48552928  1
  O  O398  1  0.36530879  0.98310079  0.98335834  1
  O  O399  1  0.88343403  0.50210891  0.49307097  1
  O  O400  1  0.88303862  0.49354913  0.99392852  1
  O  O401  1  0.88188479  0.99493739  0.49257150  1
  O  O402  1  0.88541375  0.99104867  1.00278314  1
  O  O403  1  0.12520465  -0.01243683  0.00093383  1
  O  O404  1  0.11461903  -0.00851545  0.49369540  1
  O  O405  1  0.11905393  0.51187638  -0.00456359  1
  O  O406  1  0.11097725  0.49284131  0.51089045  1
  O  O407  1  0.62768503  -0.00285721  0.01223631  1
  O  O408  1  0.63805514  -0.01073707  0.51626409  1
  O  O409  1  0.60975060  0.50308283  -0.00611279  1
  O  O410  1  0.63048137  0.51002854  0.50720692  1
  O  O411  1  0.36624723  0.37111121  0.11958725  1
  O  O412  1  0.35662817  0.38782682  0.62564410  1
  O  O413  1  0.36576547  0.86731089  0.11810086  1
  O  O414  1  0.40153834  0.87093809  0.62333503  1
  O  O415  1  0.86351213  0.37052886  0.11849774  1
  O  O416  1  0.86661453  0.36248410  0.62980098  1
  O  O417  1  0.87617724  0.86862307  0.11958315  1
  O  O418  1  0.88119288  0.86085829  0.61698163  1
  O  O419  1  0.13657674  0.12764100  0.37036995  1
  O  O420  1  0.13606969  0.13087766  0.86919167  1
  O  O421  1  0.13590673  0.62694670  0.37655036  1
  O  O422  1  0.12682976  0.62777342  0.88090381  1
  O  O423  1  0.62485116  0.13772853  0.36758899  1
  O  O424  1  0.62954814  0.14936686  0.85157874  1
  O  O425  1  0.62433970  0.63327810  0.38146377  1
  O  O426  1  0.64246932  0.61840569  0.87303613  1
