# generated using pymatgen
data_V85Zn86O256
_symmetry_space_group_name_H-M   'P 1'
_cell_length_a   16.96611162
_cell_length_b   16.97110848
_cell_length_c   16.97344056
_cell_angle_alpha   89.91943000
_cell_angle_beta   89.96978359
_cell_angle_gamma   89.96433241
_symmetry_Int_Tables_number   1
_chemical_formula_structural   V85Zn86O256
_chemical_formula_sum   'V85 Zn86 O256'
_cell_volume   4887.21943855
_cell_formula_units_Z   1
loop_
 _symmetry_equiv_pos_site_id
 _symmetry_equiv_pos_as_xyz
  1  'x, y, z'
loop_
 _atom_site_type_symbol
 _atom_site_label
 _atom_site_symmetry_multiplicity
 _atom_site_fract_x
 _atom_site_fract_y
 _atom_site_fract_z
 _atom_site_occupancy
  V  V0  1  0.24561391  0.25268309  0.48827395  1
  V  V1  1  0.00825067  0.49702068  0.00197921  1
  V  V2  1  0.12473872  0.87565886  0.25352826  1
  V  V3  1  0.75655164  0.12953763  0.37128657  1
  V  V4  1  -0.00794782  0.87090127  0.38229119  1
  V  V5  1  0.12629521  0.49131209  0.62737800  1
  V  V6  1  0.74744648  0.50543734  0.74998467  1
  V  V7  1  0.75096360  0.87703969  0.12285354  1
  V  V8  1  0.00045897  0.00537172  -0.00166896  1
  V  V9  1  0.87960574  0.50488435  0.36697825  1
  V  V10  1  0.75304087  0.00714685  0.24353396  1
  V  V11  1  0.63344058  0.49785754  0.12012744  1
  V  V12  1  0.74746002  0.75071350  -0.00601132  1
  V  V13  1  0.24848784  0.49591971  0.75191018  1
  V  V14  1  0.61981480  0.00033919  0.12351712  1
  V  V15  1  0.23631791  0.86311262  0.63019157  1
  V  V16  1  0.00787541  0.37161215  0.86692089  1
  V  V17  1  0.36784728  0.25714023  0.12631113  1
  V  V18  1  0.61945458  0.12402055  0.00091079  1
  V  V19  1  0.45114321  0.18338283  0.68196622  1
  V  V20  1  0.13231647  0.13222140  -0.00838302  1
  V  V21  1  0.37883961  0.88480656  -0.00176213  1
  V  V22  1  0.25838311  0.37006847  0.62810082  1
  V  V23  1  0.75079830  0.62379320  0.36440016  1
  V  V24  1  0.87411182  0.50331095  0.87419648  1
  V  V25  1  0.86892883  0.25007917  0.63795191  1
  V  V26  1  0.87363784  0.37342397  -0.00012061  1
  V  V27  1  0.12555339  0.36110646  0.24402570  1
  V  V28  1  0.12674557  0.74859545  0.37399510  1
  V  V29  1  0.37233322  0.01076238  0.37708091  1
  V  V30  1  0.49152398  0.12154127  0.13016719  1
  V  V31  1  -0.00057264  0.62340654  0.63042045  1
  V  V32  1  -0.00080237  0.50003981  0.50000019  1
  V  V33  1  0.12583610  0.62592456  0.00176103  1
  V  V34  1  0.62236880  0.50409100  0.62166304  1
  V  V35  1  0.63983360  0.86705220  0.74591512  1
  V  V36  1  0.87793772  -0.00022309  0.36795308  1
  V  V37  1  0.62612157  0.25676979  0.37392025  1
  V  V38  1  0.49803358  0.49936270  -0.00173753  1
  V  V39  1  0.68132575  0.79622747  0.43245341  1
  V  V40  1  0.25238675  0.00648114  0.25340970  1
  V  V41  1  0.50076335  0.62580841  0.12348421  1
  V  V42  1  0.36402048  0.00776175  0.86143733  1
  V  V43  1  0.62339439  0.63057805  -0.00841696  1
  V  V44  1  0.87783860  0.87556940  -0.00043278  1
  V  V45  1  0.12430576  0.00286708  0.12577852  1
  V  V46  1  -0.01115686  0.13344961  0.12775273  1
  V  V47  1  0.37689787  0.74959162  0.62722704  1
  V  V48  1  0.25174413  0.74756445  0.49641046  1
  V  V49  1  0.80496579  0.32105900  0.17224831  1
  V  V50  1  0.50428336  0.74887931  0.76112494  1
  V  V51  1  0.24583393  0.75357449  -0.00515804  1
  V  V52  1  0.49282735  0.50328598  0.48935330  1
  V  V53  1  0.74651988  0.25785203  -0.00099869  1
  V  V54  1  0.49478903  0.24704182  0.25051471  1
  V  V55  1  -0.01055222  0.12613769  0.63070060  1
  V  V56  1  0.00598484  0.74425421  0.75759201  1
  V  V57  1  0.62729161  0.62538287  0.48997968  1
  V  V58  1  0.11777578  0.12677610  0.49716647  1
  V  V59  1  0.24693375  0.62879603  0.87188715  1
  V  V60  1  0.49225512  0.87443507  0.37823617  1
  V  V61  1  0.61740193  0.37595478  0.74820872  1
  V  V62  1  0.37435380  0.75168839  0.12514221  1
  V  V63  1  0.37532970  0.61585241  0.25189408  1
  V  V64  1  0.17000272  0.03463317  0.64072669  1
  V  V65  1  -0.06230054  -0.05253329  0.54572042  1
  V  V66  1  0.87768160  0.37923797  0.50322570  1
  V  V67  1  0.25076876  0.87589862  0.12721196  1
  V  V68  1  0.01289793  0.86918694  0.88104910  1
  V  V69  1  0.74725574  0.38130858  0.62437636  1
  V  V70  1  0.49441089  0.37296669  0.87168182  1
  V  V71  1  0.23968756  0.49529448  0.23236118  1
  V  V72  1  0.62673371  0.87239927  0.24976030  1
  V  V73  1  0.74844938  0.25301313  0.50237670  1
  V  V74  1  0.50999334  0.88396272  0.87827022  1
  V  V75  1  0.87598117  0.74403254  0.12761535  1
  V  V76  1  0.75129587  0.01279556  0.74697525  1
  V  V77  1  0.37214296  0.37708891  0.48892798  1
  V  V78  1  0.00205580  0.62020691  0.12938530  1
  V  V79  1  0.61782281  0.24841312  0.87043497  1
  V  V80  1  0.50430802  0.74776585  0.25298411  1
  V  V81  1  0.62335497  0.37632751  0.24028342  1
  V  V82  1  0.50167453  0.62953419  0.62284534  1
  V  V83  1  0.25325609  0.61324022  0.37383578  1
  V  V84  1  0.00091214  0.74709894  0.24710065  1
  Zn  Zn85  1  0.37484485  0.62508424  0.75198920  1
  Zn  Zn86  1  0.00071048  0.24425017  0.75347997  1
  Zn  Zn87  1  0.24318290  0.13039687  0.37254390  1
  Zn  Zn88  1  0.12581021  0.62131181  0.50040977  1
  Zn  Zn89  1  0.37065467  0.88232879  0.50212323  1
  Zn  Zn90  1  0.75992603  0.50187428  0.24137319  1
  Zn  Zn91  1  0.14549453  0.25350865  0.85880878  1
  Zn  Zn92  1  0.87408717  0.00781918  0.87406975  1
  Zn  Zn93  1  0.49471689  0.38196233  0.36917689  1
  Zn  Zn94  1  0.37248292  0.49916746  0.87299689  1
  Zn  Zn95  1  0.75437222  0.12957968  0.87361636  1
  Zn  Zn96  1  0.86888200  0.63656905  0.74624461  1
  Zn  Zn97  1  -0.00021489  0.24294497  0.25216484  1
  Zn  Zn98  1  0.61893660  0.12932371  0.50751394  1
  Zn  Zn99  1  0.83964550  0.78539097  0.56402547  1
  Zn  Zn100  1  0.01598815  0.35965083  0.38253964  1
  Zn  Zn101  1  0.36784626  0.37854367  0.00345834  1
  Zn  Zn102  1  0.48336553  0.03652974  0.53517674  1
  Zn  Zn103  1  0.12824091  0.87516628  0.75546087  1
  Zn  Zn104  1  0.74658129  0.62989978  0.87257815  1
  Zn  Zn105  1  0.25525222  0.25592256  -0.00935049  1
  Zn  Zn106  1  0.62278202  0.00285376  0.62476362  1
  Zn  Zn107  1  0.18378045  0.18404980  0.18293479  1
  Zn  Zn108  1  0.18708406  0.20043244  0.68518022  1
  Zn  Zn109  1  0.18826102  0.68492253  0.18535440  1
  Zn  Zn110  1  0.17986003  0.68496299  0.68951947  1
  Zn  Zn111  1  0.68059150  0.18230534  0.19137494  1
  Zn  Zn112  1  0.67252229  0.18777628  0.68517702  1
  Zn  Zn113  1  0.68728212  0.68682673  0.18255468  1
  Zn  Zn114  1  0.68895741  0.69672319  0.67994320  1
  Zn  Zn115  1  0.31044257  0.31641592  0.30912484  1
  Zn  Zn116  1  0.32325076  0.29765174  0.80499232  1
  Zn  Zn117  1  0.31401290  0.81198263  0.31120545  1
  Zn  Zn118  1  0.31685780  0.81428906  0.81391099  1
  Zn  Zn119  1  0.85264171  0.28907127  0.34285730  1
  Zn  Zn120  1  0.80731960  0.31857917  0.81612533  1
  Zn  Zn121  1  0.81783483  0.81593509  0.30619774  1
  Zn  Zn122  1  0.82296894  0.81262345  0.81603228  1
  Zn  Zn123  1  0.18522560  0.43614802  0.43355327  1
  Zn  Zn124  1  0.19112530  0.43448839  0.94125048  1
  Zn  Zn125  1  0.18288969  0.94090303  0.44835402  1
  Zn  Zn126  1  0.19049967  0.94394219  0.93988552  1
  Zn  Zn127  1  0.69067024  0.44179250  0.43331820  1
  Zn  Zn128  1  0.68515937  0.43699300  0.93516945  1
  Zn  Zn129  1  0.69021870  0.95828344  0.44375496  1
  Zn  Zn130  1  0.68783528  0.94132189  0.93568860  1
  Zn  Zn131  1  0.31246384  0.06386821  0.06323891  1
  Zn  Zn132  1  0.31687575  0.07778025  0.56842149  1
  Zn  Zn133  1  0.31480360  0.56477970  0.06011341  1
  Zn  Zn134  1  0.31371576  0.56249809  0.56360321  1
  Zn  Zn135  1  0.81190090  0.06828649  0.05107711  1
  Zn  Zn136  1  0.79881435  0.07046419  0.56733990  1
  Zn  Zn137  1  0.81590946  0.56406972  0.05841616  1
  Zn  Zn138  1  0.79915513  0.59949470  0.57534722  1
  Zn  Zn139  1  0.43918699  0.43896620  0.18653627  1
  Zn  Zn140  1  0.43462518  0.43953839  0.68374875  1
  Zn  Zn141  1  0.43700732  0.93811882  0.19377035  1
  Zn  Zn142  1  0.43370136  0.93454289  0.69299965  1
  Zn  Zn143  1  0.95252152  0.43702602  0.19030698  1
  Zn  Zn144  1  0.93421035  0.44218711  0.68869004  1
  Zn  Zn145  1  0.93933891  0.93764404  0.18677588  1
  Zn  Zn146  1  0.93447095  0.93175403  0.70789308  1
  Zn  Zn147  1  0.06030180  0.06187364  0.31093062  1
  Zn  Zn148  1  0.06302770  0.06198172  0.80949450  1
  Zn  Zn149  1  0.06610599  0.56009264  0.31300113  1
  Zn  Zn150  1  0.06812182  0.55876016  0.81540021  1
  Zn  Zn151  1  0.54339407  0.08248581  0.34841181  1
  Zn  Zn152  1  0.56475368  0.05905813  0.80990266  1
  Zn  Zn153  1  0.56717167  0.56206448  0.30943976  1
  Zn  Zn154  1  0.56043016  0.56214752  0.81253640  1
  Zn  Zn155  1  0.43162382  0.19554580  0.44019661  1
  Zn  Zn156  1  0.43757544  0.18487606  0.93974313  1
  Zn  Zn157  1  0.43588949  0.68917111  0.43537193  1
  Zn  Zn158  1  0.43109044  0.68940318  0.93709948  1
  Zn  Zn159  1  0.93756031  0.18277097  0.44663922  1
  Zn  Zn160  1  0.93641152  0.19084379  0.94177085  1
  Zn  Zn161  1  0.93809536  0.68368339  0.43783797  1
  Zn  Zn162  1  0.93783829  0.68678105  0.93840529  1
  Zn  Zn163  1  0.06616988  0.31293772  0.06428349  1
  Zn  Zn164  1  0.06378343  0.30876437  0.56943453  1
  Zn  Zn165  1  0.06587670  0.81203639  0.06334510  1
  Zn  Zn166  1  0.04064083  0.79741152  0.55073510  1
  Zn  Zn167  1  0.55631724  0.31148757  0.06053831  1
  Zn  Zn168  1  0.55840245  0.31660040  0.55923529  1
  Zn  Zn169  1  0.56193332  0.81313984  0.06205304  1
  Zn  Zn170  1  0.54312538  0.84667553  0.58225063  1
  O  O171  1  0.11614365  0.11826917  0.11449339  1
  O  O172  1  0.10804459  0.12545653  0.61958668  1
  O  O173  1  0.11747981  0.63032720  0.11085874  1
  O  O174  1  0.11858243  0.60939388  0.62325253  1
  O  O175  1  0.61493668  0.11802374  0.12237353  1
  O  O176  1  0.61617913  0.11969947  0.62166787  1
  O  O177  1  0.61825109  0.61802301  0.11487472  1
  O  O178  1  0.61862800  0.62341133  0.61209313  1
  O  O179  1  0.37435150  0.37857658  0.38392155  1
  O  O180  1  0.38715169  0.37590258  0.87110893  1
  O  O181  1  0.37925469  0.88064076  0.37667257  1
  O  O182  1  0.38483347  0.88333346  0.88113003  1
  O  O183  1  0.87131792  0.39055147  0.39417723  1
  O  O184  1  0.87942772  0.38617258  0.88326517  1
  O  O185  1  0.87943581  0.88552959  0.37221865  1
  O  O186  1  0.88709905  0.87799634  0.89001803  1
  O  O187  1  0.25510379  -0.00401050  0.37019595  1
  O  O188  1  0.26411385  -0.00309860  0.87388926  1
  O  O189  1  0.24760329  0.51179368  0.36647491  1
  O  O190  1  0.24990889  0.50555056  0.86623811  1
  O  O191  1  0.75673508  0.00882897  0.36472507  1
  O  O192  1  0.74791868  0.00513880  0.86434470  1
  O  O193  1  0.75966008  0.50789045  0.36686998  1
  O  O194  1  0.75601712  0.50144611  0.86823948  1
  O  O195  1  0.25046201  0.50620177  0.13493966  1
  O  O196  1  0.24430832  0.49377602  0.62910755  1
  O  O197  1  0.24533129  0.99528202  0.13394853  1
  O  O198  1  0.25523462  0.96821105  0.61763281  1
  O  O199  1  0.73747122  0.50797226  0.12291008  1
  O  O200  1  0.74267956  0.50345859  0.63214530  1
  O  O201  1  0.74709682  0.99755720  0.12789868  1
  O  O202  1  0.74666072  1.00050921  0.64184752  1
  O  O203  1  0.01289010  0.36710775  0.25483610  1
  O  O204  1  -0.00641392  0.37860889  0.76602822  1
  O  O205  1  0.00541055  0.86678056  0.25759881  1
  O  O206  1  0.00638200  0.86737498  0.76402947  1
  O  O207  1  0.50836795  0.36970999  0.25031726  1
  O  O208  1  0.50702579  0.38619220  0.75738622  1
  O  O209  1  0.50677629  0.86612930  0.25741057  1
  O  O210  1  0.51220758  0.86723870  0.76259800  1
  O  O211  1  0.50750365  0.14014554  0.24714168  1
  O  O212  1  0.50511870  0.13466871  0.75313955  1
  O  O213  1  0.49435496  0.62887340  0.24535725  1
  O  O214  1  0.50143939  0.63335016  0.74323363  1
  O  O215  1  1.00317767  0.12447528  0.23339779  1
  O  O216  1  0.99542629  0.12039316  0.73589922  1
  O  O217  1  1.00889448  0.62884318  0.23600760  1
  O  O218  1  1.00309564  0.62749209  0.74905341  1
  O  O219  1  0.37878241  0.24932854  0.01710988  1
  O  O220  1  0.36306042  0.26385424  0.49748429  1
  O  O221  1  0.36514575  0.75893218  0.00589848  1
  O  O222  1  0.36577416  0.74917746  0.50705951  1
  O  O223  1  0.86511046  0.26652839  0.00126799  1
  O  O224  1  0.86641738  0.26259294  0.50923169  1
  O  O225  1  0.87116879  0.75604042  0.00935838  1
  O  O226  1  0.93004084  0.77855148  0.49559710  1
  O  O227  1  0.13014657  0.24034877  0.50283934  1
  O  O228  1  0.12454417  0.23787222  0.99797085  1
  O  O229  1  0.12891412  0.74453152  0.48656264  1
  O  O230  1  0.13859675  0.74456873  1.00303378  1
  O  O231  1  0.63108590  0.25744989  0.48836001  1
  O  O232  1  0.62859361  0.24821671  0.99245893  1
  O  O233  1  0.62189893  0.74276977  0.49551583  1
  O  O234  1  0.63502335  0.74184902  1.00760143  1
  O  O235  1  0.49410304  0.24206526  0.13330858  1
  O  O236  1  0.50738163  0.25471249  0.63582084  1
  O  O237  1  0.49456846  0.74603526  0.13333845  1
  O  O238  1  0.49305424  0.75087591  0.63503047  1
  O  O239  1  1.00057247  0.23674120  0.12622386  1
  O  O240  1  0.98583840  0.24448867  0.62847975  1
  O  O241  1  0.99499571  0.74345853  0.12747477  1
  O  O242  1  1.00784641  0.73185919  0.63872181  1
  O  O243  1  -0.03409715  0.25548011  0.36417516  1
  O  O244  1  -0.00650475  0.26637366  0.87493530  1
  O  O245  1  0.01075157  0.74764831  0.36303912  1
  O  O246  1  0.00038704  0.75850596  0.87509246  1
  O  O247  1  0.51010702  0.25899602  0.36635185  1
  O  O248  1  0.50725314  0.25974209  0.88242532  1
  O  O249  1  0.49329799  0.75456790  0.35840503  1
  O  O250  1  0.49317304  0.75711508  0.86474874  1
  O  O251  1  0.24315807  0.13936689  0.49940130  1
  O  O252  1  0.23417619  0.12645104  1.00668022  1
  O  O253  1  0.24960273  0.63162039  0.49153010  1
  O  O254  1  0.24444735  0.63239329  0.99547282  1
  O  O255  1  0.74352764  0.13591999  0.48950930  1
  O  O256  1  0.73477497  0.14173974  1.00670219  1
  O  O257  1  0.73455476  0.61684391  0.48172003  1
  O  O258  1  0.74139470  0.63334576  0.99951423  1
  O  O259  1  0.25504275  0.37101214  0.00311425  1
  O  O260  1  0.25483532  0.37446621  0.50332176  1
  O  O261  1  0.25600276  0.86930840  0.00569063  1
  O  O262  1  0.24814276  0.85787143  0.50577341  1
  O  O263  1  0.75467244  0.36743688  -0.00167092  1
  O  O264  1  0.75610159  0.37584622  0.50722976  1
  O  O265  1  0.75787942  0.87060381  0.00377661  1
  O  O266  1  0.73940865  0.85698789  0.48736817  1
  O  O267  1  0.13774814  0.50138342  0.24483292  1
  O  O268  1  0.13877056  0.49928841  0.74246915  1
  O  O269  1  0.12916482  0.99218463  0.24564837  1
  O  O270  1  0.12477653  0.99798007  0.72692144  1
  O  O271  1  0.62743161  0.49001593  0.23966634  1
  O  O272  1  0.63008341  0.49773305  0.74419130  1
  O  O273  1  0.63915123  0.99181523  0.23798681  1
  O  O274  1  0.63572832  0.98446421  0.75109683  1
  O  O275  1  0.36002844  -0.00680142  0.25878211  1
  O  O276  1  0.37454245  -0.00104174  0.76137270  1
  O  O277  1  0.36720007  0.51079508  0.24408958  1
  O  O278  1  0.36207989  0.50568568  0.74815478  1
  O  O279  1  0.86203313  -0.00605534  0.25357084  1
  O  O280  1  0.85485959  -0.00681553  0.75743000  1
  O  O281  1  0.87948913  0.49360999  0.26347366  1
  O  O282  1  0.86358660  0.50058448  0.75941925  1
  O  O283  1  0.12451162  0.38381414  0.35444569  1
  O  O284  1  0.10944728  0.37448375  0.87992371  1
  O  O285  1  0.11794137  0.86774671  0.37449173  1
  O  O286  1  0.11623758  0.88161412  0.87792729  1
  O  O287  1  0.63074312  0.36885832  0.36178720  1
  O  O288  1  0.61375490  0.37019183  0.87028268  1
  O  O289  1  0.62479250  0.86661842  0.37437206  1
  O  O290  1  0.61378090  0.87488859  0.87364940  1
  O  O291  1  0.38783568  0.12906234  0.12404387  1
  O  O292  1  0.41666073  0.11425630  0.60864390  1
  O  O293  1  0.38224204  0.63135161  0.13036237  1
  O  O294  1  0.38174300  0.63578118  0.62536403  1
  O  O295  1  0.89094565  0.12089165  0.11707279  1
  O  O296  1  0.87540417  0.14035085  0.61840207  1
  O  O297  1  0.88747821  0.63350642  0.11703594  1
  O  O298  1  0.89669112  0.60290906  0.63483163  1
  O  O299  1  0.26753449  0.24153743  0.12849730  1
  O  O300  1  0.24606185  0.26889194  0.61102981  1
  O  O301  1  0.25517056  0.75632346  0.11914485  1
  O  O302  1  0.25434274  0.74781267  0.61715790  1
  O  O303  1  0.74283465  0.25617376  0.12028268  1
  O  O304  1  0.75153263  0.25974510  0.62216247  1
  O  O305  1  0.75876721  0.75457925  0.11623494  1
  O  O306  1  0.77439443  0.71127571  0.60978464  1
  O  O307  1  0.24954370  0.25135938  0.38354819  1
  O  O308  1  0.25583793  0.24757611  0.87642408  1
  O  O309  1  0.24483939  0.74316860  0.37947222  1
  O  O310  1  0.25592961  0.74348386  0.88442427  1
  O  O311  1  0.75096447  0.24653683  0.37974996  1
  O  O312  1  0.73971682  0.25203578  0.88413294  1
  O  O313  1  0.74956838  0.74471022  0.37194792  1
  O  O314  1  0.75947849  0.74861862  0.89070461  1
  O  O315  1  0.00805152  0.11990023  0.00847953  1
  O  O316  1  0.00582304  0.12472542  0.51396714  1
  O  O317  1  0.00823627  0.61877134  0.00474882  1
  O  O318  1  0.00380507  0.61505032  0.51100280  1
  O  O319  1  0.51331630  0.12960095  0.01365710  1
  O  O320  1  0.51096509  0.11994782  0.45907761  1
  O  O321  1  0.50484437  0.62200335  0.00256390  1
  O  O322  1  0.50697649  0.62165925  0.49998771  1
  O  O323  1  0.49021421  0.38607527  0.49614704  1
  O  O324  1  0.49645237  0.38494354  0.99152180  1
  O  O325  1  0.49451859  0.85923855  0.47987978  1
  O  O326  1  0.49275045  0.86581411  0.98601010  1
  O  O327  1  0.99415478  0.37886712  0.49997026  1
  O  O328  1  0.99302523  0.38086954  0.99558259  1
  O  O329  1  1.01818220  0.90412519  0.49640408  1
  O  O330  1  0.99643290  0.88157480  0.99939008  1
  O  O331  1  0.50574361  0.50029351  0.38504986  1
  O  O332  1  0.49784393  0.49408042  0.88288788  1
  O  O333  1  0.48396954  0.98609065  0.36039529  1
  O  O334  1  0.49715913  0.98531472  0.87344939  1
  O  O335  1  0.99471267  0.50302574  0.38426235  1
  O  O336  1  0.99371000  0.49150199  0.88166150  1
  O  O337  1  0.98336759  0.99525470  0.36753386  1
  O  O338  1  0.99991905  0.99410375  0.88660350  1
  O  O339  1  0.00519494  0.00432602  0.11522642  1
  O  O340  1  -0.02214199  0.00586759  0.62019747  1
  O  O341  1  -0.00405142  0.50975310  0.11455256  1
  O  O342  1  0.01052315  0.49711255  0.62052281  1
  O  O343  1  0.50918051  0.00726127  0.13561334  1
  O  O344  1  0.50958056  -0.04269098  0.61472965  1
  O  O345  1  0.50869011  0.50624565  0.11697298  1
  O  O346  1  0.50458050  0.50941488  0.61389262  1
  O  O347  1  0.24152306  0.38804783  0.24881202  1
  O  O348  1  0.26040360  0.38019219  0.73431254  1
  O  O349  1  0.24302709  0.87973541  0.24489798  1
  O  O350  1  0.24518176  0.86043464  0.73513088  1
  O  O351  1  0.74619452  0.37679977  0.23697146  1
  O  O352  1  0.74074372  0.38888939  0.74556090  1
  O  O353  1  0.74478038  0.87992650  0.24051061  1
  O  O354  1  0.74049622  0.87374118  0.76344231  1
  O  O355  1  0.23722624  0.11009920  0.25467610  1
  O  O356  1  0.24434915  0.10109687  0.67017684  1
  O  O357  1  0.25627447  0.61696158  0.25338738  1
  O  O358  1  0.24842601  0.61889262  0.75798233  1
  O  O359  1  0.75009526  0.11735514  0.25522765  1
  O  O360  1  0.74290384  0.11512389  0.75270241  1
  O  O361  1  0.74517632  0.62335295  0.25940752  1
  O  O362  1  0.74851926  0.61682255  0.75367285  1
  O  O363  1  0.36699820  0.11353285  0.37466609  1
  O  O364  1  0.38333103  0.10382655  0.88433332  1
  O  O365  1  0.36532516  0.63142152  0.36280968  1
  O  O366  1  0.36046809  0.62164550  0.87505218  1
  O  O367  1  0.86310226  0.11820225  0.37867845  1
  O  O368  1  0.86532473  0.11874205  0.89908320  1
  O  O369  1  0.86591724  0.61615966  0.38153583  1
  O  O370  1  0.87341503  0.61182397  0.87658158  1
  O  O371  1  0.11939513  0.37625958  0.14304361  1
  O  O372  1  0.13903349  0.38509182  0.61927696  1
  O  O373  1  0.13053991  0.88267158  0.13054940  1
  O  O374  1  0.13576838  0.85870961  0.62253865  1
  O  O375  1  0.61802872  0.38466070  0.12921264  1
  O  O376  1  0.62903901  0.38546472  0.62759994  1
  O  O377  1  0.62987564  0.88305298  0.12643333  1
  O  O378  1  0.63888305  0.86594829  0.64405491  1
  O  O379  1  0.12641175  0.25722189  0.25062158  1
  O  O380  1  0.11491097  0.24706115  0.75124502  1
  O  O381  1  0.12510622  0.75459732  0.25824007  1
  O  O382  1  0.11239804  0.75157752  0.75422065  1
  O  O383  1  0.61934750  0.26228623  0.25149689  1
  O  O384  1  0.63288028  0.26126274  0.76485812  1
  O  O385  1  0.61521249  0.75727685  0.24023172  1
  O  O386  1  0.62121134  0.75755264  0.75211583  1
  O  O387  1  0.38396619  0.25512700  0.24139493  1
  O  O388  1  0.37447734  0.23378051  0.72632587  1
  O  O389  1  0.38005165  0.74090948  0.24200054  1
  O  O390  1  0.38460061  0.74705347  0.74418366  1
  O  O391  1  0.86246864  0.26313131  0.23057305  1
  O  O392  1  0.87159162  0.25934233  0.74035013  1
  O  O393  1  0.88115733  0.75252109  0.23429241  1
  O  O394  1  0.89379665  0.74928656  0.75452756  1
  O  O395  1  0.38404429  0.49666042  0.50072464  1
  O  O396  1  0.38788295  0.50105907  0.99872691  1
  O  O397  1  0.37443562  0.99942239  0.49189019  1
  O  O398  1  0.37180579  0.98642092  1.00078107  1
  O  O399  1  0.88905612  0.49596175  0.49858541  1
  O  O400  1  0.88213854  0.49199343  0.99393412  1
  O  O401  1  0.86710313  1.00064337  0.49143722  1
  O  O402  1  0.88456188  0.98957454  1.00396926  1
  O  O403  1  0.11803410  0.00870565  0.00546627  1
  O  O404  1  0.14420334  0.01770316  0.53152971  1
  O  O405  1  0.11367159  0.50781927  -0.00449657  1
  O  O406  1  0.11493102  0.49909510  0.50536576  1
  O  O407  1  0.63155775  0.00936447  0.01381535  1
  O  O408  1  0.61569082  0.00776343  0.50477171  1
  O  O409  1  0.61601973  0.50559430  0.00372062  1
  O  O410  1  0.61769755  0.50796737  0.50139971  1
  O  O411  1  0.38241666  0.36049391  0.12477167  1
  O  O412  1  0.36175590  0.38492866  0.61059862  1
  O  O413  1  0.37229366  0.87102058  0.11898628  1
  O  O414  1  0.36493550  0.85859910  0.62364466  1
  O  O415  1  0.87080101  0.38316078  0.11950748  1
  O  O416  1  0.86805384  0.37446925  0.61823041  1
  O  O417  1  0.87278569  0.86816046  0.11548797  1
  O  O418  1  0.88706179  0.88377173  0.60960234  1
  O  O419  1  0.12225206  0.11175127  0.39336918  1
  O  O420  1  0.11780355  0.12430394  0.88950013  1
  O  O421  1  0.13532468  0.63254260  0.37429947  1
  O  O422  1  0.13701415  0.62182483  0.88757072  1
  O  O423  1  0.64005780  0.14603878  0.36584677  1
  O  O424  1  0.62434402  0.13262623  0.88489600  1
  O  O425  1  0.63280698  0.62523517  0.37871904  1
  O  O426  1  0.62522850  0.62178062  0.88844133  1
