# generated using pymatgen
data_V85Zn86O256
_symmetry_space_group_name_H-M   'P 1'
_cell_length_a   16.92419159
_cell_length_b   16.93214936
_cell_length_c   16.93800815
_cell_angle_alpha   90.01819596
_cell_angle_beta   90.03205431
_cell_angle_gamma   90.03123138
_symmetry_Int_Tables_number   1
_chemical_formula_structural   V85Zn86O256
_chemical_formula_sum   'V85 Zn86 O256'
_cell_volume   4853.80368335
_cell_formula_units_Z   1
loop_
 _symmetry_equiv_pos_site_id
 _symmetry_equiv_pos_as_xyz
  1  'x, y, z'
loop_
 _atom_site_type_symbol
 _atom_site_label
 _atom_site_symmetry_multiplicity
 _atom_site_fract_x
 _atom_site_fract_y
 _atom_site_fract_z
 _atom_site_occupancy
  V  V0  1  0.12200401  0.00713272  0.12425112  1
  V  V1  1  0.62370425  0.87368326  0.24793238  1
  V  V2  1  0.75018840  0.88683361  0.63011599  1
  V  V3  1  0.61474410  0.62754310  0.50567517  1
  V  V4  1  0.01049377  0.25727353  0.75208049  1
  V  V5  1  0.12736236  0.74561380  0.37550250  1
  V  V6  1  0.74844258  0.61635033  0.37464058  1
  V  V7  1  0.12447679  0.87512857  0.24989301  1
  V  V8  1  0.01470205  0.37342910  0.87777008  1
  V  V9  1  0.37386409  0.12150014  0.74447956  1
  V  V10  1  0.25270689  0.49363041  0.26263116  1
  V  V11  1  0.36816126  0.62221686  0.26233874  1
  V  V12  1  0.24962358  0.75216368  0.49904382  1
  V  V13  1  0.00147453  0.62052695  0.12478080  1
  V  V14  1  0.24665789  0.60720315  0.86696536  1
  V  V15  1  0.74581451  0.74985944  0.00284965  1
  V  V16  1  0.87464442  0.49941017  0.37084749  1
  V  V17  1  0.75182354  0.74925342  0.50277873  1
  V  V18  1  0.75185154  0.26044936  -0.00192634  1
  V  V19  1  0.61069927  0.62051533  -0.00127222  1
  V  V20  1  0.62347240  0.24775742  0.87274616  1
  V  V21  1  0.61781504  0.50602787  0.62488581  1
  V  V22  1  0.74787495  0.62380882  0.87544235  1
  V  V23  1  0.50052945  0.12572483  0.12581072  1
  V  V24  1  0.62489832  0.49930529  0.12790258  1
  V  V25  1  0.87430915  0.74894643  0.12631150  1
  V  V26  1  0.00080856  0.74926992  0.25011205  1
  V  V27  1  0.24999921  0.00089632  0.25101784  1
  V  V28  1  0.37879913  0.00018580  0.38084918  1
  V  V29  1  0.50104240  0.74705802  0.74521317  1
  V  V30  1  0.62942893  0.12398492  0.00021619  1
  V  V31  1  0.87202271  0.12675290  0.25201900  1
  V  V32  1  0.37606813  0.12395789  0.24963733  1
  V  V33  1  0.36913029  0.00234843  0.87248576  1
  V  V34  1  0.12592484  0.49487368  0.63960280  1
  V  V35  1  0.24981976  0.88497857  0.62760859  1
  V  V36  1  0.12895925  0.87051558  0.75486189  1
  V  V37  1  0.24214510  0.75217692  -0.01311117  1
  V  V38  1  0.50129916  0.87681013  0.38356805  1
  V  V39  1  0.87702441  0.62764289  0.75450018  1
  V  V40  1  0.87150830  0.25421695  0.62030776  1
  V  V41  1  0.49862867  0.38537975  0.87820119  1
  V  V42  1  0.87729341  0.25089791  0.11841789  1
  V  V43  1  0.87671272  0.74859104  0.63080756  1
  V  V44  1  0.24463641  0.12932178  0.86746855  1
  V  V45  1  0.00224341  0.12689006  0.62759837  1
  V  V46  1  0.50375621  0.11083108  0.61386993  1
  V  V47  1  0.37835135  0.25388153  0.61825512  1
  V  V48  1  0.25168053  0.26035878  0.49658555  1
  V  V49  1  0.37617957  0.74602543  0.62787458  1
  V  V50  1  0.12175797  0.13166965  -0.00468389  1
  V  V51  1  0.50440506  0.25152349  0.25688596  1
  V  V52  1  0.74684542  0.37542702  0.61107363  1
  V  V53  1  0.37718954  0.38532155  -0.00282619  1
  V  V54  1  0.37246893  0.74673603  0.12332977  1
  V  V55  1  0.12852692  0.62183784  0.49937832  1
  V  V56  1  0.87122414  -0.00007100  0.87108727  1
  V  V57  1  0.49757825  0.00024174  0.00003834  1
  V  V58  1  0.86793708  0.12464863  0.74884898  1
  V  V59  1  0.00132124  0.62828034  0.63183601  1
  V  V60  1  0.24984388  0.87504227  0.12404037  1
  V  V61  1  0.37300073  0.25762534  0.12419704  1
  V  V62  1  0.62738793  0.37289463  0.74737415  1
  V  V63  1  -0.00067348  0.87514137  0.37580838  1
  V  V64  1  0.13491247  0.49496657  0.12013694  1
  V  V65  1  0.63710339  0.11282141  0.49840037  1
  V  V66  1  -0.00126240  0.00463217  0.00090645  1
  V  V67  1  0.00243057  0.49832524  0.50203109  1
  V  V68  1  0.62520751  0.74950336  0.37479777  1
  V  V69  1  0.00434509  0.00079198  0.50125528  1
  V  V70  1  0.87108082  0.48633841  0.88009008  1
  V  V71  1  0.62094656  0.74910303  0.87346352  1
  V  V72  1  0.62860006  0.88879467  0.74869887  1
  V  V73  1  0.87086472  0.62249263  0.25023930  1
  V  V74  1  0.87532728  0.87540372  0.00040561  1
  V  V75  1  0.87738243  0.87447566  0.50225054  1
  V  V76  1  0.00209340  0.86090998  0.87071152  1
  V  V77  1  0.00492710  0.37301208  0.37320627  1
  V  V78  1  0.00119436  0.24365141  0.24222700  1
  V  V79  1  0.24904621  0.37759674  0.64010749  1
  V  V80  1  0.64671210  0.24473516  0.38274891  1
  V  V81  1  0.63478774  0.37636028  0.25010737  1
  V  V82  1  0.74858602  0.00439806  0.25404835  1
  V  V83  1  0.25004636  0.25346079  -0.00016036  1
  V  V84  1  0.12449394  0.24719063  0.37416254  1
  Zn  Zn85  1  -0.00662779  0.49102646  0.00575207  1
  Zn  Zn86  1  0.36804205  0.61128277  0.75294652  1
  Zn  Zn87  1  0.49764552  0.87786643  0.87272778  1
  Zn  Zn88  1  0.12744696  0.12664842  0.50236084  1
  Zn  Zn89  1  0.50150853  0.24764952  0.74583942  1
  Zn  Zn90  1  0.12978824  0.37061934  0.24198156  1
  Zn  Zn91  1  0.48177525  0.38040715  0.37699501  1
  Zn  Zn92  1  0.74658840  0.11874826  0.86858730  1
  Zn  Zn93  1  0.49083522  0.61510627  0.12277883  1
  Zn  Zn94  1  0.87310244  0.00650571  0.37679034  1
  Zn  Zn95  1  0.74808861  0.50110434  0.75020848  1
  Zn  Zn96  1  0.47771219  0.49704271  0.49570398  1
  Zn  Zn97  1  0.12025029  0.62803417  -0.00615595  1
  Zn  Zn98  1  0.37341286  0.87624864  -0.00160378  1
  Zn  Zn99  1  0.62614272  -0.00121303  0.12503770  1
  Zn  Zn100  1  0.12845997  0.00405671  0.63481394  1
  Zn  Zn101  1  0.86975880  0.37098315  0.49475092  1
  Zn  Zn102  1  0.49730939  0.74636068  0.24931067  1
  Zn  Zn103  1  0.37926828  0.87905875  0.50552730  1
  Zn  Zn104  1  0.74887175  0.87610685  0.12616913  1
  Zn  Zn105  1  0.75964613  0.38479086  0.12235515  1
  Zn  Zn106  1  0.25075871  0.12465586  0.37840035  1
  Zn  Zn107  1  0.18942250  0.18637978  0.18463812  1
  Zn  Zn108  1  0.18964697  0.19109251  0.68703588  1
  Zn  Zn109  1  0.18998966  0.68288061  0.18566208  1
  Zn  Zn110  1  0.18580916  0.69247539  0.69105582  1
  Zn  Zn111  1  0.69058054  0.18857799  0.18498529  1
  Zn  Zn112  1  0.68737244  0.18620174  0.67986422  1
  Zn  Zn113  1  0.68536255  0.68400379  0.18766293  1
  Zn  Zn114  1  0.68826896  0.68993879  0.68999174  1
  Zn  Zn115  1  0.30961165  0.31111472  0.30547276  1
  Zn  Zn116  1  0.31723726  0.30863461  0.81377660  1
  Zn  Zn117  1  0.31322107  0.81155577  0.31386177  1
  Zn  Zn118  1  0.31334693  0.81574776  0.81035086  1
  Zn  Zn119  1  0.81455475  0.31366098  0.30972257  1
  Zn  Zn120  1  0.80936834  0.30767520  0.80692715  1
  Zn  Zn121  1  0.81129430  0.81323514  0.31430144  1
  Zn  Zn122  1  0.81053993  0.81218284  0.81336255  1
  Zn  Zn123  1  0.30919253  0.43841340  0.44081907  1
  Zn  Zn124  1  0.18832093  0.43744433  0.94097155  1
  Zn  Zn125  1  0.18782761  0.93703341  0.43880964  1
  Zn  Zn126  1  0.18647020  0.93963741  0.93475225  1
  Zn  Zn127  1  0.62438392  0.43598813  0.44051658  1
  Zn  Zn128  1  0.68012112  0.44038494  0.93638904  1
  Zn  Zn129  1  0.69082554  0.93686114  0.43596639  1
  Zn  Zn130  1  0.68668581  0.93612599  0.93622417  1
  Zn  Zn131  1  0.31042818  0.06694234  0.06133524  1
  Zn  Zn132  1  0.31098820  0.06739358  0.55910026  1
  Zn  Zn133  1  0.30867436  0.56826534  0.05789068  1
  Zn  Zn134  1  0.30703596  0.56577934  0.57327178  1
  Zn  Zn135  1  0.81236421  0.06571925  0.06854651  1
  Zn  Zn136  1  0.81857281  0.06381519  0.56174388  1
  Zn  Zn137  1  0.80841994  0.56198640  0.06045207  1
  Zn  Zn138  1  0.80968330  0.55863444  0.56195423  1
  Zn  Zn139  1  0.44105731  0.43778280  0.18955267  1
  Zn  Zn140  1  0.43685916  0.43417064  0.68291803  1
  Zn  Zn141  1  0.43853341  0.93565893  0.18947028  1
  Zn  Zn142  1  0.43816571  0.93560386  0.68938282  1
  Zn  Zn143  1  0.93909343  0.43305153  0.18848219  1
  Zn  Zn144  1  0.93487362  0.43928889  0.69127776  1
  Zn  Zn145  1  0.93637719  0.93979944  0.18572662  1
  Zn  Zn146  1  0.94101774  0.93779325  0.69038134  1
  Zn  Zn147  1  0.05881925  0.06471084  0.31226821  1
  Zn  Zn148  1  0.05912650  0.05890791  0.81269417  1
  Zn  Zn149  1  0.06776760  0.55979504  0.31134424  1
  Zn  Zn150  1  0.06090899  0.56390276  0.81770340  1
  Zn  Zn151  1  0.56432018  0.06276523  0.31703172  1
  Zn  Zn152  1  0.55600639  0.06573809  0.81133584  1
  Zn  Zn153  1  0.55839598  0.56280264  0.30752518  1
  Zn  Zn154  1  0.52638267  0.54117791  0.79137414  1
  Zn  Zn155  1  0.43942115  0.18794381  0.43804690  1
  Zn  Zn156  1  0.43780854  0.18969189  0.93611235  1
  Zn  Zn157  1  0.43576408  0.68964296  0.43877510  1
  Zn  Zn158  1  0.43006506  0.68889706  0.93283188  1
  Zn  Zn159  1  0.93627763  0.18692843  0.43726156  1
  Zn  Zn160  1  0.93706298  0.18951951  0.93413724  1
  Zn  Zn161  1  0.93969924  0.68625701  0.44001367  1
  Zn  Zn162  1  0.93373991  0.68281278  0.94109068  1
  Zn  Zn163  1  0.06081234  0.31239224  0.06009844  1
  Zn  Zn164  1  0.06559917  0.31528048  0.56189821  1
  Zn  Zn165  1  0.06172349  0.81493891  0.06244194  1
  Zn  Zn166  1  0.06505772  0.81193261  0.56875618  1
  Zn  Zn167  1  0.56161709  0.31446899  0.06383742  1
  Zn  Zn168  1  0.56193751  0.30717786  0.55897067  1
  Zn  Zn169  1  0.55763132  0.81285295  0.06347375  1
  Zn  Zn170  1  0.56480790  0.81666107  0.56640459  1
  O  O171  1  0.12961160  0.11270503  0.11493959  1
  O  O172  1  0.11369079  0.12473055  0.62629673  1
  O  O173  1  0.11663039  0.61405067  0.12475849  1
  O  O174  1  0.11699125  0.62003939  0.62273987  1
  O  O175  1  0.61846202  0.12381740  0.11619058  1
  O  O176  1  0.61377500  0.12803492  0.61203663  1
  O  O177  1  0.62032017  0.61714592  0.11846460  1
  O  O178  1  0.63132859  0.61949327  0.61853915  1
  O  O179  1  0.37058192  0.36974846  0.37652257  1
  O  O180  1  0.38682362  0.36794168  0.88314531  1
  O  O181  1  0.38452396  0.88111866  0.37482640  1
  O  O182  1  0.37595109  0.88813424  0.87636828  1
  O  O183  1  0.88336822  0.38156056  0.37505692  1
  O  O184  1  0.87386536  0.38466195  0.86704543  1
  O  O185  1  0.88319887  0.87391693  0.38428423  1
  O  O186  1  0.88363240  0.87924528  0.87932292  1
  O  O187  1  0.25522996  0.00049753  0.36707533  1
  O  O188  1  0.26164588  0.01273147  0.88216036  1
  O  O189  1  0.24147161  0.49686853  0.36023705  1
  O  O190  1  0.25072888  0.50837189  0.87591865  1
  O  O191  1  0.75624263  -0.00754753  0.35969389  1
  O  O192  1  0.76655493  -0.00063927  0.88196871  1
  O  O193  1  0.75992130  0.51394555  0.38106912  1
  O  O194  1  0.75519804  0.50513516  0.87413126  1
  O  O195  1  0.23633146  0.50566691  0.12683670  1
  O  O196  1  0.24184015  0.48609042  0.62903521  1
  O  O197  1  0.24307403  0.99536503  0.12935382  1
  O  O198  1  0.24939479  0.98935405  0.61932917  1
  O  O199  1  0.73505853  0.49996464  0.12168003  1
  O  O200  1  0.74458057  0.49090879  0.63073674  1
  O  O201  1  0.74787689  0.99576987  0.13690728  1
  O  O202  1  0.76025015  0.98543843  0.62244934  1
  O  O203  1  0.00207784  0.36219896  0.25705291  1
  O  O204  1  -0.00448771  0.36374473  0.75748426  1
  O  O205  1  0.00554609  0.87059680  0.25406948  1
  O  O206  1  0.00222742  0.87263703  0.76554747  1
  O  O207  1  0.51279465  0.36647357  0.25217745  1
  O  O208  1  0.51309795  0.36812002  0.75737571  1
  O  O209  1  0.51091364  0.87270129  0.25805547  1
  O  O210  1  0.51386710  0.87036033  0.75119894  1
  O  O211  1  0.49647936  0.13038194  0.24521517  1
  O  O212  1  0.49472221  0.12718474  0.73511397  1
  O  O213  1  0.48379461  0.62521037  0.24543932  1
  O  O214  1  0.50790384  0.64667279  0.75135991  1
  O  O215  1  0.99406911  0.13687253  0.24915658  1
  O  O216  1  0.99282094  0.13543430  0.74563169  1
  O  O217  1  0.99413272  0.62830158  0.24147372  1
  O  O218  1  0.99130589  0.62190121  0.74259033  1
  O  O219  1  0.36823238  0.25015674  0.00773355  1
  O  O220  1  0.36818636  0.24433472  0.51077945  1
  O  O221  1  0.36164992  0.75418423  0.00604352  1
  O  O222  1  0.36633417  0.75232215  0.50826426  1
  O  O223  1  0.86416634  0.24119467  0.00582686  1
  O  O224  1  0.88233311  0.25223362  0.51528050  1
  O  O225  1  0.86493376  0.75353739  0.00579442  1
  O  O226  1  0.86949190  0.75443907  0.50689906  1
  O  O227  1  0.13029318  0.25017892  0.49018181  1
  O  O228  1  0.13252135  0.23892218  1.00638532  1
  O  O229  1  0.12975212  0.74447205  0.49661781  1
  O  O230  1  0.13920787  0.74862959  1.00924790  1
  O  O231  1  0.62848582  0.24099645  0.48579542  1
  O  O232  1  0.63057545  0.24229408  0.99359460  1
  O  O233  1  0.63366461  0.74575000  0.49845912  1
  O  O234  1  0.62838693  0.74735653  0.99468636  1
  O  O235  1  0.49698071  0.24381896  0.13583804  1
  O  O236  1  0.49174040  0.24313014  0.62398566  1
  O  O237  1  0.48224509  0.75147261  0.12642508  1
  O  O238  1  0.48886780  0.75963510  0.63158861  1
  O  O239  1  0.99311722  0.25233918  0.13128415  1
  O  O240  1  0.99648645  0.24763081  0.63477785  1
  O  O241  1  0.99595652  0.74304709  0.13107057  1
  O  O242  1  0.99191889  0.73624337  0.61934461  1
  O  O243  1  0.00393932  0.25516885  0.36841880  1
  O  O244  1  -0.00605967  0.26236416  0.86251261  1
  O  O245  1  0.00532138  0.75529861  0.36956877  1
  O  O246  1  -0.00379515  0.76307155  0.88473502  1
  O  O247  1  0.50471124  0.24848425  0.36297205  1
  O  O248  1  0.51377893  0.25046745  0.87204830  1
  O  O249  1  0.50644224  0.75766440  0.37220025  1
  O  O250  1  0.50791355  0.75615637  0.87129747  1
  O  O251  1  0.24562333  0.13981753  0.49831462  1
  O  O252  1  0.24229135  0.13333360  0.99227365  1
  O  O253  1  0.23349276  0.63578333  0.51071978  1
  O  O254  1  0.24620054  0.63758955  0.98811563  1
  O  O255  1  0.73682254  0.12209702  0.50801500  1
  O  O256  1  0.73778600  0.12824616  0.99942108  1
  O  O257  1  0.75028898  0.63742841  0.49461376  1
  O  O258  1  0.74179666  0.63712979  0.99552746  1
  O  O259  1  0.25768556  0.35971524  -0.00863274  1
  O  O260  1  0.24925082  0.36312723  0.51099566  1
  O  O261  1  0.24843900  0.86821154  0.00550408  1
  O  O262  1  0.24985352  0.86825033  0.50951693  1
  O  O263  1  0.74388658  0.36283152  -0.00135083  1
  O  O264  1  0.74880851  0.38028482  0.51064753  1
  O  O265  1  0.75383557  0.86411445  0.00119792  1
  O  O266  1  0.75507209  0.86593164  0.50645778  1
  O  O267  1  0.13677366  0.50003465  0.24002574  1
  O  O268  1  0.11329840  0.49957680  0.73765350  1
  O  O269  1  0.12725450  0.99794432  0.24175061  1
  O  O270  1  0.11279634  0.98151075  0.74838673  1
  O  O271  1  0.62651702  0.49170781  0.23857460  1
  O  O272  1  0.62317392  0.49188695  0.74178461  1
  O  O273  1  0.63114774  0.99298589  0.25008901  1
  O  O274  1  0.62433647  0.98749713  0.75915463  1
  O  O275  1  0.36955903  0.00412314  0.25669584  1
  O  O276  1  0.37954050  0.01222290  0.75717751  1
  O  O277  1  0.36308180  0.50898203  0.24447264  1
  O  O278  1  0.41883115  0.51114015  0.75895447  1
  O  O279  1  0.86939034  0.00888797  0.24846325  1
  O  O280  1  0.88444800  0.01066481  0.75977103  1
  O  O281  1  0.88139200  0.50471972  0.26344726  1
  O  O282  1  0.87229213  0.51126398  0.76027586  1
  O  O283  1  0.11129760  0.36220973  0.36808917  1
  O  O284  1  0.11327932  0.37746819  0.87425610  1
  O  O285  1  0.11913792  0.86781675  0.36918524  1
  O  O286  1  0.11311168  0.87792342  0.86809730  1
  O  O287  1  0.63516950  0.35479074  0.36348993  1
  O  O288  1  0.62273430  0.36460687  0.86794889  1
  O  O289  1  0.62004330  0.86909356  0.36941333  1
  O  O290  1  0.62504431  0.86740756  0.86578456  1
  O  O291  1  0.38179574  0.13278457  0.12965025  1
  O  O292  1  0.38386359  0.12894913  0.62701350  1
  O  O293  1  0.37261369  0.63266140  0.12932792  1
  O  O294  1  0.36463024  0.64259126  0.63649616  1
  O  O295  1  0.87238016  0.13852035  0.13671018  1
  O  O296  1  0.88536542  0.13218769  0.63020937  1
  O  O297  1  0.88004844  0.62813426  0.13073356  1
  O  O298  1  0.88021783  0.62672692  0.63350015  1
  O  O299  1  0.26148059  0.24494585  0.11504452  1
  O  O300  1  0.25533784  0.25848613  0.61877530  1
  O  O301  1  0.25660183  0.75499370  0.11922821  1
  O  O302  1  0.25369442  0.76186868  0.61830713  1
  O  O303  1  0.75694948  0.25185774  0.11333785  1
  O  O304  1  0.75948489  0.26174407  0.62982829  1
  O  O305  1  0.75407682  0.75026106  0.11780342  1
  O  O306  1  0.75774534  0.75610296  0.61858661  1
  O  O307  1  0.24017275  0.24933570  0.37907404  1
  O  O308  1  0.25513318  0.23615886  0.88264550  1
  O  O309  1  0.24400712  0.75668858  0.39051392  1
  O  O310  1  0.24617165  0.75941461  0.88684560  1
  O  O311  1  0.74504146  0.24330890  0.37293090  1
  O  O312  1  0.74056875  0.24452023  0.88014625  1
  O  O313  1  0.74579746  0.74489791  0.38525261  1
  O  O314  1  0.74036345  0.74698444  0.88309685  1
  O  O315  1  0.00976637  0.11783935  -0.00851889  1
  O  O316  1  0.00105416  0.11849573  0.50920903  1
  O  O317  1  0.00032116  0.62403642  0.01437523  1
  O  O318  1  0.00650411  0.61907165  0.50908670  1
  O  O319  1  0.50900629  0.11832794  0.00322425  1
  O  O320  1  0.50805082  0.12636382  0.50957578  1
  O  O321  1  0.50786286  0.63317908  0.00034598  1
  O  O322  1  0.51285606  0.62637050  0.49769108  1
  O  O323  1  0.52387827  0.38499838  0.48969595  1
  O  O324  1  0.48874847  0.36240222  0.99031255  1
  O  O325  1  0.50083455  0.87287118  0.48798712  1
  O  O326  1  0.49811254  0.88975512  0.99803677  1
  O  O327  1  0.99808127  0.38287663  0.49251682  1
  O  O328  1  0.99886874  0.37146216  0.98213729  1
  O  O329  1  0.99763532  0.88168524  0.49881237  1
  O  O330  1  0.99608980  0.88173239  0.99115333  1
  O  O331  1  0.52744674  0.49093554  0.38570716  1
  O  O332  1  0.52050327  0.48200337  0.89008777  1
  O  O333  1  0.49033061  0.98989246  0.36763737  1
  O  O334  1  0.48781183  1.00348433  0.88322896  1
  O  O335  1  0.99747148  0.49216958  0.38041355  1
  O  O336  1  0.99160888  0.48569955  0.87530722  1
  O  O337  1  0.99929427  0.99330388  0.38288713  1
  O  O338  1  0.99021643  0.99202851  0.88622125  1
  O  O339  1  0.00786234  -0.00516296  0.11084110  1
  O  O340  1  -0.00070321  0.01031432  0.61846254  1
  O  O341  1  0.00671523  0.50586697  0.12630914  1
  O  O342  1  0.00063153  0.50642686  0.61873021  1
  O  O343  1  0.49980700  0.00709538  0.11740253  1
  O  O344  1  0.49561338  0.01233505  0.62250101  1
  O  O345  1  0.51649290  0.49935701  0.12576057  1
  O  O346  1  0.51618352  0.49457732  0.61489033  1
  O  O347  1  0.24854395  0.38934468  0.24410919  1
  O  O348  1  0.25042382  0.36549338  0.73878586  1
  O  O349  1  0.24309879  0.88057229  0.24504403  1
  O  O350  1  0.23757987  0.87530788  0.74503829  1
  O  O351  1  0.73861652  0.36844531  0.24281274  1
  O  O352  1  0.73721234  0.37644680  0.74576620  1
  O  O353  1  0.73834995  0.87790455  0.24948127  1
  O  O354  1  0.73879015  0.87202743  0.74442933  1
  O  O355  1  0.25793302  0.11810913  0.25151907  1
  O  O356  1  0.25792938  0.12802268  0.75572240  1
  O  O357  1  0.26022091  0.61355421  0.24767335  1
  O  O358  1  0.24690451  0.62649786  0.76234451  1
  O  O359  1  0.75710018  0.11618786  0.24673048  1
  O  O360  1  0.76345706  0.12771314  0.74709725  1
  O  O361  1  0.75911974  0.63261334  0.26220770  1
  O  O362  1  0.75598322  0.62414859  0.75923222  1
  O  O363  1  0.37589317  0.11752661  0.36748305  1
  O  O364  1  0.37046365  0.12247765  0.86430220  1
  O  O365  1  0.37346796  0.63104310  0.36074927  1
  O  O366  1  0.35237916  0.63446950  0.87092808  1
  O  O367  1  0.88036816  0.12493078  0.35931939  1
  O  O368  1  0.87398567  0.11776658  0.86571521  1
  O  O369  1  0.87157641  0.61938463  0.37078332  1
  O  O370  1  0.86926751  0.61901045  0.86989986  1
  O  O371  1  0.11851284  0.39078262  0.12479417  1
  O  O372  1  0.13777070  0.38107915  0.62403718  1
  O  O373  1  0.12964954  0.88585972  0.13003820  1
  O  O374  1  0.13152082  0.87926681  0.63462858  1
  O  O375  1  0.62755543  0.38401007  0.12949461  1
  O  O376  1  0.63119483  0.37830741  0.63103562  1
  O  O377  1  0.62426178  0.87601896  0.13494502  1
  O  O378  1  0.63447468  0.87428970  0.63931471  1
  O  O379  1  0.11933689  0.24908085  0.25259947  1
  O  O380  1  0.10879281  0.24726825  0.74903388  1
  O  O381  1  0.12149306  0.75275253  0.25461087  1
  O  O382  1  0.11789051  0.77002997  0.74300070  1
  O  O383  1  0.62107354  0.25103717  0.25672522  1
  O  O384  1  0.62668207  0.25369496  0.75622647  1
  O  O385  1  0.62276316  0.75618385  0.25573209  1
  O  O386  1  0.62227998  0.75927831  0.75835867  1
  O  O387  1  0.38233524  0.24378984  0.24174564  1
  O  O388  1  0.37685850  0.23781431  0.73733666  1
  O  O389  1  0.36959566  0.73789584  0.24290751  1
  O  O390  1  0.38604731  0.75663281  0.74421177  1
  O  O391  1  0.88189560  0.24444067  0.24361759  1
  O  O392  1  0.88261557  0.24311967  0.74003060  1
  O  O393  1  0.88132468  0.74523471  0.24553498  1
  O  O394  1  0.87003956  0.73681020  0.74723353  1
  O  O395  1  0.36783128  0.51342078  0.49859082  1
  O  O396  1  0.36867780  0.48400292  1.00885504  1
  O  O397  1  0.36892960  0.99884051  0.48453606  1
  O  O398  1  0.38188032  1.00347308  0.99362807  1
  O  O399  1  0.88611033  0.50159325  0.48888187  1
  O  O400  1  0.87646960  0.50554913  0.98633636  1
  O  O401  1  0.88737554  0.99458713  0.49797594  1
  O  O402  1  0.88164062  0.99650584  0.99826485  1
  O  O403  1  0.11849595  0.00727521  0.00491928  1
  O  O404  1  0.11398665  0.00236519  0.50282105  1
  O  O405  1  0.12029752  0.50270831  0.01108843  1
  O  O406  1  0.11053916  0.50919313  0.51082649  1
  O  O407  1  0.61768612  0.00695763  -0.00050778  1
  O  O408  1  0.62615798  0.01322012  0.49139265  1
  O  O409  1  0.62878184  0.51227713  0.01001565  1
  O  O410  1  0.64382485  0.51920355  0.51331466  1
  O  O411  1  0.38402434  0.36184911  0.11909778  1
  O  O412  1  0.36380182  0.36640370  0.62772255  1
  O  O413  1  0.36548308  0.86933627  0.12506797  1
  O  O414  1  0.36632380  0.87002991  0.62561295  1
  O  O415  1  0.87387367  0.35975335  0.12835826  1
  O  O416  1  0.86643625  0.37053726  0.62442639  1
  O  O417  1  0.87465468  0.86668770  0.11755765  1
  O  O418  1  0.87282550  0.86765535  0.62309896  1
  O  O419  1  0.12380872  0.13703578  0.37558036  1
  O  O420  1  0.13318889  0.11820227  0.88202893  1
  O  O421  1  0.11677968  0.63331439  0.38665727  1
  O  O422  1  0.13727213  0.62270318  0.87802193  1
  O  O423  1  0.62286345  0.13426117  0.38624543  1
  O  O424  1  0.62642472  0.12939224  0.88059091  1
  O  O425  1  0.63352923  0.63196879  0.38172109  1
  O  O426  1  0.62933268  0.63605078  0.88383770  1
