# generated using pymatgen
data_V85Zn86O256
_symmetry_space_group_name_H-M   'P 1'
_cell_length_a   16.94790503
_cell_length_b   16.93302588
_cell_length_c   16.95179355
_cell_angle_alpha   90.01583203
_cell_angle_beta   90.03053043
_cell_angle_gamma   90.01910395
_symmetry_Int_Tables_number   1
_chemical_formula_structural   V85Zn86O256
_chemical_formula_sum   'V85 Zn86 O256'
_cell_volume   4864.81294371
_cell_formula_units_Z   1
loop_
 _symmetry_equiv_pos_site_id
 _symmetry_equiv_pos_as_xyz
  1  'x, y, z'
loop_
 _atom_site_type_symbol
 _atom_site_label
 _atom_site_symmetry_multiplicity
 _atom_site_fract_x
 _atom_site_fract_y
 _atom_site_fract_z
 _atom_site_occupancy
  V  V0  1  0.37386370  0.62094101  0.74772250  1
  V  V1  1  0.36622140  0.75334622  0.61698346  1
  V  V2  1  0.49641056  0.26019142  0.75383567  1
  V  V3  1  0.37693402  0.37543232  -0.00838606  1
  V  V4  1  0.12237845  0.74711819  0.88250839  1
  V  V5  1  0.50559136  0.49693669  0.50286239  1
  V  V6  1  0.50251426  0.49604735  -0.00797801  1
  V  V7  1  0.86867176  0.61196968  0.75263725  1
  V  V8  1  0.11948848  0.35629452  0.25624864  1
  V  V9  1  0.12519563  -0.00111183  0.62690315  1
  V  V10  1  0.24885823  0.24973218  -0.00047951  1
  V  V11  1  0.62176907  0.01037818  0.12480917  1
  V  V12  1  0.12875962  0.74973466  0.38335745  1
  V  V13  1  0.61976943  0.25659388  0.87774198  1
  V  V14  1  0.12315338  0.12207485  0.00248500  1
  V  V15  1  0.24243239  0.37913386  0.12213954  1
  V  V16  1  0.12582943  0.39001315  0.74517619  1
  V  V17  1  0.74869995  0.87791324  0.12123927  1
  V  V18  1  0.50040671  0.24477281  0.24843510  1
  V  V19  1  0.37675317  0.12381124  0.24005863  1
  V  V20  1  0.49802559  0.75127646  0.75541646  1
  V  V21  1  0.75581983  0.87581597  0.62055826  1
  V  V22  1  0.25428135  0.62935035  0.38072394  1
  V  V23  1  0.24817945  0.12326642  0.87451066  1
  V  V24  1  0.49534072  0.00821019  0.00466384  1
  V  V25  1  0.87264154  0.13007036  0.25092742  1
  V  V26  1  0.50233820  0.61837424  0.12181952  1
  V  V27  1  0.24788354  0.39258836  0.62590294  1
  V  V28  1  0.87350867  0.25029041  0.62899325  1
  V  V29  1  0.24910585  0.25344007  0.49648505  1
  V  V30  1  0.63167222  0.50421343  0.62691773  1
  V  V31  1  0.87528956  0.75444701  0.61317374  1
  V  V32  1  0.55541342  0.42509316  0.31810254  1
  V  V33  1  0.37413815  0.25183311  0.62427148  1
  V  V34  1  0.62082827  0.24924019  0.37332307  1
  V  V35  1  0.87974193  0.25554195  0.12755278  1
  V  V36  1  0.12203241  0.61022563  0.00561574  1
  V  V37  1  0.87854200  0.74706270  0.11944375  1
  V  V38  1  0.49721118  0.87516670  0.88324979  1
  V  V39  1  0.73725766  0.37941256  0.13557887  1
  V  V40  1  0.12391896  0.87342597  0.24134150  1
  V  V41  1  0.87622065  -0.00286612  0.37695397  1
  V  V42  1  0.12660252  0.87302974  0.75259656  1
  V  V43  1  0.11556020  0.24859539  0.86344987  1
  V  V44  1  0.49621782  0.00138737  0.50240896  1
  V  V45  1  0.37274813  -0.00571841  0.87932731  1
  V  V46  1  0.74590537  0.11963389  0.37972579  1
  V  V47  1  0.74860993  0.00094306  0.75377900  1
  V  V48  1  0.37531725  0.12439548  0.74975654  1
  V  V49  1  0.37396670  0.49447638  0.36797299  1
  V  V50  1  0.12564700  0.12982277  0.50132152  1
  V  V51  1  0.62677810  0.38135874  0.75436444  1
  V  V52  1  0.87557846  0.87678002  0.00175072  1
  V  V53  1  0.26281591  0.87256194  0.12258569  1
  V  V54  1  0.37377921  -0.00128429  0.37304440  1
  V  V55  1  -0.00340646  -0.00281493  0.49800556  1
  V  V56  1  -0.00520490  0.38539032  0.87683633  1
  V  V57  1  0.23760660  0.50135692  0.24487894  1
  V  V58  1  -0.00041749  0.60850878  0.12345875  1
  V  V59  1  -0.00196730  0.87330083  0.87917344  1
  V  V60  1  0.25095877  0.61619226  0.87271047  1
  V  V61  1  0.00156287  -0.00092226  0.00702212  1
  V  V62  1  0.75454543  0.61259801  0.87204547  1
  V  V63  1  0.00258889  0.12700165  0.12941218  1
  V  V64  1  -0.00544633  0.74823536  0.75320627  1
  V  V65  1  0.37490553  0.62604779  0.24468272  1
  V  V66  1  0.00163960  0.74297715  0.24979208  1
  V  V67  1  0.00139779  0.13105898  0.63234501  1
  V  V68  1  0.26203049  0.75028300  0.00412635  1
  V  V69  1  0.37598257  0.37533568  0.49653271  1
  V  V70  1  0.24911321  0.12722919  0.37423884  1
  V  V71  1  0.50137275  0.86674957  0.37503223  1
  V  V72  1  0.75287406  0.37857995  0.62969308  1
  V  V73  1  0.62684599  0.62278566  -0.00153601  1
  V  V74  1  0.87867107  0.12742714  0.75472286  1
  V  V75  1  0.62403095  0.87186986  0.24927523  1
  V  V76  1  0.75209569  0.25534413  0.00203507  1
  V  V77  1  0.62406051  0.00280924  0.62369481  1
  V  V78  1  0.74894484  0.12842480  0.87747886  1
  V  V79  1  0.62394291  0.87662215  0.75370727  1
  V  V80  1  0.87383800  0.50350974  0.37543393  1
  V  V81  1  0.00407670  0.61706205  0.62046254  1
  V  V82  1  0.51374401  0.64183234  0.61029970  1
  V  V83  1  0.49532915  0.75266078  0.23535054  1
  V  V84  1  0.23807979  -0.00084712  0.24423091  1
  Zn  Zn85  1  0.13571649  0.62033049  0.50835709  1
  Zn  Zn86  1  0.38043353  0.24810606  0.12062729  1
  Zn  Zn87  1  0.00912110  0.48921839  0.49300672  1
  Zn  Zn88  1  0.88184637  0.38869642  0.00719903  1
  Zn  Zn89  1  0.37717570  0.49374527  0.86598072  1
  Zn  Zn90  1  0.36263222  0.87033581  0.49292809  1
  Zn  Zn91  1  0.49918493  0.12720584  0.62599571  1
  Zn  Zn92  1  0.74533100  0.25078154  0.50223882  1
  Zn  Zn93  1  0.74359868  0.49644334  0.25482896  1
  Zn  Zn94  1  0.87333937  0.00062760  0.87781588  1
  Zn  Zn95  1  0.25139531  -0.00452588  0.74985404  1
  Zn  Zn96  1  0.85134314  0.62687227  0.25221487  1
  Zn  Zn97  1  0.75124609  0.74768039  -0.00542224  1
  Zn  Zn98  1  0.63038533  0.74839586  0.87362936  1
  Zn  Zn99  1  0.62064819  0.13144920  0.00533991  1
  Zn  Zn100  1  0.24160219  0.86712305  0.61367393  1
  Zn  Zn101  1  0.87942261  0.37343486  0.49698801  1
  Zn  Zn102  1  0.74084367  0.66840901  0.40556624  1
  Zn  Zn103  1  0.00020616  0.33950201  0.37544982  1
  Zn  Zn104  1  0.74912652  0.00044135  0.25015875  1
  Zn  Zn105  1  0.62209497  0.12726767  0.50321662  1
  Zn  Zn106  1  0.00109609  0.87197985  0.37547069  1
  Zn  Zn107  1  0.19026904  0.18567480  0.18275309  1
  Zn  Zn108  1  0.19203707  0.19055649  0.68532916  1
  Zn  Zn109  1  0.18531152  0.68652972  0.18535944  1
  Zn  Zn110  1  0.18647307  0.68544376  0.69216933  1
  Zn  Zn111  1  0.68958532  0.19223099  0.19212026  1
  Zn  Zn112  1  0.68652770  0.18948671  0.69113096  1
  Zn  Zn113  1  0.68739399  0.69321017  0.17694345  1
  Zn  Zn114  1  0.69097447  0.68752407  0.58178324  1
  Zn  Zn115  1  0.31075071  0.31236292  0.30930846  1
  Zn  Zn116  1  0.30520971  0.31283757  0.81118059  1
  Zn  Zn117  1  0.31324838  0.81111050  0.30985549  1
  Zn  Zn118  1  0.31055427  0.80789574  0.81425510  1
  Zn  Zn119  1  0.81213937  0.31303656  0.31674591  1
  Zn  Zn120  1  0.81218848  0.31354429  0.81103195  1
  Zn  Zn121  1  0.81908375  0.81353420  0.30426058  1
  Zn  Zn122  1  0.81116908  0.80744222  0.81335227  1
  Zn  Zn123  1  0.18391951  0.44011889  0.43338696  1
  Zn  Zn124  1  0.18668966  0.43500300  0.93288049  1
  Zn  Zn125  1  0.18387572  0.93772442  0.43429099  1
  Zn  Zn126  1  0.18810068  0.93563397  0.94132118  1
  Zn  Zn127  1  0.69541689  0.44227869  0.44716035  1
  Zn  Zn128  1  0.69092857  0.43872479  0.94296813  1
  Zn  Zn129  1  0.71344471  0.88539760  0.41502563  1
  Zn  Zn130  1  0.68354939  0.94059812  0.94000595  1
  Zn  Zn131  1  0.30899449  0.05804321  0.06223741  1
  Zn  Zn132  1  0.31059211  0.05889974  0.56356999  1
  Zn  Zn133  1  0.31406121  0.56147445  0.06138444  1
  Zn  Zn134  1  0.32462875  0.56761986  0.55781750  1
  Zn  Zn135  1  0.81151351  0.06524690  0.06287810  1
  Zn  Zn136  1  0.81137491  0.06057481  0.56281930  1
  Zn  Zn137  1  0.80759175  0.55993414  0.06798978  1
  Zn  Zn138  1  0.82222750  0.55862526  0.56229284  1
  Zn  Zn139  1  0.43030625  0.43825338  0.17522390  1
  Zn  Zn140  1  0.43957422  0.43993587  0.68220587  1
  Zn  Zn141  1  0.43636485  0.94009448  0.18627826  1
  Zn  Zn142  1  0.43416787  0.93518571  0.69013168  1
  Zn  Zn143  1  0.93465616  0.43503908  0.20003314  1
  Zn  Zn144  1  0.94373411  0.43423597  0.69134470  1
  Zn  Zn145  1  0.93913091  0.94065202  0.19049058  1
  Zn  Zn146  1  0.93883794  0.93958643  0.69028806  1
  Zn  Zn147  1  0.04056926  0.12439082  0.33596634  1
  Zn  Zn148  1  0.06002978  0.05843305  0.81600511  1
  Zn  Zn149  1  0.06331345  0.56299110  0.31623562  1
  Zn  Zn150  1  0.06578219  0.56559925  0.80757059  1
  Zn  Zn151  1  0.56111394  0.06002083  0.31234994  1
  Zn  Zn152  1  0.56034059  0.06691551  0.81513704  1
  Zn  Zn153  1  0.60962648  0.59993403  0.28580435  1
  Zn  Zn154  1  0.56285287  0.56608332  0.81140035  1
  Zn  Zn155  1  0.43767131  0.18748730  0.43296031  1
  Zn  Zn156  1  0.43660498  0.18666557  0.93507159  1
  Zn  Zn157  1  0.55127058  0.68486537  0.43767414  1
  Zn  Zn158  1  0.43696095  0.68348632  0.93639393  1
  Zn  Zn159  1  0.93024708  0.18496808  0.44801178  1
  Zn  Zn160  1  0.93731968  0.19286090  0.94061425  1
  Zn  Zn161  1  0.93301866  0.68283994  0.43467879  1
  Zn  Zn162  1  0.93735108  0.56352653  0.93810403  1
  Zn  Zn163  1  0.06365933  0.31348173  0.06025822  1
  Zn  Zn164  1  0.06177263  0.31326571  0.56407282  1
  Zn  Zn165  1  0.06493142  0.80726898  0.06481906  1
  Zn  Zn166  1  0.05959802  0.81110156  0.56196922  1
  Zn  Zn167  1  0.55927731  0.31341793  0.06408389  1
  Zn  Zn168  1  0.56322985  0.31416801  0.56384676  1
  Zn  Zn169  1  0.56226802  0.81271102  0.05931199  1
  Zn  Zn170  1  0.55312002  0.82488200  0.57114072  1
  O  O171  1  0.11544229  0.13054582  0.11453024  1
  O  O172  1  0.11947685  0.11959001  0.62442684  1
  O  O173  1  0.11353349  0.62878199  0.11585381  1
  O  O174  1  0.10861192  0.63450857  0.62561246  1
  O  O175  1  0.63051618  0.11388449  0.12734012  1
  O  O176  1  0.62039571  0.11820466  0.62698396  1
  O  O177  1  0.61074554  0.62891225  0.11500195  1
  O  O178  1  0.61964299  0.61065741  0.64173513  1
  O  O179  1  0.36690971  0.38676378  0.37818309  1
  O  O180  1  0.36475752  0.37567775  0.88650201  1
  O  O181  1  0.38256510  0.88307109  0.37204947  1
  O  O182  1  0.37964364  0.88692704  0.86927893  1
  O  O183  1  0.88404990  0.38040630  0.37385752  1
  O  O184  1  0.89382510  0.36863161  0.87020671  1
  O  O185  1  0.88503572  0.89376127  0.36266144  1
  O  O186  1  0.88051849  0.87530220  0.88417373  1
  O  O187  1  0.25931521  0.00535747  0.36709144  1
  O  O188  1  0.25595356  0.00434588  0.87459648  1
  O  O189  1  0.25784524  0.50671776  0.36332731  1
  O  O190  1  0.25331932  0.51313450  0.87867913  1
  O  O191  1  0.75773097  0.00048549  0.37407375  1
  O  O192  1  0.74957986  0.00971869  0.87257778  1
  O  O193  1  0.76602161  0.48815535  0.37328942  1
  O  O194  1  0.74530549  0.51240949  0.87441958  1
  O  O195  1  0.25398873  0.49066877  0.13183959  1
  O  O196  1  0.25851470  0.49121247  0.61692818  1
  O  O197  1  0.25124094  0.98875439  0.13255033  1
  O  O198  1  0.23508860  1.00027231  0.63002468  1
  O  O199  1  0.74833123  0.48319484  0.13157940  1
  O  O200  1  0.74298617  0.49191753  0.62420159  1
  O  O201  1  0.74162017  0.99437659  0.12459164  1
  O  O202  1  0.74202531  0.99943887  0.63542687  1
  O  O203  1  0.01668452  0.37123037  0.25122776  1
  O  O204  1  0.01614074  0.37570968  0.75992486  1
  O  O205  1  0.00812535  0.86505761  0.24733845  1
  O  O206  1  0.00878767  0.86942738  0.75647530  1
  O  O207  1  0.49499994  0.37194886  0.25330817  1
  O  O208  1  0.50442094  0.36567867  0.74646826  1
  O  O209  1  0.50280457  0.86989676  0.25337325  1
  O  O210  1  0.50152107  0.87274487  0.76327008  1
  O  O211  1  0.48788414  0.13105481  0.25511318  1
  O  O212  1  0.48751725  0.13534849  0.75178007  1
  O  O213  1  0.50102484  0.63389796  0.23983274  1
  O  O214  1  0.49544936  0.63659383  0.74221377  1
  O  O215  1  0.99075314  0.11961627  0.23384036  1
  O  O216  1  0.99096950  0.11805161  0.74465699  1
  O  O217  1  1.00456023  0.63570103  0.24200400  1
  O  O218  1  0.99533362  0.63207002  0.74323149  1
  O  O219  1  0.36664811  0.25408325  -0.00165249  1
  O  O220  1  0.37048979  0.25542774  0.50322531  1
  O  O221  1  0.36034920  0.74718365  -0.00374709  1
  O  O222  1  0.38099660  0.75297207  0.51909838  1
  O  O223  1  0.86732688  0.25640557  0.00896331  1
  O  O224  1  0.86794993  0.24807371  0.51828078  1
  O  O225  1  0.87615436  0.76150750  0.01407709  1
  O  O226  1  0.88719869  0.75671230  0.51505500  1
  O  O227  1  0.13425627  0.23679159  0.50899431  1
  O  O228  1  0.13006567  0.24079924  0.99018782  1
  O  O229  1  0.11956212  0.74553971  0.48614113  1
  O  O230  1  0.12908775  0.74251737  0.99065257  1
  O  O231  1  0.62146627  0.24757873  0.48880187  1
  O  O232  1  0.62935725  0.25079090  0.99360172  1
  O  O233  1  0.58828172  0.72182715  0.54170771  1
  O  O234  1  0.62384728  0.73709079  0.99651939  1
  O  O235  1  0.49830187  0.25435733  0.14181671  1
  O  O236  1  0.49279018  0.24894402  0.63426915  1
  O  O237  1  0.49722152  0.74593778  0.13079741  1
  O  O238  1  0.48361873  0.75431718  0.64052250  1
  O  O239  1  0.98877005  0.24189028  0.11639476  1
  O  O240  1  0.99291412  0.23729159  0.62602140  1
  O  O241  1  0.99351113  0.74383230  0.13103669  1
  O  O242  1  0.99188804  0.74822158  0.63440443  1
  O  O243  1  0.00228717  0.22448758  0.37462328  1
  O  O244  1  0.01283663  0.25621854  0.87705353  1
  O  O245  1  0.00582718  0.74871866  0.36606528  1
  O  O246  1  0.00979041  0.75708030  0.86823726  1
  O  O247  1  0.50611372  0.24955146  0.36390538  1
  O  O248  1  0.50798634  0.24864509  0.86731753  1
  O  O249  1  0.50080965  0.76359164  0.36634612  1
  O  O250  1  0.49694080  0.75960209  0.87268069  1
  O  O251  1  0.24599854  0.13063893  0.49496869  1
  O  O252  1  0.24169110  0.12958379  0.99566452  1
  O  O253  1  0.25652254  0.62444714  0.48397961  1
  O  O254  1  0.24492659  0.63429028  0.99633147  1
  O  O255  1  0.74588051  0.12434140  0.48972967  1
  O  O256  1  0.74813451  0.13875617  0.99591173  1
  O  O257  1  0.76052438  0.63604059  0.51325833  1
  O  O258  1  0.74105213  0.62566487  0.99523673  1
  O  O259  1  0.25056597  0.36712750  0.00351751  1
  O  O260  1  0.25287979  0.36845192  0.50455864  1
  O  O261  1  0.24412000  0.86010086  0.00731592  1
  O  O262  1  0.25026262  0.87966809  0.50127518  1
  O  O263  1  0.75208571  0.36562065  0.01029395  1
  O  O264  1  0.75509807  0.37027898  0.51730119  1
  O  O265  1  0.75454462  0.87625312  0.00805304  1
  O  O266  1  0.74846055  0.88891076  0.52245167  1
  O  O267  1  0.13617671  0.49454578  0.25303435  1
  O  O268  1  0.12993481  0.48877846  0.75039462  1
  O  O269  1  0.13724982  0.99057887  0.25399094  1
  O  O270  1  0.12402016  0.99090170  0.74515061  1
  O  O271  1  0.61255100  0.48543340  0.26047127  1
  O  O272  1  0.61453848  0.48576535  0.74496496  1
  O  O273  1  0.62221654  0.99066152  0.23996810  1
  O  O274  1  0.62521406  0.99728521  0.74374530  1
  O  O275  1  0.36863555  0.00630918  0.25667810  1
  O  O276  1  0.37307691  0.00876649  0.75736914  1
  O  O277  1  0.36829928  0.50239996  0.25236443  1
  O  O278  1  0.38311254  0.51565212  0.74781049  1
  O  O279  1  0.87335174  0.01373385  0.25492179  1
  O  O280  1  0.86925786  0.01105561  0.75394870  1
  O  O281  1  0.86908898  0.50622283  0.26142354  1
  O  O282  1  0.87845722  0.51336425  0.74436812  1
  O  O283  1  0.12833011  0.37002600  0.35878925  1
  O  O284  1  0.12177409  0.36668581  0.86424729  1
  O  O285  1  0.12325243  0.86734673  0.36128350  1
  O  O286  1  0.12008080  0.86789693  0.87175953  1
  O  O287  1  0.62120662  0.37069215  0.37786087  1
  O  O288  1  0.63200004  0.36503048  0.86935505  1
  O  O289  1  0.61155797  0.88919163  0.36037337  1
  O  O290  1  0.61563998  0.87541007  0.87088412  1
  O  O291  1  0.36772953  0.12595826  0.13668675  1
  O  O292  1  0.37429925  0.13045423  0.63417993  1
  O  O293  1  0.38501100  0.61961963  0.13577680  1
  O  O294  1  0.38551454  0.63724847  0.62954087  1
  O  O295  1  0.87842536  0.13258450  0.13208157  1
  O  O296  1  0.88167396  0.12823254  0.63368608  1
  O  O297  1  0.87926324  0.63366005  0.12877931  1
  O  O298  1  0.88558897  0.63705044  0.63644721  1
  O  O299  1  0.25132457  0.25387151  0.11042518  1
  O  O300  1  0.25714387  0.25477878  0.61293142  1
  O  O301  1  0.24697742  0.75338570  0.11101185  1
  O  O302  1  0.26183055  0.74723268  0.62999770  1
  O  O303  1  0.75812060  0.25502172  0.11981038  1
  O  O304  1  0.75645631  0.25537191  0.62664212  1
  O  O305  1  0.75882501  0.76097622  0.11917270  1
  O  O306  1  0.76661812  0.76181734  0.63228144  1
  O  O307  1  0.25708814  0.24195591  0.38784491  1
  O  O308  1  0.23989807  0.24420915  0.88386506  1
  O  O309  1  0.24233932  0.74023889  0.36559396  1
  O  O310  1  0.24224882  0.74364548  0.88620899  1
  O  O311  1  0.74045248  0.23994559  0.37786949  1
  O  O312  1  0.74459891  0.24877494  0.88386907  1
  O  O313  1  0.74781747  0.78076337  0.38125340  1
  O  O314  1  0.74901914  0.73766754  0.87733668  1
  O  O315  1  0.00408485  0.11946211  0.00694534  1
  O  O316  1  0.00894983  0.11745078  0.51393684  1
  O  O317  1  0.00997914  0.62166442  0.00946409  1
  O  O318  1  -0.00303186  0.62804980  0.51653784  1
  O  O319  1  0.50165782  0.11338290  -0.00372227  1
  O  O320  1  0.49799151  0.11263869  0.50099691  1
  O  O321  1  0.50332763  0.61857196  0.00453718  1
  O  O322  1  0.48896865  0.60973942  0.50798916  1
  O  O323  1  0.49031682  0.38703223  0.50955776  1
  O  O324  1  0.48923697  0.38228703  1.00410015  1
  O  O325  1  0.49522929  0.88622560  0.49132156  1
  O  O326  1  0.50322084  0.88554939  0.98839012  1
  O  O327  1  0.99883569  0.37023408  0.49219049  1
  O  O328  1  1.00286789  0.37322841  0.98180475  1
  O  O329  1  1.01048620  0.89274032  0.49496253  1
  O  O330  1  0.99774597  0.88214479  1.00118732  1
  O  O331  1  0.49684180  0.48894274  0.37803776  1
  O  O332  1  0.49605698  0.50579647  0.88709452  1
  O  O333  1  0.48879520  0.99519740  0.38052909  1
  O  O334  1  0.49213001  0.99578643  0.88143969  1
  O  O335  1  0.98259127  0.50864383  0.37351418  1
  O  O336  1  1.00510625  0.48986275  0.87223354  1
  O  O337  1  0.99305038  1.01558282  0.38542818  1
  O  O338  1  0.99719107  0.99295472  0.88888901  1
  O  O339  1  -0.00279194  0.00822708  0.11372141  1
  O  O340  1  0.00902934  0.00701821  0.62178256  1
  O  O341  1  -0.00665486  0.50997415  0.13316359  1
  O  O342  1  -0.00367872  0.51505174  0.62447457  1
  O  O343  1  0.50715757  -0.00461951  0.11532891  1
  O  O344  1  0.50278872  -0.00054362  0.61939018  1
  O  O345  1  0.49592412  0.50852089  0.11082948  1
  O  O346  1  0.50806576  0.51006995  0.61723210  1
  O  O347  1  0.24305640  0.38012226  0.24047003  1
  O  O348  1  0.23770844  0.37189308  0.73994307  1
  O  O349  1  0.24543644  0.87961965  0.24215275  1
  O  O350  1  0.23522216  0.87279448  0.75105197  1
  O  O351  1  0.74841229  0.37072679  0.23871326  1
  O  O352  1  0.73996260  0.37003588  0.74126250  1
  O  O353  1  0.74162247  0.87872686  0.23565453  1
  O  O354  1  0.74409454  0.88270304  0.74736589  1
  O  O355  1  0.25326067  0.11804859  0.25583953  1
  O  O356  1  0.26073726  0.12545373  0.75632454  1
  O  O357  1  0.25796742  0.61813862  0.24894818  1
  O  O358  1  0.25922930  0.63053502  0.76096760  1
  O  O359  1  0.75499357  0.12209430  0.26135657  1
  O  O360  1  0.75613621  0.12088176  0.75826104  1
  O  O361  1  0.73066113  0.61660109  0.24704828  1
  O  O362  1  0.76771918  0.62769417  0.75649149  1
  O  O363  1  0.36486588  0.11760948  0.36824565  1
  O  O364  1  0.36892541  0.11572957  0.86899884  1
  O  O365  1  0.36918743  0.61036500  0.35813822  1
  O  O366  1  0.36727530  0.62406287  0.86574386  1
  O  O367  1  0.86408473  0.11818574  0.36932194  1
  O  O368  1  0.86952461  0.12764313  0.87025760  1
  O  O369  1  0.86067573  0.61866439  0.37311300  1
  O  O370  1  0.87223316  0.62407097  0.86162747  1
  O  O371  1  0.13595106  0.36806196  0.13283437  1
  O  O372  1  0.13122975  0.36992137  0.63864550  1
  O  O373  1  0.13426234  0.86781701  0.13674931  1
  O  O374  1  0.12219368  0.88077401  0.63446842  1
  O  O375  1  0.63933706  0.36784734  0.12521745  1
  O  O376  1  0.63237573  0.38144286  0.63402057  1
  O  O377  1  0.63152782  0.88358755  0.12621690  1
  O  O378  1  0.63037610  0.88424447  0.63553902  1
  O  O379  1  0.13185998  0.25721327  0.25001334  1
  O  O380  1  0.13041028  0.25132740  0.76205655  1
  O  O381  1  0.11878614  0.75512359  0.25550802  1
  O  O382  1  0.11680827  0.75439201  0.76043051  1
  O  O383  1  0.61648392  0.24575148  0.26350266  1
  O  O384  1  0.61568347  0.25957425  0.75663044  1
  O  O385  1  0.61436854  0.76545793  0.23960897  1
  O  O386  1  0.60605804  0.76183420  0.75348315  1
  O  O387  1  0.37987702  0.24046744  0.24956076  1
  O  O388  1  0.37931376  0.24595241  0.74812204  1
  O  O389  1  0.38449277  0.73828008  0.25380540  1
  O  O390  1  0.38101394  0.74158433  0.74890104  1
  O  O391  1  0.86942587  0.23756720  0.24292894  1
  O  O392  1  0.87046086  0.23658084  0.74238147  1
  O  O393  1  0.88373434  0.74688509  0.23849471  1
  O  O394  1  0.88766009  0.74598479  0.74792860  1
  O  O395  1  0.38279672  0.49477306  0.48750595  1
  O  O396  1  0.38112777  0.49144478  0.99591409  1
  O  O397  1  0.37968022  0.99896542  0.49140540  1
  O  O398  1  0.38089893  1.00321020  0.99090366  1
  O  O399  1  0.88317761  0.49447436  0.48973993  1
  O  O400  1  0.86981722  0.49940502  0.99827901  1
  O  O401  1  0.88490738  1.00732805  0.49186289  1
  O  O402  1  0.88255904  0.99498973  1.00040157  1
  O  O403  1  0.11817030  0.01366462  -0.00605430  1
  O  O404  1  0.12105811  0.01202352  0.50879307  1
  O  O405  1  0.13273373  0.51128417  -0.00162854  1
  O  O406  1  0.12089072  0.50908177  0.49184329  1
  O  O407  1  0.61564308  0.00597959  0.00804803  1
  O  O408  1  0.61398234  0.00179802  0.51693388  1
  O  O409  1  0.61699873  0.51155706  -0.00330068  1
  O  O410  1  0.61705525  0.49363800  0.51385107  1
  O  O411  1  0.36054464  0.36961565  0.11157360  1
  O  O412  1  0.36588010  0.37044444  0.62021810  1
  O  O413  1  0.36256198  0.87320691  0.12944000  1
  O  O414  1  0.36773290  0.86322370  0.62979695  1
  O  O415  1  0.87060482  0.36594650  0.12815387  1
  O  O416  1  0.87046567  0.36563237  0.63267410  1
  O  O417  1  0.86730475  0.87318194  0.12251346  1
  O  O418  1  0.87030181  0.86492661  0.63490390  1
  O  O419  1  0.14220654  0.11745359  0.38740968  1
  O  O420  1  0.12648259  0.13318308  0.87874093  1
  O  O421  1  0.13838242  0.63426351  0.37057952  1
  O  O422  1  0.13106178  0.63103075  0.88050439  1
  O  O423  1  0.63008175  0.12911143  0.37707509  1
  O  O424  1  0.63161017  0.13952472  0.87480652  1
  O  O425  1  0.63314561  0.62986246  0.38819293  1
  O  O426  1  0.63305535  0.62707529  0.87947192  1
