# generated using pymatgen
data_V85Zn86O256
_symmetry_space_group_name_H-M   'P 1'
_cell_length_a   16.94333023
_cell_length_b   16.95082608
_cell_length_c   16.95470452
_cell_angle_alpha   90.03349285
_cell_angle_beta   89.96290404
_cell_angle_gamma   90.07427591
_symmetry_Int_Tables_number   1
_chemical_formula_structural   V85Zn86O256
_chemical_formula_sum   'V85 Zn86 O256'
_cell_volume   4869.44358651
_cell_formula_units_Z   1
loop_
 _symmetry_equiv_pos_site_id
 _symmetry_equiv_pos_as_xyz
  1  'x, y, z'
loop_
 _atom_site_type_symbol
 _atom_site_label
 _atom_site_symmetry_multiplicity
 _atom_site_fract_x
 _atom_site_fract_y
 _atom_site_fract_z
 _atom_site_occupancy
  V  V0  1  0.49738922  -0.00099145  0.50000635  1
  V  V1  1  0.14176810  0.74643506  0.37778663  1
  V  V2  1  0.50404433  0.75601936  0.24536183  1
  V  V3  1  0.37622127  0.00016495  0.37401395  1
  V  V4  1  0.24914885  0.87272219  0.62387796  1
  V  V5  1  0.87394064  0.87433298  0.50445070  1
  V  V6  1  -0.00194309  0.87590301  0.87589616  1
  V  V7  1  0.24760716  0.49026416  0.25190780  1
  V  V8  1  0.63018743  0.12115519  0.00544523  1
  V  V9  1  0.12476390  0.00404842  0.62891313  1
  V  V10  1  0.62276656  0.24773577  0.87226051  1
  V  V11  1  0.75454981  0.50261059  0.24842053  1
  V  V12  1  0.37024481  0.50002925  0.87912708  1
  V  V13  1  0.12481106  0.49557145  0.12958793  1
  V  V14  1  0.50347166  0.87358212  0.87363134  1
  V  V15  1  0.62559491  0.75350094  0.37311602  1
  V  V16  1  0.37062365  0.25241624  0.12364441  1
  V  V17  1  0.82018939  0.68094627  0.19547805  1
  V  V18  1  0.62681201  0.50222375  0.62605917  1
  V  V19  1  -0.00268253  0.00120007  0.00027785  1
  V  V20  1  0.62321543  0.36959152  0.75038628  1
  V  V21  1  0.87786146  0.50312583  0.37453120  1
  V  V22  1  0.62324015  -0.00442250  0.63032918  1
  V  V23  1  0.49347723  0.12752021  0.62623385  1
  V  V24  1  0.12727996  -0.00738248  0.12288913  1
  V  V25  1  0.88084827  0.49527600  0.87335494  1
  V  V26  1  0.49572301  0.37403230  0.87144634  1
  V  V27  1  0.75148603  0.49975194  0.75610867  1
  V  V28  1  0.00731116  0.50491169  -0.00103171  1
  V  V29  1  0.75618033  0.63134496  0.38271400  1
  V  V30  1  0.64018282  0.62591570  -0.01154536  1
  V  V31  1  0.62376683  0.12438790  0.50278091  1
  V  V32  1  0.88194908  0.37280776  -0.00579432  1
  V  V33  1  0.36923246  0.62642597  0.24825882  1
  V  V34  1  0.24606408  0.49095924  0.74776734  1
  V  V35  1  0.74603674  0.86943119  0.62646743  1
  V  V36  1  0.50628673  0.12241343  0.12766566  1
  V  V37  1  0.75166647  0.24952250  -0.00210582  1
  V  V38  1  0.24358093  0.62900299  0.88723128  1
  V  V39  1  0.37437514  0.50729493  0.37430487  1
  V  V40  1  0.50067189  0.75318537  0.75149452  1
  V  V41  1  0.86465351  0.86351466  0.01371720  1
  V  V42  1  0.49945175  -0.00634517  -0.00367726  1
  V  V43  1  0.62779553  0.25182131  0.37711038  1
  V  V44  1  0.50010743  0.37838046  0.37505609  1
  V  V45  1  0.50227971  0.62588260  0.11606385  1
  V  V46  1  0.12658948  0.74841272  0.89168046  1
  V  V47  1  0.43904747  0.19215054  0.79140153  1
  V  V48  1  0.11903562  0.24966967  0.88817395  1
  V  V49  1  0.75175573  0.11878219  0.37743077  1
  V  V50  1  0.36201936  0.87513659  -0.00462236  1
  V  V51  1  0.12922094  0.87133755  0.24924514  1
  V  V52  1  0.24559003  0.13353236  0.37436579  1
  V  V53  1  0.62917144  0.37884919  0.25041854  1
  V  V54  1  0.24894094  0.25985468  0.50170180  1
  V  V55  1  0.74330601  -0.01029624  0.24523466  1
  V  V56  1  0.49987544  0.62573056  0.62621894  1
  V  V57  1  0.00584323  0.75013566  0.74951687  1
  V  V58  1  0.00170994  0.00378728  0.50490180  1
  V  V59  1  0.50278249  0.50257858  0.49923538  1
  V  V60  1  0.88941954  0.24699787  0.62751269  1
  V  V61  1  0.10824138  0.36366355  0.74975472  1
  V  V62  1  0.62994057  0.63373587  0.50594858  1
  V  V63  1  0.13643820  0.63095766  0.49946624  1
  V  V64  1  0.00452707  0.87195478  0.37763192  1
  V  V65  1  0.26591509  0.00780529  0.75375136  1
  V  V66  1  0.36849480  0.62644059  0.75038552  1
  V  V67  1  0.74942129  0.37891162  0.12109332  1
  V  V68  1  0.37538380  0.25883883  0.62342836  1
  V  V69  1  0.36969404  0.74904147  0.62021060  1
  V  V70  1  0.37045325  0.86977635  0.49602668  1
  V  V71  1  0.87549987  0.62736318  0.75793576  1
  V  V72  1  0.87985983  0.37673766  0.49744894  1
  V  V73  1  0.00709551  0.63161029  0.12918229  1
  V  V74  1  0.37910065  0.12746189  0.25025870  1
  V  V75  1  0.74988704  0.00051401  0.74998744  1
  V  V76  1  0.88879875  0.12680203  0.74822396  1
  V  V77  1  0.87563082  0.74839165  0.62157198  1
  V  V78  1  0.36055985  0.75348090  0.11900072  1
  V  V79  1  0.12416050  0.13055714  0.50159843  1
  V  V80  1  -0.00187421  0.12340460  0.12791460  1
  V  V81  1  0.12618556  0.49739819  0.62478906  1
  V  V82  1  0.25232223  -0.00366447  0.24610188  1
  V  V83  1  0.75004082  0.24903564  0.50124026  1
  V  V84  1  0.75112811  0.37224378  0.62564698  1
  Zn  Zn85  1  0.75241836  0.12367899  0.87323687  1
  Zn  Zn86  1  0.87502234  -0.00267812  0.37514943  1
  Zn  Zn87  1  0.62394303  0.50342324  0.12256831  1
  Zn  Zn88  1  0.87285389  0.00075198  0.87636862  1
  Zn  Zn89  1  0.88133463  0.25157824  0.12635872  1
  Zn  Zn90  1  0.50093162  0.49674520  -0.00050105  1
  Zn  Zn91  1  0.87728389  0.12127855  0.25228918  1
  Zn  Zn92  1  0.02007845  0.37040008  0.36383606  1
  Zn  Zn93  1  0.12813316  0.87718786  0.75213400  1
  Zn  Zn94  1  0.25884310  0.13005125  0.87596127  1
  Zn  Zn95  1  -0.00316208  0.74709442  0.25175414  1
  Zn  Zn96  1  0.37399899  0.38062115  0.50252291  1
  Zn  Zn97  1  0.23680319  0.36549742  0.11963415  1
  Zn  Zn98  1  0.00342532  0.50328920  0.49631600  1
  Zn  Zn99  1  0.02317695  0.24941688  0.25285500  1
  Zn  Zn100  1  0.64030001  0.75433963  0.87757495  1
  Zn  Zn101  1  0.36708002  0.36926154  -0.00316353  1
  Zn  Zn102  1  0.50486110  0.87676557  0.36995975  1
  Zn  Zn103  1  0.13808039  0.12509464  0.00084800  1
  Zn  Zn104  1  0.50780911  0.25045979  0.24819178  1
  Zn  Zn105  1  0.00150664  0.62491165  0.62184672  1
  Zn  Zn106  1  0.62679693  -0.01888858  0.12565866  1
  Zn  Zn107  1  0.18988038  0.17582086  0.18156316  1
  Zn  Zn108  1  0.19067654  0.18826025  0.68647313  1
  Zn  Zn109  1  0.18474056  0.68185139  0.18845944  1
  Zn  Zn110  1  0.18735262  0.68653084  0.68859600  1
  Zn  Zn111  1  0.72089363  0.20561320  0.20751205  1
  Zn  Zn112  1  0.68856240  0.18497085  0.68809605  1
  Zn  Zn113  1  0.68526420  0.81299042  0.18891024  1
  Zn  Zn114  1  0.70537306  0.70345548  0.72142652  1
  Zn  Zn115  1  0.19316823  0.31420966  0.31179185  1
  Zn  Zn116  1  0.29992427  0.31523533  0.81663483  1
  Zn  Zn117  1  0.31571105  0.81271380  0.30821933  1
  Zn  Zn118  1  0.31040443  0.81492541  0.81308606  1
  Zn  Zn119  1  0.87402317  0.30937162  0.30751281  1
  Zn  Zn120  1  0.81649578  0.30992056  0.81264730  1
  Zn  Zn121  1  0.81350816  0.81537464  0.32362311  1
  Zn  Zn122  1  0.81587195  0.81659523  0.81454755  1
  Zn  Zn123  1  0.19213333  0.44587367  0.44068129  1
  Zn  Zn124  1  0.18627561  0.43004783  0.93666963  1
  Zn  Zn125  1  0.18955948  0.94094995  0.43686637  1
  Zn  Zn126  1  0.18499244  0.94149116  0.93250587  1
  Zn  Zn127  1  0.69130720  0.44150609  0.43792811  1
  Zn  Zn128  1  0.68614525  0.44046586  0.93629429  1
  Zn  Zn129  1  0.68808261  0.93594692  0.44328214  1
  Zn  Zn130  1  0.68768118  0.93489725  0.93761132  1
  Zn  Zn131  1  0.31431831  0.06010380  0.06034308  1
  Zn  Zn132  1  0.31085324  0.06449178  0.56376300  1
  Zn  Zn133  1  0.31046306  0.55946987  0.06363612  1
  Zn  Zn134  1  0.31032463  0.56122589  0.56263753  1
  Zn  Zn135  1  0.81406208  0.05599425  0.06330148  1
  Zn  Zn136  1  0.81456494  0.06172978  0.56614090  1
  Zn  Zn137  1  0.81516103  0.56135590  0.05649488  1
  Zn  Zn138  1  0.81371176  0.56319428  0.56529944  1
  Zn  Zn139  1  0.43912241  0.43820775  0.19070880  1
  Zn  Zn140  1  0.43731458  0.43808877  0.69100412  1
  Zn  Zn141  1  0.43907930  0.93485710  0.18067054  1
  Zn  Zn142  1  0.43687769  0.93531094  0.68640814  1
  Zn  Zn143  1  0.93648142  0.44040919  0.18503472  1
  Zn  Zn144  1  0.94023302  0.43870221  0.68342743  1
  Zn  Zn145  1  0.93457030  0.93696584  0.19090958  1
  Zn  Zn146  1  0.93882814  0.93931105  0.68890396  1
  Zn  Zn147  1  0.06374059  0.06218425  0.31402815  1
  Zn  Zn148  1  0.06618216  0.06564692  0.81464737  1
  Zn  Zn149  1  0.06337768  0.56389341  0.31336512  1
  Zn  Zn150  1  0.06294228  0.56377080  0.81258704  1
  Zn  Zn151  1  0.56824888  0.05909978  0.31292870  1
  Zn  Zn152  1  0.56820312  0.05547178  0.81763857  1
  Zn  Zn153  1  0.56512262  0.57066757  0.30898897  1
  Zn  Zn154  1  0.55892268  0.56076294  0.81191937  1
  Zn  Zn155  1  0.43652226  0.19087820  0.43682297  1
  Zn  Zn156  1  0.43744477  0.18288056  0.95373867  1
  Zn  Zn157  1  0.43908995  0.68896714  0.43587882  1
  Zn  Zn158  1  0.43293284  0.69070846  0.93668921  1
  Zn  Zn159  1  0.93835318  0.18703525  0.43982080  1
  Zn  Zn160  1  0.94329290  0.18690976  0.93306473  1
  Zn  Zn161  1  0.94503909  0.68745080  0.44052653  1
  Zn  Zn162  1  0.93776191  0.68663957  0.93951444  1
  Zn  Zn163  1  0.05934055  0.31312663  0.06585783  1
  Zn  Zn164  1  0.06618120  0.31787607  0.55993546  1
  Zn  Zn165  1  0.05722485  0.81581157  0.06352749  1
  Zn  Zn166  1  0.06486598  0.81200723  0.56244676  1
  Zn  Zn167  1  0.56185667  0.31152603  0.06039930  1
  Zn  Zn168  1  0.55961176  0.31238690  0.56417419  1
  Zn  Zn169  1  0.56015683  0.80441694  0.05432177  1
  Zn  Zn170  1  0.55824092  0.81277168  0.56317806  1
  O  O171  1  0.11577786  0.10965881  0.12110978  1
  O  O172  1  0.13199778  0.11611154  0.61222916  1
  O  O173  1  0.11346579  0.61538524  0.12371380  1
  O  O174  1  0.12486031  0.62186373  0.61570823  1
  O  O175  1  0.62077690  0.12544146  0.11295997  1
  O  O176  1  0.61507609  0.11871714  0.62119357  1
  O  O177  1  0.60716051  0.62445870  0.10892417  1
  O  O178  1  0.62114797  0.61923417  0.62010866  1
  O  O179  1  0.39508009  0.38977596  0.37754780  1
  O  O180  1  0.37810197  0.38214305  0.87229325  1
  O  O181  1  0.37625290  0.88069157  0.38131844  1
  O  O182  1  0.38208129  0.86736423  0.88986498  1
  O  O183  1  0.85708498  0.39023919  0.38843013  1
  O  O184  1  0.87435896  0.38215722  0.88170153  1
  O  O185  1  0.88545715  0.87578256  0.38824337  1
  O  O186  1  0.88837049  0.87820247  0.87644369  1
  O  O187  1  0.25671186  0.00818452  0.36527119  1
  O  O188  1  0.24645968  0.00000048  0.85554825  1
  O  O189  1  0.26653957  0.49905597  0.36767513  1
  O  O190  1  0.25303628  0.50727123  0.86678605  1
  O  O191  1  0.74839050  0.00334827  0.37204949  1
  O  O192  1  0.75018024  0.00110775  0.86370120  1
  O  O193  1  0.75393054  0.51328599  0.36823404  1
  O  O194  1  0.76258105  0.49371475  0.86480450  1
  O  O195  1  0.24017488  0.50279970  0.13373409  1
  O  O196  1  0.23763249  0.50561686  0.63412056  1
  O  O197  1  0.24254604  1.00385724  0.13859304  1
  O  O198  1  0.24491153  0.99311318  0.63217563  1
  O  O199  1  0.74969323  0.49658536  0.13078817  1
  O  O200  1  0.74755221  0.48713340  0.63041491  1
  O  O201  1  0.74705338  1.00349192  0.14194315  1
  O  O202  1  0.74109984  0.99334766  0.62838674  1
  O  O203  1  -0.02829168  0.36074052  0.25412695  1
  O  O204  1  0.01009158  0.37701989  0.75051548  1
  O  O205  1  0.01074067  0.87501670  0.26043533  1
  O  O206  1  0.00116070  0.86809022  0.75790779  1
  O  O207  1  0.51153374  0.37569012  0.25796343  1
  O  O208  1  0.50749256  0.37879857  0.76223903  1
  O  O209  1  0.49219507  0.86041630  0.25081240  1
  O  O210  1  0.48860519  0.86624051  0.76061579  1
  O  O211  1  0.49814226  0.12177799  0.24311390  1
  O  O212  1  0.50445572  0.12347664  0.74377503  1
  O  O213  1  0.49295996  0.63350600  0.23699796  1
  O  O214  1  0.48539517  0.62720914  0.74564582  1
  O  O215  1  0.99709578  0.12303952  0.24322983  1
  O  O216  1  0.98709448  0.11859230  0.74740186  1
  O  O217  1  1.00024456  0.62520438  0.23486775  1
  O  O218  1  0.99298281  0.63282796  0.74643643  1
  O  O219  1  0.37747567  0.25066554  0.01882252  1
  O  O220  1  0.36899039  0.25363508  0.50632276  1
  O  O221  1  0.37413555  0.75983860  0.01070214  1
  O  O222  1  0.37793778  0.75908769  0.50444053  1
  O  O223  1  0.86948751  0.25594130  -0.00075379  1
  O  O224  1  0.86731946  0.25684213  0.50895424  1
  O  O225  1  0.87863560  0.76493727  -0.00454001  1
  O  O226  1  0.88213038  0.75759566  0.51413526  1
  O  O227  1  0.13471528  0.24199278  0.50624614  1
  O  O228  1  0.12274451  0.25104350  0.99224928  1
  O  O229  1  0.12512351  0.73977234  0.49423805  1
  O  O230  1  0.12127240  0.75423388  0.99070315  1
  O  O231  1  0.62978239  0.24500846  0.49775594  1
  O  O232  1  0.63093011  0.24254476  0.99276450  1
  O  O233  1  0.61726639  0.73749505  0.49683520  1
  O  O234  1  0.62160122  0.73088124  0.99173469  1
  O  O235  1  0.49755384  0.23611370  0.12582873  1
  O  O236  1  0.49182325  0.24027535  0.62432435  1
  O  O237  1  0.49050352  0.73933295  0.12821935  1
  O  O238  1  0.48834369  0.74493510  0.63017229  1
  O  O239  1  0.99932472  0.23800480  0.12916859  1
  O  O240  1  0.98762774  0.25457455  0.61817730  1
  O  O241  1  1.00482449  0.73540209  0.12760095  1
  O  O242  1  0.99342210  0.75185951  0.63319842  1
  O  O243  1  -0.02811725  0.25928783  0.36237531  1
  O  O244  1  0.01794498  0.24912069  0.87219657  1
  O  O245  1  0.00812877  0.76167847  0.37474801  1
  O  O246  1  0.00663023  0.75468250  0.86875417  1
  O  O247  1  0.50816087  0.26075571  0.37489355  1
  O  O248  1  0.49829921  0.25149315  0.86756053  1
  O  O249  1  0.50762234  0.74904111  0.36365536  1
  O  O250  1  0.49717659  0.75610408  0.86617375  1
  O  O251  1  0.24498662  0.13082018  0.49192024  1
  O  O252  1  0.25089854  0.11358672  0.98951480  1
  O  O253  1  0.23641198  0.62442081  0.50152553  1
  O  O254  1  0.25407695  0.62262338  0.98584540  1
  O  O255  1  0.74286650  0.12638270  0.49884523  1
  O  O256  1  0.74608226  0.13091692  0.99959415  1
  O  O257  1  0.74115497  0.62087575  0.49472430  1
  O  O258  1  0.73900148  0.62113939  0.99657999  1
  O  O259  1  0.25549448  0.38322321  0.00919058  1
  O  O260  1  0.25433039  0.36321297  0.49752501  1
  O  O261  1  0.26346572  0.88240616  -0.00566700  1
  O  O262  1  0.26211880  0.88334903  0.50797930  1
  O  O263  1  0.75587652  0.37042185  0.00248938  1
  O  O264  1  0.75590853  0.37201380  0.50944696  1
  O  O265  1  0.76570446  0.87747673  -0.00383900  1
  O  O266  1  0.76597319  0.88033680  0.51077121  1
  O  O267  1  0.13695374  0.50954386  0.24314048  1
  O  O268  1  0.12889914  0.49456119  0.74505768  1
  O  O269  1  0.13312370  0.99246889  0.24566819  1
  O  O270  1  0.12532557  0.99974319  0.73706211  1
  O  O271  1  0.63768719  0.49992834  0.24827252  1
  O  O272  1  0.63399207  0.49310741  0.74708524  1
  O  O273  1  0.63794567  0.99437071  0.24943551  1
  O  O274  1  0.63178918  1.00147414  0.73754565  1
  O  O275  1  0.37085207  0.00553287  0.25051729  1
  O  O276  1  0.36474548  0.00212300  0.74514129  1
  O  O277  1  0.37135172  0.50744652  0.25537052  1
  O  O278  1  0.36626842  0.50598559  0.75738095  1
  O  O279  1  0.86258492  0.00058563  0.25613470  1
  O  O280  1  0.86935180  0.01198761  0.74794759  1
  O  O281  1  0.86178251  0.49782997  0.25936117  1
  O  O282  1  0.87332580  0.50390792  0.75537492  1
  O  O283  1  0.12999478  0.38244086  0.37439867  1
  O  O284  1  0.12721655  0.36410949  0.85972418  1
  O  O285  1  0.12182913  0.86887754  0.37199856  1
  O  O286  1  0.11430162  0.86772423  0.87283267  1
  O  O287  1  0.62041592  0.37433547  0.37187755  1
  O  O288  1  0.61592960  0.36832659  0.87149575  1
  O  O289  1  0.62372267  0.85756974  0.38954198  1
  O  O290  1  0.60935541  0.87069049  0.88024712  1
  O  O291  1  0.38549515  0.12850314  0.13063972  1
  O  O292  1  0.38794662  0.13179583  0.62186531  1
  O  O293  1  0.38069118  0.63375625  0.12755487  1
  O  O294  1  0.37689585  0.62886328  0.63144486  1
  O  O295  1  0.89009334  0.12041148  0.12271771  1
  O  O296  1  0.87096408  0.13423921  0.63641343  1
  O  O297  1  0.87962704  0.62458677  0.13091088  1
  O  O298  1  0.87750465  0.63357484  0.63254637  1
  O  O299  1  0.26768110  0.24791272  0.13250790  1
  O  O300  1  0.26456116  0.24190203  0.61387079  1
  O  O301  1  0.26235637  0.74518251  0.12859245  1
  O  O302  1  0.25394780  0.76439934  0.63144175  1
  O  O303  1  0.74471125  0.26102586  0.10731674  1
  O  O304  1  0.75328317  0.26014586  0.62163251  1
  O  O305  1  0.75766513  0.73462199  0.14182013  1
  O  O306  1  0.75889796  0.76186544  0.63353503  1
  O  O307  1  0.25632305  0.23778043  0.38352673  1
  O  O308  1  0.22765328  0.24448867  0.86280954  1
  O  O309  1  0.24094643  0.75310748  0.37217433  1
  O  O310  1  0.23775932  0.74191242  0.86689851  1
  O  O311  1  0.74272972  0.23696268  0.38623918  1
  O  O312  1  0.74513548  0.24922517  0.88554786  1
  O  O313  1  0.74362774  0.73851892  0.37406346  1
  O  O314  1  0.73898000  0.74005887  0.82655637  1
  O  O315  1  0.00198253  0.11178009  0.00531793  1
  O  O316  1  0.00999897  0.11535755  0.49438589  1
  O  O317  1  -0.01082483  0.61543664  0.01595927  1
  O  O318  1  0.01305039  0.62202821  0.50385653  1
  O  O319  1  0.50840305  0.11306223  0.00746851  1
  O  O320  1  0.50383272  0.11939230  0.50701807  1
  O  O321  1  0.49275889  0.62304372  0.00958800  1
  O  O322  1  0.50684034  0.62000707  0.50683951  1
  O  O323  1  0.50383742  0.38624917  0.49304083  1
  O  O324  1  0.49571766  0.37405586  0.98515414  1
  O  O325  1  0.48693355  0.88195497  0.49993117  1
  O  O326  1  0.49155087  0.87808359  0.99277343  1
  O  O327  1  0.98779015  0.37830719  0.49516838  1
  O  O328  1  0.98606675  0.38432048  1.00767339  1
  O  O329  1  0.99435766  0.88046590  0.49667719  1
  O  O330  1  0.99305640  0.88372218  0.99362791  1
  O  O331  1  0.50032173  0.49887756  0.37939181  1
  O  O332  1  0.48769873  0.49129899  0.87356705  1
  O  O333  1  0.49523727  0.99737993  0.38059829  1
  O  O334  1  0.50181638  0.99237125  0.88805516  1
  O  O335  1  0.98690814  0.49853405  0.37314857  1
  O  O336  1  0.98938772  0.50693891  0.88336711  1
  O  O337  1  1.00309291  0.98798083  0.38688492  1
  O  O338  1  1.00192129  0.99255864  0.88281402  1
  O  O339  1  0.00706161  0.00201526  0.11998812  1
  O  O340  1  0.00960455  -0.00662590  0.61319124  1
  O  O341  1  0.00380134  0.50881213  0.12047585  1
  O  O342  1  0.01304205  0.50325964  0.62241039  1
  O  O343  1  0.50460811  0.00829657  0.11793805  1
  O  O344  1  0.50570309  0.00531619  0.62210041  1
  O  O345  1  0.49790133  0.51299052  0.12371520  1
  O  O346  1  0.50558713  0.50629915  0.62132697  1
  O  O347  1  0.25577342  0.38811241  0.24164375  1
  O  O348  1  0.24215017  0.38894075  0.74869725  1
  O  O349  1  0.23899755  0.88254101  0.25487435  1
  O  O350  1  0.24974589  0.88657560  0.74131918  1
  O  O351  1  0.74479623  0.38559335  0.23740800  1
  O  O352  1  0.74770846  0.38119428  0.74328444  1
  O  O353  1  0.75104783  0.88453479  0.25679471  1
  O  O354  1  0.76040478  0.89165569  0.73700690  1
  O  O355  1  0.26097204  0.11624419  0.25719658  1
  O  O356  1  0.24903843  0.11079648  0.74889805  1
  O  O357  1  0.26520398  0.61805573  0.24603897  1
  O  O358  1  0.25813598  0.61792737  0.75393997  1
  O  O359  1  0.74432979  0.10794726  0.26544490  1
  O  O360  1  0.75546548  0.11328596  0.74903526  1
  O  O361  1  0.75937775  0.62045944  0.25870870  1
  O  O362  1  0.76290874  0.60447655  0.73619115  1
  O  O363  1  0.37169393  0.12000974  0.36713707  1
  O  O364  1  0.38215291  0.13992569  0.86278533  1
  O  O365  1  0.38586140  0.61635081  0.36335788  1
  O  O366  1  0.36792883  0.61946030  0.86709646  1
  O  O367  1  0.86025866  0.11885055  0.38100785  1
  O  O368  1  0.87373089  0.12389128  0.86133589  1
  O  O369  1  0.86748648  0.61743348  0.38682083  1
  O  O370  1  0.87798817  0.61859640  0.86266549  1
  O  O371  1  0.11956861  0.39012601  0.12721642  1
  O  O372  1  0.12190303  0.38502726  0.63621151  1
  O  O373  1  0.11970077  0.88391704  0.13504182  1
  O  O374  1  0.13447471  0.88297139  0.62426005  1
  O  O375  1  0.63338752  0.37958820  0.12665961  1
  O  O376  1  0.63156766  0.38002944  0.63040841  1
  O  O377  1  0.61797818  0.86896109  0.12248578  1
  O  O378  1  0.63431592  0.88202475  0.61800594  1
  O  O379  1  0.13498424  0.23993406  0.25288891  1
  O  O380  1  0.12237193  0.26263055  0.74077734  1
  O  O381  1  0.12423189  0.75570465  0.25771256  1
  O  O382  1  0.11354010  0.75247236  0.75103887  1
  O  O383  1  0.62991423  0.25959029  0.25904564  1
  O  O384  1  0.63240524  0.25817679  0.75769111  1
  O  O385  1  0.61629354  0.74781476  0.26049597  1
  O  O386  1  0.60097611  0.74532263  0.74304328  1
  O  O387  1  0.38550039  0.23234580  0.24049490  1
  O  O388  1  0.37214746  0.25636017  0.74146693  1
  O  O389  1  0.37989209  0.74443564  0.23852562  1
  O  O390  1  0.37732833  0.74180803  0.74375431  1
  O  O391  1  0.83825088  0.23200214  0.23389144  1
  O  O392  1  0.87044383  0.23644175  0.74213468  1
  O  O393  1  0.87639723  0.74664563  0.25323173  1
  O  O394  1  0.88696983  0.74331624  0.74242190  1
  O  O395  1  0.38251250  0.50266745  0.49229756  1
  O  O396  1  0.37699303  0.50033869  0.98644641  1
  O  O397  1  0.37922784  0.99554193  0.49466132  1
  O  O398  1  0.38650777  0.98251634  1.01080137  1
  O  O399  1  0.87569976  0.49288859  0.49511579  1
  O  O400  1  0.88065180  0.49278531  0.99034740  1
  O  O401  1  0.88534698  0.99277002  0.50261235  1
  O  O402  1  0.88299809  0.99129835  0.99655931  1
  O  O403  1  0.11656328  -0.00525147  0.00912617  1
  O  O404  1  0.12123768  0.00560762  0.50901962  1
  O  O405  1  0.11065062  0.49562228  0.00369440  1
  O  O406  1  0.12643228  0.51098928  0.50858583  1
  O  O407  1  0.62003875  0.00559374  0.00305359  1
  O  O408  1  0.61824749  0.00373830  0.51146380  1
  O  O409  1  0.62054739  0.51067553  0.00062585  1
  O  O410  1  0.62154253  0.50984985  0.50600405  1
  O  O411  1  0.38496321  0.35619966  0.13015659  1
  O  O412  1  0.38436298  0.36402154  0.62117260  1
  O  O413  1  0.37651195  0.86057112  0.11461317  1
  O  O414  1  0.36795090  0.87011339  0.61650832  1
  O  O415  1  0.86112307  0.37553746  0.11346364  1
  O  O416  1  0.86848041  0.37007534  0.61913077  1
  O  O417  1  0.87911693  0.87397462  0.11334827  1
  O  O418  1  0.87098721  0.86872550  0.62125100  1
  O  O419  1  0.13615522  0.11639173  0.38789581  1
  O  O420  1  0.12449174  0.13740503  0.87947453  1
  O  O421  1  0.12180791  0.63332364  0.38797481  1
  O  O422  1  0.13202361  0.63526820  0.87097112  1
  O  O423  1  0.63144137  0.12847320  0.38430854  1
  O  O424  1  0.62655801  0.12978903  0.88718227  1
  O  O425  1  0.63215346  0.63419001  0.38404544  1
  O  O426  1  0.61947965  0.62159857  0.88654064  1
