# generated using pymatgen
data_V85Zn86O256
_symmetry_space_group_name_H-M   'P 1'
_cell_length_a   16.93995090
_cell_length_b   16.94750992
_cell_length_c   16.93713460
_cell_angle_alpha   89.98347207
_cell_angle_beta   89.94062364
_cell_angle_gamma   90.08388141
_symmetry_Int_Tables_number   1
_chemical_formula_structural   V85Zn86O256
_chemical_formula_sum   'V85 Zn86 O256'
_cell_volume   4862.47370666
_cell_formula_units_Z   1
loop_
 _symmetry_equiv_pos_site_id
 _symmetry_equiv_pos_as_xyz
  1  'x, y, z'
loop_
 _atom_site_type_symbol
 _atom_site_label
 _atom_site_symmetry_multiplicity
 _atom_site_fract_x
 _atom_site_fract_y
 _atom_site_fract_z
 _atom_site_occupancy
  V  V0  1  0.62455520  0.49886181  0.62683685  1
  V  V1  1  0.12455855  0.24456900  0.37758979  1
  V  V2  1  0.24931861  0.00054243  0.75228544  1
  V  V3  1  -0.00299937  0.23290769  0.25333779  1
  V  V4  1  0.74964796  0.87442276  0.62487772  1
  V  V5  1  0.87719389  0.87851829  0.50602177  1
  V  V6  1  0.25298213  0.00196296  0.25073131  1
  V  V7  1  0.75261841  0.12865495  0.87824545  1
  V  V8  1  0.02205839  0.61471392  0.61039886  1
  V  V9  1  0.25144502  0.37530826  0.12338344  1
  V  V10  1  0.12119987  0.87367465  0.75444973  1
  V  V11  1  0.02259680  0.40523516  0.39420885  1
  V  V12  1  0.24783606  0.62229640  0.38293685  1
  V  V13  1  0.75598524  0.62047680  0.86663632  1
  V  V14  1  0.62469047  0.87658473  0.25019069  1
  V  V15  1  0.24735095  0.87529118  0.12415556  1
  V  V16  1  0.69256328  0.32710467  0.18618471  1
  V  V17  1  0.24102939  0.12563676  0.87658374  1
  V  V18  1  0.00074259  0.87483768  0.37728216  1
  V  V19  1  0.74991001  0.26397402  -0.00215765  1
  V  V20  1  0.63502515  0.62467011  0.00113962  1
  V  V21  1  -0.01431642  0.74867282  0.25054815  1
  V  V22  1  0.11788012  0.50030671  0.11945162  1
  V  V23  1  0.25530508  0.12796194  0.37892560  1
  V  V24  1  0.62209042  0.87526015  0.74961776  1
  V  V25  1  0.49865984  0.50142868  -0.00212170  1
  V  V26  1  0.37321247  0.74959547  0.62609529  1
  V  V27  1  0.11948678  0.01706579  0.11838194  1
  V  V28  1  0.23966013  0.37298236  0.62529427  1
  V  V29  1  0.37840768  0.87284815  0.49617137  1
  V  V30  1  0.75432737  0.87340431  0.10839696  1
  V  V31  1  0.37198438  0.35482316  0.50523007  1
  V  V32  1  0.37779625  0.49624476  0.37638171  1
  V  V33  1  0.38186124  0.00240271  0.88166380  1
  V  V34  1  -0.00583576  0.62225465  0.12457427  1
  V  V35  1  0.61466628  0.12363264  -0.00446455  1
  V  V36  1  0.51129501  0.36051653  0.36447227  1
  V  V37  1  0.13103821  0.12885424  0.50554847  1
  V  V38  1  0.24490671  0.24511751  0.00045256  1
  V  V39  1  0.38576096  -0.00443363  0.37334259  1
  V  V40  1  0.37404978  0.74985641  0.12580276  1
  V  V41  1  0.74879251  0.00350469  0.75070882  1
  V  V42  1  0.12613514  0.38912634  0.75836018  1
  V  V43  1  0.74919646  0.75099597  0.50050055  1
  V  V44  1  0.62352269  0.62696060  0.49900468  1
  V  V45  1  0.49812875  0.62393836  0.62563886  1
  V  V46  1  0.12063243  0.37096158  0.24853852  1
  V  V47  1  0.87285646  0.50808578  0.36884609  1
  V  V48  1  0.88889796  0.49517030  0.87338045  1
  V  V49  1  0.12384655  0.74563095  0.38060915  1
  V  V50  1  0.88000543  0.24448383  0.12984583  1
  V  V51  1  0.62279630  0.75565977  0.37595978  1
  V  V52  1  0.75089055  0.37495418  0.62480830  1
  V  V53  1  0.75879335  0.12640812  0.37207125  1
  V  V54  1  0.00055069  0.00294943  0.50356014  1
  V  V55  1  0.36517713  0.62108312  0.75096077  1
  V  V56  1  0.74619879  0.51139828  0.24182207  1
  V  V57  1  0.00404800  0.25479324  0.75963178  1
  V  V58  1  0.49769625  0.74958619  0.75554595  1
  V  V59  1  0.88157182  0.38049156  0.49902605  1
  V  V60  1  0.63091247  0.74826593  0.87956095  1
  V  V61  1  -0.00817287  0.00520450  -0.00900807  1
  V  V62  1  -0.00107030  0.12490376  0.62696943  1
  V  V63  1  0.49675413  0.25551218  0.74203243  1
  V  V64  1  -0.00365375  0.74092294  0.75040928  1
  V  V65  1  0.87166390  0.75085336  0.10467818  1
  V  V66  1  0.49877571  0.49612605  0.49734321  1
  V  V67  1  0.36679495  0.49912066  0.87380679  1
  V  V68  1  0.87356558  0.12830084  0.75137238  1
  V  V69  1  0.24941545  0.50059569  0.24998126  1
  V  V70  1  0.49980229  0.75113258  0.25520341  1
  V  V71  1  0.50098510  0.62487110  0.12598621  1
  V  V72  1  0.37314055  0.12957599  0.74174977  1
  V  V73  1  0.24801749  0.74794506  0.00027607  1
  V  V74  1  0.74717527  0.25286936  0.49348977  1
  V  V75  1  0.24863714  0.87502681  0.62430170  1
  V  V76  1  0.62136780  0.00237703  0.62280379  1
  V  V77  1  0.11845769  0.75252067  0.87894708  1
  V  V78  1  0.12465582  0.87394051  0.25091859  1
  V  V79  1  0.76062415  -0.00261867  0.24811467  1
  V  V80  1  0.61671165  -0.00470821  0.11706347  1
  V  V81  1  0.62479744  0.12849756  0.49372067  1
  V  V82  1  0.89501194  0.37925960  0.00512437  1
  V  V83  1  0.38263059  0.24931572  0.12892390  1
  V  V84  1  0.87574053  0.73331324  0.62575925  1
  Zn  Zn85  1  0.49474115  0.12919376  0.61834288  1
  Zn  Zn86  1  0.12482287  0.00106258  0.62870352  1
  Zn  Zn87  1  0.50296945  -0.00362697  0.49589557  1
  Zn  Zn88  1  0.37453287  0.62443116  0.25118127  1
  Zn  Zn89  1  0.11961637  0.62078210  -0.00124250  1
  Zn  Zn90  1  0.62600748  0.37513209  0.75181863  1
  Zn  Zn91  1  0.75220785  0.63072838  0.37110338  1
  Zn  Zn92  1  0.50113198  0.12458319  0.12798768  1
  Zn  Zn93  1  0.87727859  0.25498736  0.62454834  1
  Zn  Zn94  1  0.88089925  0.00465633  0.36980781  1
  Zn  Zn95  1  0.50398310  0.88152520  0.88288811  1
  Zn  Zn96  1  0.62464564  0.49607658  0.12672077  1
  Zn  Zn97  1  0.62200503  0.25436694  0.87268644  1
  Zn  Zn98  1  0.38103098  0.87917265  0.00271698  1
  Zn  Zn99  1  0.49892488  0.37591736  0.87167551  1
  Zn  Zn100  1  0.11914296  0.25291349  0.88101642  1
  Zn  Zn101  1  0.37474381  0.37422071  -0.00360608  1
  Zn  Zn102  1  0.86738196  -0.02698409  0.89161893  1
  Zn  Zn103  1  0.38776340  0.13235559  0.25566645  1
  Zn  Zn104  1  0.24470778  0.74365408  0.50379590  1
  Zn  Zn105  1  0.75939951  0.49994991  0.74765866  1
  Zn  Zn106  1  0.24491290  0.62360816  0.87330286  1
  Zn  Zn107  1  0.19565550  0.18931958  0.19297421  1
  Zn  Zn108  1  0.19063703  0.19676050  0.68724609  1
  Zn  Zn109  1  0.18322899  0.68582589  0.19280474  1
  Zn  Zn110  1  0.18411261  0.68677368  0.68729275  1
  Zn  Zn111  1  0.69429904  0.16756688  0.18216959  1
  Zn  Zn112  1  0.68387702  0.19171081  0.68357030  1
  Zn  Zn113  1  0.69082821  0.68947008  0.18453506  1
  Zn  Zn114  1  0.68717257  0.68607565  0.68957194  1
  Zn  Zn115  1  0.31388437  0.31339706  0.31291406  1
  Zn  Zn116  1  0.30942678  0.31352509  0.80880595  1
  Zn  Zn117  1  0.31086109  0.81112735  0.31359750  1
  Zn  Zn118  1  0.30998486  0.81430526  0.81573916  1
  Zn  Zn119  1  0.82267039  0.31675169  0.31958843  1
  Zn  Zn120  1  0.81637050  0.31651515  0.81458813  1
  Zn  Zn121  1  0.81061679  0.81846088  0.31522650  1
  Zn  Zn122  1  0.81000581  0.80625682  0.81208995  1
  Zn  Zn123  1  0.19450230  0.43210441  0.44011085  1
  Zn  Zn124  1  0.18625353  0.43569030  0.93848709  1
  Zn  Zn125  1  0.18919459  0.93955641  0.43920227  1
  Zn  Zn126  1  0.18548066  0.93812149  0.94016158  1
  Zn  Zn127  1  0.68824595  0.43930098  0.43466627  1
  Zn  Zn128  1  0.68557130  0.44033429  0.93354203  1
  Zn  Zn129  1  0.68924019  0.93959907  0.43491637  1
  Zn  Zn130  1  0.68462692  0.93974066  0.93424213  1
  Zn  Zn131  1  0.31107281  0.06607827  0.06273615  1
  Zn  Zn132  1  0.31195404  0.05877259  0.56111346  1
  Zn  Zn133  1  0.31174012  0.56431895  0.06198442  1
  Zn  Zn134  1  0.30901538  0.55536623  0.56419933  1
  Zn  Zn135  1  0.80922647  0.06437013  0.06108367  1
  Zn  Zn136  1  0.81253935  0.06519254  0.56457762  1
  Zn  Zn137  1  0.81669324  0.56141509  0.06042915  1
  Zn  Zn138  1  0.81057114  0.55933961  0.55557698  1
  Zn  Zn139  1  0.43861261  0.43633319  0.18828169  1
  Zn  Zn140  1  0.42903476  0.43788833  0.68436358  1
  Zn  Zn141  1  0.43836467  0.93521781  0.18817060  1
  Zn  Zn142  1  0.43594919  0.93940669  0.69069835  1
  Zn  Zn143  1  0.93532153  0.43378772  0.19239858  1
  Zn  Zn144  1  0.94427640  0.44111784  0.68777990  1
  Zn  Zn145  1  0.94099838  0.93343278  0.17853262  1
  Zn  Zn146  1  0.92135805  0.91985298  0.71970512  1
  Zn  Zn147  1  0.06656403  0.05807224  0.31354111  1
  Zn  Zn148  1  0.06003152  0.06202874  0.81454020  1
  Zn  Zn149  1  0.06530261  0.56692393  0.30840609  1
  Zn  Zn150  1  0.06064365  0.56836989  0.81177473  1
  Zn  Zn151  1  0.56799316  0.06682248  0.30818987  1
  Zn  Zn152  1  0.56112904  0.07012871  0.80884311  1
  Zn  Zn153  1  0.56513147  0.56203733  0.31227597  1
  Zn  Zn154  1  0.56025213  0.56253640  0.81275123  1
  Zn  Zn155  1  0.44341314  0.18470054  0.43305074  1
  Zn  Zn156  1  0.43209386  0.19151179  0.93273203  1
  Zn  Zn157  1  0.43483481  0.68607361  0.43693487  1
  Zn  Zn158  1  0.43675546  0.68734552  0.93898880  1
  Zn  Zn159  1  0.93860304  0.19338678  0.43939117  1
  Zn  Zn160  1  0.93859405  0.18149624  0.94521215  1
  Zn  Zn161  1  0.93805328  0.68676203  0.44033993  1
  Zn  Zn162  1  0.93973745  0.68104674  0.93649067  1
  Zn  Zn163  1  0.06257839  0.30342727  0.06746315  1
  Zn  Zn164  1  0.06540806  0.30960826  0.56876404  1
  Zn  Zn165  1  0.05827942  0.81827596  0.06196251  1
  Zn  Zn166  1  0.06082135  0.80935573  0.56646767  1
  Zn  Zn167  1  0.56008108  0.31240912  0.05268259  1
  Zn  Zn168  1  0.56075130  0.31287103  0.55830990  1
  Zn  Zn169  1  0.56123399  0.81219209  0.06114081  1
  Zn  Zn170  1  0.55869352  0.81363041  0.56430677  1
  O  O171  1  0.13573873  0.11388610  0.13003554  1
  O  O172  1  0.12099159  0.12675903  0.61985586  1
  O  O173  1  0.11716207  0.61518278  0.12714857  1
  O  O174  1  0.12318674  0.62313891  0.61679063  1
  O  O175  1  0.62498065  0.11266303  0.11252075  1
  O  O176  1  0.62643902  0.11694765  0.61229413  1
  O  O177  1  0.61963167  0.62660084  0.11607357  1
  O  O178  1  0.61846136  0.62016504  0.61958027  1
  O  O179  1  0.37778402  0.37974100  0.38377583  1
  O  O180  1  0.37579945  0.38500117  0.87481367  1
  O  O181  1  0.36651282  0.88249170  0.38483816  1
  O  O182  1  0.37291647  0.89273916  0.87337945  1
  O  O183  1  0.89181460  0.38798362  0.38273493  1
  O  O184  1  0.87401197  0.38549080  0.88932617  1
  O  O185  1  0.88164229  0.87650075  0.39046818  1
  O  O186  1  0.88279639  0.88687714  0.82542257  1
  O  O187  1  0.25550874  0.00820519  0.36794846  1
  O  O188  1  0.25490997  0.00716176  0.87089509  1
  O  O189  1  0.25750024  0.50397158  0.37122432  1
  O  O190  1  0.26225187  0.50536064  0.88399368  1
  O  O191  1  0.75582562  0.00519343  0.36615713  1
  O  O192  1  0.75297629  0.00897634  0.86773840  1
  O  O193  1  0.75699879  0.50306733  0.36583089  1
  O  O194  1  0.75772366  0.50578075  0.87111410  1
  O  O195  1  0.24500459  0.49239276  0.12997343  1
  O  O196  1  0.26973208  0.47290667  0.62930610  1
  O  O197  1  0.24534625  0.99400961  0.13116396  1
  O  O198  1  0.24740530  0.99133310  0.63327523  1
  O  O199  1  0.74988245  0.50336743  0.13796786  1
  O  O200  1  0.74252539  0.49352882  0.62552423  1
  O  O201  1  0.74436722  0.99200609  0.13035838  1
  O  O202  1  0.73902386  0.99618618  0.62921498  1
  O  O203  1  0.01481983  0.37541154  0.26542373  1
  O  O204  1  0.01461917  0.36634989  0.74194214  1
  O  O205  1  0.00571481  0.86859913  0.25573550  1
  O  O206  1  0.01859542  0.85859124  0.73277053  1
  O  O207  1  0.49864916  0.38080072  0.26601491  1
  O  O208  1  0.49734676  0.36432549  0.74624196  1
  O  O209  1  0.51546221  0.86598478  0.24306856  1
  O  O210  1  0.50401874  0.86643762  0.75439365  1
  O  O211  1  0.49959138  0.12221485  0.24245524  1
  O  O212  1  0.49106714  0.13577728  0.74515820  1
  O  O213  1  0.50043518  0.63237351  0.24338234  1
  O  O214  1  0.49270218  0.63280280  0.74413997  1
  O  O215  1  0.99859544  0.13383175  0.26194418  1
  O  O216  1  0.99207129  0.12933285  0.74508192  1
  O  O217  1  1.00461368  0.63932297  0.23764917  1
  O  O218  1  1.00890080  0.63711848  0.73500392  1
  O  O219  1  0.36446726  0.25324950  0.00910215  1
  O  O220  1  0.37562149  0.25686876  0.49458758  1
  O  O221  1  0.36486943  0.74998572  0.00754044  1
  O  O222  1  0.37170566  0.75556098  0.50686430  1
  O  O223  1  0.87021262  0.26088310  0.00567283  1
  O  O224  1  0.86720645  0.26357355  0.50091046  1
  O  O225  1  0.87852268  0.75355678  0.00651469  1
  O  O226  1  0.87023141  0.75829412  0.50719303  1
  O  O227  1  0.12213931  0.23763183  0.49261026  1
  O  O228  1  0.13906714  0.25413872  0.99936121  1
  O  O229  1  0.12607882  0.75866247  0.48447207  1
  O  O230  1  0.12832781  0.75367747  0.99415518  1
  O  O231  1  0.63404572  0.24073181  0.50305674  1
  O  O232  1  0.63383671  0.24264007  0.99769192  1
  O  O233  1  0.62613986  0.74988902  0.49322877  1
  O  O234  1  0.62018545  0.74035238  0.98643229  1
  O  O235  1  0.48439152  0.25329184  0.11762607  1
  O  O236  1  0.50321449  0.24726069  0.63660166  1
  O  O237  1  0.49710173  0.74323924  0.13563849  1
  O  O238  1  0.49405980  0.74565131  0.63664396  1
  O  O239  1  0.99348463  0.25005862  0.14018611  1
  O  O240  1  0.99990364  0.23914985  0.63610790  1
  O  O241  1  0.98754531  0.74905642  0.13136734  1
  O  O242  1  0.99301709  0.73832427  0.62814300  1
  O  O243  1  0.01129555  0.25428630  0.37033327  1
  O  O244  1  -0.00142251  0.24135682  0.86350106  1
  O  O245  1  0.00457383  0.75416346  0.36940027  1
  O  O246  1  0.00648446  0.74373231  0.86501753  1
  O  O247  1  0.49959579  0.26073195  0.37116060  1
  O  O248  1  0.49999195  0.25184395  0.86101108  1
  O  O249  1  0.50497788  0.74680643  0.36296817  1
  O  O250  1  0.50676840  0.74629339  0.86447672  1
  O  O251  1  0.24202160  0.11943355  0.49276425  1
  O  O252  1  0.25405443  0.13356400  0.98957162  1
  O  O253  1  0.25358332  0.62269834  0.48792241  1
  O  O254  1  0.24321479  0.63888201  1.00381530  1
  O  O255  1  0.74627457  0.13400623  0.49543341  1
  O  O256  1  0.74398441  0.13575109  0.99223003  1
  O  O257  1  0.74016256  0.63402448  0.49815715  1
  O  O258  1  0.73855135  0.61815336  0.99189121  1
  O  O259  1  0.25138798  0.37035634  0.01232384  1
  O  O260  1  0.26189547  0.37355673  0.50782038  1
  O  O261  1  0.25175382  0.86596929  0.00878692  1
  O  O262  1  0.25832198  0.87474563  0.50937248  1
  O  O263  1  0.75140573  0.36551161  -0.00278111  1
  O  O264  1  0.75566412  0.37071259  0.50528986  1
  O  O265  1  0.74947351  0.87976863  0.00862405  1
  O  O266  1  0.75727019  0.87131612  0.50557703  1
  O  O267  1  0.13172287  0.49018037  0.24341067  1
  O  O268  1  0.12111682  0.48791256  0.75597689  1
  O  O269  1  0.13766976  0.99474170  0.24517010  1
  O  O270  1  0.12947736  0.99044940  0.75122289  1
  O  O271  1  0.64068351  0.50170591  0.24862118  1
  O  O272  1  0.62282053  0.50005362  0.73534949  1
  O  O273  1  0.63488972  0.99090566  0.24209569  1
  O  O274  1  0.62916476  0.99811420  0.74331045  1
  O  O275  1  0.36523808  -0.00480376  0.25602792  1
  O  O276  1  0.36741208  0.00709346  0.75809786  1
  O  O277  1  0.36808717  0.49825033  0.26110601  1
  O  O278  1  0.38265734  0.51102822  0.75997756  1
  O  O279  1  0.86419397  -0.01137399  0.24876350  1
  O  O280  1  0.86423420  0.02102324  0.73777470  1
  O  O281  1  0.85825732  0.49303792  0.25946379  1
  O  O282  1  0.87680148  0.49013767  0.76826555  1
  O  O283  1  0.13495778  0.35484771  0.36610496  1
  O  O284  1  0.12830021  0.37249530  0.86305846  1
  O  O285  1  0.12035150  0.87136067  0.37012188  1
  O  O286  1  0.12939788  0.86521936  0.86655940  1
  O  O287  1  0.60947440  0.37724684  0.38267981  1
  O  O288  1  0.61875714  0.37458324  0.86940991  1
  O  O289  1  0.62817230  0.86451902  0.36710906  1
  O  O290  1  0.62530419  0.86596077  0.86781775  1
  O  O291  1  0.37620644  0.13841661  0.12465973  1
  O  O292  1  0.37500801  0.11676589  0.63758954  1
  O  O293  1  0.38168095  0.63200974  0.12867455  1
  O  O294  1  0.37881856  0.62882603  0.63133998  1
  O  O295  1  0.86019493  0.14615514  0.12364606  1
  O  O296  1  0.88277875  0.13256699  0.62975002  1
  O  O297  1  0.87876852  0.63971044  0.12116420  1
  O  O298  1  0.87246818  0.63237327  0.61883568  1
  O  O299  1  0.25629282  0.25722833  0.11989317  1
  O  O300  1  0.25507992  0.27075185  0.62888346  1
  O  O301  1  0.25093253  0.75691931  0.12246678  1
  O  O302  1  0.25573433  0.75687566  0.62384237  1
  O  O303  1  0.75206027  0.26129661  0.12351336  1
  O  O304  1  0.75172747  0.25904092  0.61338131  1
  O  O305  1  0.76398186  0.75649980  0.12498897  1
  O  O306  1  0.75592940  0.75387433  0.62094883  1
  O  O307  1  0.24467882  0.23441560  0.36728495  1
  O  O308  1  0.25193487  0.24233150  0.88337741  1
  O  O309  1  0.24230309  0.73993657  0.37582171  1
  O  O310  1  0.24232449  0.74934276  0.88541768  1
  O  O311  1  0.75636370  0.24454362  0.38507521  1
  O  O312  1  0.74898843  0.24566014  0.88215030  1
  O  O313  1  0.74169120  0.75110360  0.38212797  1
  O  O314  1  0.74107325  0.73905395  0.87018721  1
  O  O315  1  0.00068934  0.10813008  0.00634649  1
  O  O316  1  0.00637651  0.12404671  0.50816367  1
  O  O317  1  0.00374621  0.63055157  0.01865992  1
  O  O318  1  0.00281508  0.62940533  0.51206825  1
  O  O319  1  0.51208977  0.13226610  -0.00079831  1
  O  O320  1  0.50981558  0.11960117  0.50018428  1
  O  O321  1  0.50742062  0.61809281  0.00515632  1
  O  O322  1  0.50367684  0.61923275  0.50600809  1
  O  O323  1  0.48867367  0.37763896  0.49096745  1
  O  O324  1  0.49625071  0.39056939  0.99797098  1
  O  O325  1  0.48329440  0.87657174  0.50578677  1
  O  O326  1  0.49393153  0.86912795  0.99485309  1
  O  O327  1  0.99185256  0.36482107  0.49696647  1
  O  O328  1  0.99321895  0.37033200  1.00055337  1
  O  O329  1  0.99400303  0.88064342  0.50042981  1
  O  O330  1  1.00302928  0.90466380  1.01682138  1
  O  O331  1  0.49294333  0.49846087  0.38034557  1
  O  O332  1  0.48973694  0.50315096  0.88328277  1
  O  O333  1  0.48836803  0.99951757  0.37212468  1
  O  O334  1  0.48495403  1.00313270  0.86781587  1
  O  O335  1  0.97835385  0.50505429  0.35176410  1
  O  O336  1  0.98735668  0.50825911  0.87859482  1
  O  O337  1  0.99972482  0.99278385  0.38311787  1
  O  O338  1  0.99484381  1.00239965  0.88647596  1
  O  O339  1  0.01849807  0.00588599  0.13528188  1
  O  O340  1  0.00297164  0.01517842  0.62272947  1
  O  O341  1  0.00582565  0.50894835  0.13720254  1
  O  O342  1  -0.00143461  0.51756240  0.62444257  1
  O  O343  1  0.51389970  -0.00453114  0.12496886  1
  O  O344  1  0.51224627  0.00130601  0.62588956  1
  O  O345  1  0.50020452  0.50906796  0.11892338  1
  O  O346  1  0.50524604  0.50327507  0.61728035  1
  O  O347  1  0.24097551  0.37707527  0.24084943  1
  O  O348  1  0.23415603  0.37267859  0.74246002  1
  O  O349  1  0.24485418  0.88099390  0.24449762  1
  O  O350  1  0.24108542  0.87762892  0.74322748  1
  O  O351  1  0.74911398  0.38287253  0.25244059  1
  O  O352  1  0.74936156  0.37400047  0.73533899  1
  O  O353  1  0.74013276  0.87897239  0.24351696  1
  O  O354  1  0.73860223  0.87978387  0.74087505  1
  O  O355  1  0.25768203  0.11547446  0.25884897  1
  O  O356  1  0.25602314  0.12259660  0.75520776  1
  O  O357  1  0.25155606  0.61758846  0.26021225  1
  O  O358  1  0.26215645  0.63035874  0.75093219  1
  O  O359  1  0.75033700  0.11116732  0.26035588  1
  O  O360  1  0.75429094  0.12718874  0.75586487  1
  O  O361  1  0.74970510  0.61542957  0.25208548  1
  O  O362  1  0.74794503  0.62059916  0.76190313  1
  O  O363  1  0.36963903  0.11510764  0.37543181  1
  O  O364  1  0.36727741  0.11624439  0.86567782  1
  O  O365  1  0.36795588  0.61550361  0.37242572  1
  O  O366  1  0.37251177  0.62061194  0.86665855  1
  O  O367  1  0.86339182  0.12251343  0.38438663  1
  O  O368  1  0.86273116  0.12749173  0.86799084  1
  O  O369  1  0.87089745  0.61213620  0.38179950  1
  O  O370  1  0.86574814  0.60841254  0.88691343  1
  O  O371  1  0.12950766  0.37855933  0.13262039  1
  O  O372  1  0.13321785  0.37845811  0.63016791  1
  O  O373  1  0.13601352  0.87962372  0.13207970  1
  O  O374  1  0.13724760  0.87415175  0.62877785  1
  O  O375  1  0.62562716  0.37693998  0.12529238  1
  O  O376  1  0.63277170  0.38352804  0.62219003  1
  O  O377  1  0.63493224  0.87693881  0.12897666  1
  O  O378  1  0.62843469  0.88175860  0.62893081  1
  O  O379  1  0.11814352  0.25256321  0.25484248  1
  O  O380  1  0.11675313  0.25700732  0.75427905  1
  O  O381  1  0.11765594  0.75772132  0.26013242  1
  O  O382  1  0.12153604  0.75461606  0.75941767  1
  O  O383  1  0.64277589  0.25873073  0.23687314  1
  O  O384  1  0.61093931  0.25113586  0.75001302  1
  O  O385  1  0.62111783  0.75528067  0.25649093  1
  O  O386  1  0.61663188  0.75277994  0.75756334  1
  O  O387  1  0.36769445  0.25014455  0.23297865  1
  O  O388  1  0.38461910  0.24201973  0.75280730  1
  O  O389  1  0.38412436  0.75071317  0.24565054  1
  O  O390  1  0.38126574  0.74521969  0.74795964  1
  O  O391  1  0.88766457  0.26036745  0.24427785  1
  O  O392  1  0.88082340  0.24347616  0.74777678  1
  O  O393  1  0.88410449  0.75431146  0.25288400  1
  O  O394  1  0.88518669  0.74885656  0.73740179  1
  O  O395  1  0.37980991  0.49506644  0.48803158  1
  O  O396  1  0.38206271  0.50224042  0.99325563  1
  O  O397  1  0.37679656  0.99181152  0.49070604  1
  O  O398  1  0.36973172  1.00189838  0.98490107  1
  O  O399  1  0.86808498  0.48904048  0.48473903  1
  O  O400  1  0.87426828  0.48435860  0.99629584  1
  O  O401  1  0.88139925  0.99252885  0.50363140  1
  O  O402  1  0.88332439  1.00338842  1.00005350  1
  O  O403  1  0.12371170  0.00248548  0.01414346  1
  O  O404  1  0.11904101  0.01178411  0.50259585  1
  O  O405  1  0.12791409  0.49867745  0.01602068  1
  O  O406  1  0.08874388  0.47219335  0.43720924  1
  O  O407  1  0.62975764  0.00974053  0.00573252  1
  O  O408  1  0.62433492  0.00385399  0.50681294  1
  O  O409  1  0.61681709  0.50855808  0.00253339  1
  O  O410  1  0.62056648  0.50577789  0.50885712  1
  O  O411  1  0.36700577  0.36774079  0.12389926  1
  O  O412  1  0.38028660  0.36978062  0.60669568  1
  O  O413  1  0.36223346  0.87023867  0.12600011  1
  O  O414  1  0.36522370  0.87111830  0.62262492  1
  O  O415  1  0.88057488  0.36797911  0.11225404  1
  O  O416  1  0.86903045  0.37876323  0.61690542  1
  O  O417  1  0.86762451  0.86016620  0.12772912  1
  O  O418  1  0.87040099  0.86831606  0.61901480  1
  O  O419  1  0.13308535  0.12966977  0.38160031  1
  O  O420  1  0.13808135  0.12811460  0.86873338  1
  O  O421  1  0.13401526  0.63420873  0.37038842  1
  O  O422  1  0.12679012  0.63631348  0.87918769  1
  O  O423  1  0.63943327  0.11596997  0.38765856  1
  O  O424  1  0.63580471  0.12594585  0.87937818  1
  O  O425  1  0.62521624  0.63852020  0.38075887  1
  O  O426  1  0.63207955  0.62935211  0.87999216  1
