# generated using pymatgen
data_V85Zn86O256
_symmetry_space_group_name_H-M   'P 1'
_cell_length_a   16.92558894
_cell_length_b   16.94909803
_cell_length_c   16.93063669
_cell_angle_alpha   89.97946069
_cell_angle_beta   90.04427823
_cell_angle_gamma   90.03224149
_symmetry_Int_Tables_number   1
_chemical_formula_structural   V85Zn86O256
_chemical_formula_sum   'V85 Zn86 O256'
_cell_volume   4856.94789788
_cell_formula_units_Z   1
loop_
 _symmetry_equiv_pos_site_id
 _symmetry_equiv_pos_as_xyz
  1  'x, y, z'
loop_
 _atom_site_type_symbol
 _atom_site_label
 _atom_site_symmetry_multiplicity
 _atom_site_fract_x
 _atom_site_fract_y
 _atom_site_fract_z
 _atom_site_occupancy
  V  V0  1  0.13015858  0.74636673  0.87269227  1
  V  V1  1  0.51044345  -0.00207042  0.50431608  1
  V  V2  1  0.25487672  0.12077179  0.38165911  1
  V  V3  1  0.62640487  0.36975512  0.25186472  1
  V  V4  1  0.88187267  0.37856101  0.50003475  1
  V  V5  1  0.36720421  0.24588568  0.11938057  1
  V  V6  1  0.24943978  0.74472352  0.49513940  1
  V  V7  1  0.13376898  0.12002406  0.01489311  1
  V  V8  1  0.00538755  0.74574022  0.25369514  1
  V  V9  1  0.74837697  0.37585191  0.62368536  1
  V  V10  1  0.62226424  0.87639515  0.75472456  1
  V  V11  1  0.14384998  0.24060390  0.87763985  1
  V  V12  1  0.76053880  0.74886419  0.50559342  1
  V  V13  1  0.11968596  0.62297046  0.49377923  1
  V  V14  1  0.49495753  0.37379335  0.87621607  1
  V  V15  1  0.37934490  0.87783164  0.49971966  1
  V  V16  1  0.36115151  0.00232384  0.86926915  1
  V  V17  1  -0.00816786  0.63057178  0.61989649  1
  V  V18  1  0.74801595  0.25404255  0.00436851  1
  V  V19  1  0.25078975  0.74440618  -0.00275811  1
  V  V20  1  0.92646431  0.30661000  0.06847743  1
  V  V21  1  0.88134228  0.11932702  0.24168172  1
  V  V22  1  0.73666656  0.62635101  0.87791449  1
  V  V23  1  0.62174441  0.62713508  0.50387083  1
  V  V24  1  0.36967612  0.49978073  0.37088437  1
  V  V25  1  0.50014236  0.88204646  0.37361634  1
  V  V26  1  0.13042878  0.25052077  0.38031586  1
  V  V27  1  0.87358485  -0.00245649  0.87683251  1
  V  V28  1  0.75639510  0.50330631  0.24849424  1
  V  V29  1  0.49670886  0.50368601  0.50365555  1
  V  V30  1  0.50349565  0.37402199  0.37642880  1
  V  V31  1  0.62925291  0.87416557  0.24987433  1
  V  V32  1  0.62816314  -0.00070329  0.12629448  1
  V  V33  1  0.36614637  0.62128633  0.24754347  1
  V  V34  1  0.13304065  0.37981139  0.25363338  1
  V  V35  1  0.24785863  0.37532987  0.61736844  1
  V  V36  1  0.87950270  0.49803135  0.88765907  1
  V  V37  1  0.37203639  0.24900789  0.61700857  1
  V  V38  1  0.62172415  0.37504852  0.74982054  1
  V  V39  1  0.74218611  0.00213116  0.74282336  1
  V  V40  1  0.62308412  0.12413947  0.00071681  1
  V  V41  1  -0.00212156  0.00133942  0.49214533  1
  V  V42  1  0.49535137  0.24578998  0.75006771  1
  V  V43  1  0.87318600  0.88408538  0.49307135  1
  V  V44  1  0.11452541  0.50026555  0.62160021  1
  V  V45  1  0.37373864  0.11492900  0.25436555  1
  V  V46  1  0.50257042  0.74669332  0.25035336  1
  V  V47  1  0.74133988  0.74574943  -0.00322311  1
  V  V48  1  0.37489511  0.75214482  0.12270901  1
  V  V49  1  -0.00417148  0.25234830  0.75642545  1
  V  V50  1  0.18110309  0.04043162  0.67088685  1
  V  V51  1  0.75118500  0.50167219  0.75189485  1
  V  V52  1  0.11635534  0.61887244  -0.00479899  1
  V  V53  1  -0.00422755  0.25310492  0.25295654  1
  V  V54  1  0.12471849  0.50493666  0.12849889  1
  V  V55  1  0.62770337  0.74951546  0.37583453  1
  V  V56  1  0.49920963  0.12427507  0.12715310  1
  V  V57  1  0.75843429  0.87436596  0.12333848  1
  V  V58  1  0.50339490  0.62440052  0.12047674  1
  V  V59  1  0.75015169  0.87216792  0.62760106  1
  V  V60  1  0.12576236  0.87391044  0.74118939  1
  V  V61  1  0.74792368  0.12627757  0.87550549  1
  V  V62  1  -0.00223471  0.11885781  0.62627255  1
  V  V63  1  0.11973181  -0.01072653  0.13710494  1
  V  V64  1  0.24757830  0.51046862  0.75404962  1
  V  V65  1  0.12191101  0.37873578  0.75613567  1
  V  V66  1  0.50670098  0.12059177  0.62599031  1
  V  V67  1  0.74158898  0.25305017  0.49143255  1
  V  V68  1  0.50034191  0.24765655  0.25467097  1
  V  V69  1  0.87178002  0.12536642  0.75001283  1
  V  V70  1  0.50710510  0.74164075  0.75866588  1
  V  V71  1  0.13021730  0.12710602  0.50485915  1
  V  V72  1  0.88222621  0.50227023  0.37781147  1
  V  V73  1  0.87291969  0.25210447  0.62394394  1
  V  V74  1  0.25528175  0.87020786  0.62932234  1
  V  V75  1  0.00296423  0.87437024  0.87694195  1
  V  V76  1  0.25268583  0.37955953  0.12231397  1
  V  V77  1  0.75132794  0.37210428  0.12368767  1
  V  V78  1  -0.00859240  0.75183911  0.74156412  1
  V  V79  1  0.75344695  0.12063587  0.37441344  1
  V  V80  1  0.62486465  0.50185453  0.12260364  1
  V  V81  1  0.62108698  0.50278021  0.62452101  1
  V  V82  1  0.49860674  0.49952708  -0.00113355  1
  V  V83  1  0.75425117  0.62583577  0.37182962  1
  V  V84  1  0.38764131  0.73932182  0.62463668  1
  Zn  Zn85  1  0.04535920  0.87079665  0.35503720  1
  Zn  Zn86  1  0.87867071  0.86822594  0.00077250  1
  Zn  Zn87  1  0.49546590  -0.00348667  -0.00314796  1
  Zn  Zn88  1  0.36532169  0.50620376  0.88234349  1
  Zn  Zn89  1  0.36760921  0.36810980  -0.00451586  1
  Zn  Zn90  1  0.37585727  0.62415710  0.75326583  1
  Zn  Zn91  1  -0.00027628  0.00516587  0.00535055  1
  Zn  Zn92  1  0.24618268  0.87250024  0.13191793  1
  Zn  Zn93  1  0.87420538  0.73055820  0.12978221  1
  Zn  Zn94  1  0.75944707  -0.00519747  0.25677971  1
  Zn  Zn95  1  0.62212918  0.24935678  0.87524514  1
  Zn  Zn96  1  0.37445617  0.87597393  -0.00451458  1
  Zn  Zn97  1  0.87165084  0.62985043  0.75002756  1
  Zn  Zn98  1  0.24489994  0.62372573  0.36987395  1
  Zn  Zn99  1  0.24890079  -0.01095537  0.25937674  1
  Zn  Zn100  1  -0.00358410  0.37679274  0.88945799  1
  Zn  Zn101  1  0.62404013  0.12783686  0.49355634  1
  Zn  Zn102  1  0.35759720  0.11991804  0.74883767  1
  Zn  Zn103  1  0.37034308  0.37250691  0.49532165  1
  Zn  Zn104  1  -0.00881982  0.62094578  0.12743027  1
  Zn  Zn105  1  0.49971344  0.87630744  0.87735750  1
  Zn  Zn106  1  0.00512026  0.37968845  0.38006590  1
  Zn  Zn107  1  0.18995474  0.18679650  0.19368486  1
  Zn  Zn108  1  0.18532588  0.20567561  0.68860029  1
  Zn  Zn109  1  0.18324219  0.69182864  0.18589022  1
  Zn  Zn110  1  0.18210090  0.68991347  0.67876740  1
  Zn  Zn111  1  0.69150925  0.18723973  0.19044867  1
  Zn  Zn112  1  0.68378264  0.18979827  0.68500192  1
  Zn  Zn113  1  0.69096695  0.68691932  0.18428972  1
  Zn  Zn114  1  0.68613397  0.68760768  0.68706554  1
  Zn  Zn115  1  0.31314331  0.30764266  0.31030190  1
  Zn  Zn116  1  0.31476857  0.31907480  0.80316539  1
  Zn  Zn117  1  0.31375660  0.81142516  0.31304859  1
  Zn  Zn118  1  0.31561853  0.81329779  0.81201856  1
  Zn  Zn119  1  0.81454084  0.31232775  0.31378838  1
  Zn  Zn120  1  0.81078786  0.31581924  0.81725321  1
  Zn  Zn121  1  0.82285628  0.81007060  0.30986273  1
  Zn  Zn122  1  0.81014538  0.81293884  0.81596727  1
  Zn  Zn123  1  0.18617643  0.44312202  0.43830478  1
  Zn  Zn124  1  0.18519858  0.43524131  0.93890423  1
  Zn  Zn125  1  0.19103883  0.94689461  0.45170778  1
  Zn  Zn126  1  0.18960545  0.93396215  0.94278768  1
  Zn  Zn127  1  0.68796502  0.43878029  0.43607858  1
  Zn  Zn128  1  0.68372955  0.43752720  0.93700824  1
  Zn  Zn129  1  0.69000515  0.93829816  0.43726202  1
  Zn  Zn130  1  0.68735327  0.93580166  0.93741979  1
  Zn  Zn131  1  0.30574208  0.05727018  0.06096291  1
  Zn  Zn132  1  0.32522631  0.06403388  0.55533550  1
  Zn  Zn133  1  0.30866096  0.56323176  0.06067002  1
  Zn  Zn134  1  0.30936952  0.55971874  0.56432271  1
  Zn  Zn135  1  0.81321897  0.06422668  0.06403610  1
  Zn  Zn136  1  0.81123300  0.06351842  0.56131594  1
  Zn  Zn137  1  0.81115808  0.56374165  0.05940442  1
  Zn  Zn138  1  0.81203046  0.56253946  0.56187797  1
  Zn  Zn139  1  0.43578004  0.43578393  0.18734752  1
  Zn  Zn140  1  0.43351775  0.43738254  0.68606388  1
  Zn  Zn141  1  0.43965907  0.93602190  0.18579262  1
  Zn  Zn142  1  0.43719142  0.93716356  0.69156045  1
  Zn  Zn143  1  0.94454033  0.44578575  0.19354045  1
  Zn  Zn144  1  0.93525306  0.44009006  0.69071975  1
  Zn  Zn145  1  0.94497876  0.93583426  0.19183805  1
  Zn  Zn146  1  0.93255640  0.93503419  0.68546141  1
  Zn  Zn147  1  0.06188474  0.06699592  0.31381076  1
  Zn  Zn148  1  0.06088881  0.06377676  0.81744405  1
  Zn  Zn149  1  0.06253473  0.56596435  0.30769912  1
  Zn  Zn150  1  0.05698684  0.56576646  0.81249972  1
  Zn  Zn151  1  0.57018977  0.06308692  0.31497634  1
  Zn  Zn152  1  0.55769973  0.05941010  0.81534982  1
  Zn  Zn153  1  0.56280314  0.56000214  0.31223645  1
  Zn  Zn154  1  0.55842736  0.56201172  0.81349692  1
  Zn  Zn155  1  0.43901316  0.18683848  0.43723253  1
  Zn  Zn156  1  0.43112741  0.17950783  0.93527170  1
  Zn  Zn157  1  0.43773068  0.68808152  0.43477692  1
  Zn  Zn158  1  0.43579007  0.68248236  0.93494810  1
  Zn  Zn159  1  0.93508163  0.18937079  0.43493161  1
  Zn  Zn160  1  0.94403723  0.17881082  0.93602967  1
  Zn  Zn161  1  0.93864883  0.69180067  0.43265018  1
  Zn  Zn162  1  0.93126608  0.68799510  0.93783652  1
  Zn  Zn163  1  0.08964555  0.30671724  0.06357711  1
  Zn  Zn164  1  0.06083014  0.31007530  0.56552383  1
  Zn  Zn165  1  0.05916140  0.80812339  0.06501208  1
  Zn  Zn166  1  0.07294967  0.82298009  0.53842228  1
  Zn  Zn167  1  0.56031545  0.31174562  0.06439099  1
  Zn  Zn168  1  0.55989997  0.31338039  0.56291478  1
  Zn  Zn169  1  0.56287138  0.81441144  0.05981183  1
  Zn  Zn170  1  0.56941321  0.81432237  0.56755266  1
  O  O171  1  0.12788607  0.12128304  0.11894556  1
  O  O172  1  0.11792453  0.12666619  0.62562463  1
  O  O173  1  0.12554505  0.61868185  0.11304606  1
  O  O174  1  0.11400031  0.61567722  0.61947373  1
  O  O175  1  0.62257181  0.11793774  0.12149097  1
  O  O176  1  0.61055017  0.13156641  0.61793408  1
  O  O177  1  0.61880812  0.60992969  0.13147958  1
  O  O178  1  0.62912232  0.61902255  0.61123883  1
  O  O179  1  0.38462241  0.38012470  0.37247036  1
  O  O180  1  0.38359864  0.37988290  0.87450342  1
  O  O181  1  0.39019852  0.86290680  0.38791752  1
  O  O182  1  0.37697051  0.88527835  0.87427806  1
  O  O183  1  0.87630272  0.38338062  0.38391223  1
  O  O184  1  0.87781186  0.39163867  0.86842954  1
  O  O185  1  0.86482389  0.87755973  0.39293336  1
  O  O186  1  0.88301145  0.88277069  0.87571969  1
  O  O187  1  0.24641969  0.01454909  0.37861052  1
  O  O188  1  0.26133951  -0.00706567  0.87535241  1
  O  O189  1  0.26597517  0.50075883  0.37769423  1
  O  O190  1  0.24679072  0.49095803  0.85762568  1
  O  O191  1  0.75064682  0.01495429  0.37544975  1
  O  O192  1  0.75620046  0.00593332  0.86806482  1
  O  O193  1  0.75482270  0.50666244  0.36721217  1
  O  O194  1  0.75326552  0.50415369  0.86896274  1
  O  O195  1  0.24113481  0.49220107  0.12440530  1
  O  O196  1  0.23673663  0.49493896  0.63440066  1
  O  O197  1  0.23608055  0.99721678  0.13133873  1
  O  O198  1  0.25406387  0.98774850  0.61427060  1
  O  O199  1  0.74196322  0.49332878  0.13028348  1
  O  O200  1  0.74306070  0.49567160  0.63212471  1
  O  O201  1  0.74040721  0.99473310  0.12577313  1
  O  O202  1  0.75218081  0.99722624  0.63758626  1
  O  O203  1  0.01300019  0.36921728  0.25442522  1
  O  O204  1  0.00944930  0.36911960  0.74793985  1
  O  O205  1  0.00175766  0.86382481  0.25421464  1
  O  O206  1  0.00652880  0.86988205  0.75197018  1
  O  O207  1  0.50628888  0.36814022  0.25523790  1
  O  O208  1  0.50013558  0.36705919  0.75521218  1
  O  O209  1  0.50636101  0.86898640  0.25749839  1
  O  O210  1  0.50813558  0.86403867  0.74827432  1
  O  O211  1  0.49696708  0.13108428  0.24926575  1
  O  O212  1  0.50286917  0.13590101  0.74345639  1
  O  O213  1  0.49686179  0.62727032  0.23950094  1
  O  O214  1  0.50292794  0.63801315  0.74652415  1
  O  O215  1  0.98842410  0.13457052  0.25560823  1
  O  O216  1  0.99275151  0.13266009  0.74610554  1
  O  O217  1  1.00159133  0.63670670  0.24657711  1
  O  O218  1  0.99762916  0.63571322  0.74161024  1
  O  O219  1  0.38236043  0.24840133  0.01543340  1
  O  O220  1  0.38146931  0.25359582  0.51243852  1
  O  O221  1  0.36835200  0.74640708  0.00648946  1
  O  O222  1  0.37585718  0.75382745  0.51143306  1
  O  O223  1  0.87101589  0.24439869  0.00490602  1
  O  O224  1  0.86652223  0.25830303  0.50561373  1
  O  O225  1  0.86383379  0.75139475  0.00598444  1
  O  O226  1  0.86368705  0.75738604  0.49884798  1
  O  O227  1  0.11844163  0.23890943  0.49495213  1
  O  O228  1  0.12756218  0.23699380  0.98503459  1
  O  O229  1  0.14094408  0.73203214  0.51710585  1
  O  O230  1  0.12976312  0.74235862  0.99181207  1
  O  O231  1  0.63782587  0.25207891  0.50338911  1
  O  O232  1  0.63074357  0.24206188  1.00014198  1
  O  O233  1  0.63254213  0.74335112  0.49574349  1
  O  O234  1  0.64182628  0.75048386  1.00624644  1
  O  O235  1  0.49471488  0.24379057  0.13697437  1
  O  O236  1  0.49276554  0.24650791  0.63238737  1
  O  O237  1  0.49783903  0.74015532  0.12834115  1
  O  O238  1  0.49090039  0.75246142  0.62977844  1
  O  O239  1  0.99570595  0.25869534  0.12877957  1
  O  O240  1  0.99474272  0.24166443  0.63694381  1
  O  O241  1  0.99472899  0.74614491  0.13231633  1
  O  O242  1  1.00785698  0.74285538  0.63368303  1
  O  O243  1  0.01170350  0.25320976  0.36978807  1
  O  O244  1  -0.00121040  0.25347903  0.86343165  1
  O  O245  1  -0.00188205  0.75404119  0.36166519  1
  O  O246  1  0.00834576  0.75846725  0.86778980  1
  O  O247  1  0.49665015  0.25771293  0.36336287  1
  O  O248  1  0.49612819  0.25500274  0.86656301  1
  O  O249  1  0.50961143  0.75646010  0.37031446  1
  O  O250  1  0.49791942  0.75214366  0.86079254  1
  O  O251  1  0.24313851  0.12386804  0.49753690  1
  O  O252  1  0.23293411  0.12371703  0.99740817  1
  O  O253  1  0.24382838  0.62883101  0.49969320  1
  O  O254  1  0.23872837  0.63654948  1.00130395  1
  O  O255  1  0.75096005  0.13392323  0.49030615  1
  O  O256  1  0.74102052  0.13454238  0.99904988  1
  O  O257  1  0.74390506  0.63230187  0.49473597  1
  O  O258  1  0.74885591  0.63593924  0.99264765  1
  O  O259  1  0.24939962  0.37483969  0.01438851  1
  O  O260  1  0.24991355  0.38177375  0.51305245  1
  O  O261  1  0.25193554  0.85847216  0.00648545  1
  O  O262  1  0.26378688  0.86562874  0.51081834  1
  O  O263  1  0.74428261  0.36154245  0.00265387  1
  O  O264  1  0.75579891  0.36956521  0.50314542  1
  O  O265  1  0.75155896  0.86524939  0.00508220  1
  O  O266  1  0.75104838  0.86894143  0.50858112  1
  O  O267  1  0.12675539  0.49162868  0.24447336  1
  O  O268  1  0.12858518  0.49504071  0.74692676  1
  O  O269  1  0.12475718  1.00478004  0.24047115  1
  O  O270  1  0.12035642  0.99194314  0.74386087  1
  O  O271  1  0.63236108  0.48879102  0.24498191  1
  O  O272  1  0.63154366  0.49587534  0.74531911  1
  O  O273  1  0.63023590  0.99282433  0.24246797  1
  O  O274  1  0.63323829  0.99438926  0.75264388  1
  O  O275  1  0.37961706  0.01278704  0.24766591  1
  O  O276  1  0.37539871  0.00232342  0.76136993  1
  O  O277  1  0.38384525  0.50973575  0.25801738  1
  O  O278  1  0.35618612  0.50076149  0.74371244  1
  O  O279  1  0.87801290  0.01514016  0.24877517  1
  O  O280  1  0.86642878  0.00473283  0.75986344  1
  O  O281  1  0.86138927  0.49192348  0.25965045  1
  O  O282  1  0.85957767  0.50214114  0.75294729  1
  O  O283  1  0.12667204  0.36980863  0.37176383  1
  O  O284  1  0.11785028  0.36495886  0.87199642  1
  O  O285  1  0.11726925  0.86673981  0.43650763  1
  O  O286  1  0.11921716  0.87079755  0.86356652  1
  O  O287  1  0.61254199  0.38143056  0.36684216  1
  O  O288  1  0.61138129  0.37254225  0.86861793  1
  O  O289  1  0.62190961  0.86896770  0.36985338  1
  O  O290  1  0.62562730  0.87739944  0.85986574  1
  O  O291  1  0.37862763  0.12881121  0.13209506  1
  O  O292  1  0.38563244  0.13256978  0.62721720  1
  O  O293  1  0.38243490  0.63131398  0.12985700  1
  O  O294  1  0.37244056  0.63717212  0.62838524  1
  O  O295  1  0.86839261  0.12912307  0.14259291  1
  O  O296  1  0.87867362  0.13323546  0.63083970  1
  O  O297  1  0.87645949  0.61465420  0.12970199  1
  O  O298  1  0.88748741  0.62016098  0.62629587  1
  O  O299  1  0.25870078  0.25771258  0.13193566  1
  O  O300  1  0.25860563  0.26286944  0.62658502  1
  O  O301  1  0.26019958  0.74779173  0.11746661  1
  O  O302  1  0.26378654  0.75377083  0.61924526  1
  O  O303  1  0.74672290  0.25834577  0.11750810  1
  O  O304  1  0.75462951  0.25700286  0.61847730  1
  O  O305  1  0.75293531  0.75738075  0.11719232  1
  O  O306  1  0.74672562  0.75706849  0.61666389  1
  O  O307  1  0.23748366  0.24154869  0.37203003  1
  O  O308  1  0.24131161  0.25514092  0.86677985  1
  O  O309  1  0.26092239  0.74365657  0.39181357  1
  O  O310  1  0.23690594  0.75474628  0.87826298  1
  O  O311  1  0.75340842  0.24353213  0.38371373  1
  O  O312  1  0.74811840  0.24344049  0.88347085  1
  O  O313  1  0.74667715  0.74231899  0.38056270  1
  O  O314  1  0.75284410  0.74174919  0.88669173  1
  O  O315  1  0.02487512  0.11927304  -0.01379118  1
  O  O316  1  0.00239820  0.12246663  0.50874548  1
  O  O317  1  0.01410406  0.63147168  0.00060981  1
  O  O318  1  0.00736494  0.63374256  0.50703599  1
  O  O319  1  0.51163152  0.12614475  0.00705719  1
  O  O320  1  0.50061028  0.11552951  0.50487116  1
  O  O321  1  0.49828636  0.61621861  0.01284778  1
  O  O322  1  0.50961705  0.61613704  0.49299401  1
  O  O323  1  0.49869384  0.38205602  0.49056705  1
  O  O324  1  0.49662904  0.37881781  0.99175623  1
  O  O325  1  0.50026542  0.87872118  0.49597886  1
  O  O326  1  0.49599857  0.87677758  0.99678744  1
  O  O327  1  0.98647208  0.37128473  0.50122374  1
  O  O328  1  0.99245671  0.35714520  1.00870147  1
  O  O329  1  0.98247618  0.89165074  0.52059606  1
  O  O330  1  1.00066203  0.87814770  0.98711103  1
  O  O331  1  0.49311721  0.49323315  0.38310684  1
  O  O332  1  0.49966607  0.49106532  0.88340135  1
  O  O333  1  0.50634311  0.98711555  0.38028140  1
  O  O334  1  0.48929770  0.99677804  0.87803483  1
  O  O335  1  0.98537600  0.50032373  0.36929266  1
  O  O336  1  0.98504068  0.49776337  0.87272903  1
  O  O337  1  1.00961619  0.99713675  0.39016262  1
  O  O338  1  0.99164093  0.98988779  0.87176663  1
  O  O339  1  0.01459680  -0.00008814  0.12298862  1
  O  O340  1  -0.00792994  0.01602278  0.62595241  1
  O  O341  1  0.01870252  0.49979925  0.12660575  1
  O  O342  1  0.00886909  0.50817022  0.63275254  1
  O  O343  1  0.51237388  0.00610349  0.12387929  1
  O  O344  1  0.49544022  0.00863445  0.61778545  1
  O  O345  1  0.50594231  0.50355815  0.12067130  1
  O  O346  1  0.50347688  0.49444758  0.61201463  1
  O  O347  1  0.23926739  0.36905645  0.24367066  1
  O  O348  1  0.23636367  0.38226107  0.74008160  1
  O  O349  1  0.25843656  0.87704987  0.24658585  1
  O  O350  1  0.24426887  0.86878044  0.73676623  1
  O  O351  1  0.74301362  0.37921748  0.24649484  1
  O  O352  1  0.74221081  0.38197384  0.74551401  1
  O  O353  1  0.74720773  0.87552748  0.24242771  1
  O  O354  1  0.74536727  0.88135132  0.74625057  1
  O  O355  1  0.25898723  0.12120942  0.26170409  1
  O  O356  1  0.23939826  0.11108715  0.72495039  1
  O  O357  1  0.26264532  0.63095255  0.25000981  1
  O  O358  1  0.24285029  0.61182456  0.74389661  1
  O  O359  1  0.76096591  0.12553987  0.25904475  1
  O  O360  1  0.75130932  0.12011856  0.75300486  1
  O  O361  1  0.74189589  0.61446508  0.25989097  1
  O  O362  1  0.75007060  0.61886377  0.75630010  1
  O  O363  1  0.36622955  0.13139956  0.36859349  1
  O  O364  1  0.37231403  0.11140104  0.86726913  1
  O  O365  1  0.37791054  0.61695855  0.36428388  1
  O  O366  1  0.37806639  0.61696727  0.86655857  1
  O  O367  1  0.86244124  0.13246501  0.36474749  1
  O  O368  1  0.86857270  0.11888875  0.86824205  1
  O  O369  1  0.86127928  0.61738368  0.38353694  1
  O  O370  1  0.86629897  0.61206579  0.87233324  1
  O  O371  1  0.13461179  0.38187093  0.13376016  1
  O  O372  1  0.12712361  0.38062850  0.63239081  1
  O  O373  1  0.12495074  0.88759344  0.12056988  1
  O  O374  1  0.13604893  0.87083069  0.63381706  1
  O  O375  1  0.62757985  0.38377401  0.13286528  1
  O  O376  1  0.62890192  0.38212737  0.62972625  1
  O  O377  1  0.63465409  0.88209333  0.12926059  1
  O  O378  1  0.63820938  0.87511677  0.63729390  1
  O  O379  1  0.11622016  0.25449462  0.25851226  1
  O  O380  1  0.11618245  0.25981509  0.76089365  1
  O  O381  1  0.10958568  0.75057651  0.24598172  1
  O  O382  1  0.11830244  0.75623492  0.75492232  1
  O  O383  1  0.61776493  0.26226450  0.24446607  1
  O  O384  1  0.61452200  0.25754646  0.75098505  1
  O  O385  1  0.62183436  0.75472453  0.25406479  1
  O  O386  1  0.61234200  0.75636203  0.74415538  1
  O  O387  1  0.38328032  0.23990936  0.24227415  1
  O  O388  1  0.38003099  0.24544751  0.73964266  1
  O  O389  1  0.38525416  0.73960161  0.24310361  1
  O  O390  1  0.38751779  0.74971261  0.73896377  1
  O  O391  1  0.89005910  0.24761500  0.25451254  1
  O  O392  1  0.87858764  0.24773480  0.74533852  1
  O  O393  1  0.88907698  0.75252466  0.24340684  1
  O  O394  1  0.88728037  0.75107727  0.75495274  1
  O  O395  1  0.38240745  0.49897410  0.49412412  1
  O  O396  1  0.38584082  0.49457014  1.00307903  1
  O  O397  1  0.38908674  0.98414701  0.50076866  1
  O  O398  1  0.37431692  0.99932916  0.98972451  1
  O  O399  1  0.86603496  0.48987345  0.49046011  1
  O  O400  1  0.86759952  0.49490832  0.98574010  1
  O  O401  1  0.88334452  0.99769033  0.50216915  1
  O  O402  1  0.87636244  1.00282300  0.98720881  1
  O  O403  1  0.12631241  0.00775335  0.01040099  1
  O  O404  1  0.11508183  0.01974370  0.51483568  1
  O  O405  1  0.12975023  0.51394365  0.00355470  1
  O  O406  1  0.12467229  0.50735064  0.51158593  1
  O  O407  1  0.62678720  0.00892491  0.00765450  1
  O  O408  1  0.61433108  0.00186577  0.49805562  1
  O  O409  1  0.61121546  0.49239396  0.01031037  1
  O  O410  1  0.61848985  0.50734766  0.50283074  1
  O  O411  1  0.36749053  0.36541274  0.12753610  1
  O  O412  1  0.36466718  0.36828669  0.62345359  1
  O  O413  1  0.38078552  0.85877850  0.12375278  1
  O  O414  1  0.37284849  0.86422941  0.62034934  1
  O  O415  1  0.87347113  0.37572359  0.12497213  1
  O  O416  1  0.86827546  0.37328804  0.61934474  1
  O  O417  1  0.86223635  0.88711529  0.12158154  1
  O  O418  1  0.85673372  0.87995422  0.61919376  1
  O  O419  1  0.13103385  0.13215718  0.38593035  1
  O  O420  1  0.13016743  0.13972734  0.86663460  1
  O  O421  1  0.12784547  0.61463123  0.38922027  1
  O  O422  1  0.12057672  0.63262245  0.88424453  1
  O  O423  1  0.64390250  0.12862991  0.37411452  1
  O  O424  1  0.62977735  0.12640372  0.88457013  1
  O  O425  1  0.63444751  0.62667122  0.38402617  1
  O  O426  1  0.63716246  0.61876066  0.87382321  1
