# generated using pymatgen
data_V85Zn86O256
_symmetry_space_group_name_H-M   'P 1'
_cell_length_a   16.97429734
_cell_length_b   17.00045365
_cell_length_c   16.97372260
_cell_angle_alpha   90.02953310
_cell_angle_beta   90.08730338
_cell_angle_gamma   90.03682260
_symmetry_Int_Tables_number   1
_chemical_formula_structural   V85Zn86O256
_chemical_formula_sum   'V85 Zn86 O256'
_cell_volume   4898.11259577
_cell_formula_units_Z   1
loop_
 _symmetry_equiv_pos_site_id
 _symmetry_equiv_pos_as_xyz
  1  'x, y, z'
loop_
 _atom_site_type_symbol
 _atom_site_label
 _atom_site_symmetry_multiplicity
 _atom_site_fract_x
 _atom_site_fract_y
 _atom_site_fract_z
 _atom_site_occupancy
  V  V0  1  0.11802318  0.50734400  0.12393631  1
  V  V1  1  0.24821565  0.24465306  0.50207017  1
  V  V2  1  0.12216174  0.88387719  0.74104556  1
  V  V3  1  0.39351886  0.75386622  0.63976218  1
  V  V4  1  0.63256945  0.74362064  0.37369099  1
  V  V5  1  0.88507867  0.74610415  0.12492168  1
  V  V6  1  0.87866361  0.87882624  0.50322483  1
  V  V7  1  0.71885263  0.78477169  -0.04743566  1
  V  V8  1  0.38493008  0.12562885  0.25495800  1
  V  V9  1  0.11734888  0.75006134  0.37172146  1
  V  V10  1  0.75098157  0.49987890  0.24628668  1
  V  V11  1  -0.00219227  0.87650533  0.37786280  1
  V  V12  1  0.62215988  0.36319937  0.24896964  1
  V  V13  1  0.38180803  0.00077886  0.37468608  1
  V  V14  1  0.37740291  0.75226508  0.12181230  1
  V  V15  1  0.62334962  0.36271372  0.74792238  1
  V  V16  1  0.38533475  0.24862399  0.62813424  1
  V  V17  1  0.87579627  0.50174013  0.37536375  1
  V  V18  1  0.38121851  0.37404137  0.49464247  1
  V  V19  1  0.22606580  0.10572489  0.38890986  1
  V  V20  1  -0.00025756  0.37900380  0.87952107  1
  V  V21  1  0.12525692  0.62517127  0.50284080  1
  V  V22  1  0.37720155  0.87681142  0.50209475  1
  V  V23  1  0.25204110  -0.00080626  0.24757228  1
  V  V24  1  0.12677187  0.37411156  0.24656339  1
  V  V25  1  0.75433289  0.00927361  0.24891130  1
  V  V26  1  0.24941647  0.75146154  -0.00237871  1
  V  V27  1  0.49644966  0.36312864  0.36851696  1
  V  V28  1  -0.00371699  0.12570046  0.13612907  1
  V  V29  1  0.50020684  0.49632006  0.00542977  1
  V  V30  1  0.00141923  0.25106432  0.74836888  1
  V  V31  1  0.87923475  0.61927386  0.73503710  1
  V  V32  1  0.12450293  0.37763930  0.75078189  1
  V  V33  1  0.74637666  0.37473219  0.62743662  1
  V  V34  1  0.62524488  0.49791922  0.13090214  1
  V  V35  1  0.12410095  0.12350720  0.00277431  1
  V  V36  1  -0.00008129  0.50563543  0.50243520  1
  V  V37  1  0.75072102  0.62596814  0.38374667  1
  V  V38  1  0.87615733  0.74584748  0.61546409  1
  V  V39  1  0.37728552  0.25017435  0.13375551  1
  V  V40  1  0.25066612  0.62573788  0.87465766  1
  V  V41  1  0.37986763  0.12972623  0.75305742  1
  V  V42  1  0.25305921  0.50643910  0.74902035  1
  V  V43  1  0.87786400  0.87146681  0.00016459  1
  V  V44  1  0.87703027  0.00883513  0.37463425  1
  V  V45  1  0.38451639  0.00201066  0.87612717  1
  V  V46  1  0.40579567  0.52840564  0.39343794  1
  V  V47  1  0.24817292  0.87501019  0.12436611  1
  V  V48  1  0.88801138  0.62736527  0.24371589  1
  V  V49  1  0.50093288  0.74770369  0.24561614  1
  V  V50  1  0.62957762  0.24580177  0.89041300  1
  V  V51  1  0.25477617  0.50001073  0.25377523  1
  V  V52  1  0.74920382  0.24843132  0.49641698  1
  V  V53  1  0.50158368  0.12260647  0.11342084  1
  V  V54  1  0.37306257  0.49749035  0.87795927  1
  V  V55  1  -0.00132239  0.37654131  0.37457561  1
  V  V56  1  0.12838886  0.25029031  0.87767551  1
  V  V57  1  0.49848092  0.36442299  0.87134381  1
  V  V58  1  0.38266105  0.88422274  -0.00391291  1
  V  V59  1  0.00969970  0.11314676  0.61542273  1
  V  V60  1  0.75974393  0.62087723  0.87737353  1
  V  V61  1  0.72148830  0.52116133  0.73063362  1
  V  V62  1  0.62705318  0.87693868  0.24528005  1
  V  V63  1  -0.00366466  0.74839016  0.74439162  1
  V  V64  1  0.75078307  0.86906620  0.12742982  1
  V  V65  1  0.75039753  0.13068070  0.88744884  1
  V  V66  1  0.50199197  0.87490663  0.37225914  1
  V  V67  1  0.62136114  0.00255186  0.11538772  1
  V  V68  1  0.63368522  0.62205686  -0.00291011  1
  V  V69  1  0.24616874  0.62651052  0.37422199  1
  V  V70  1  0.11778094  0.87226856  0.24810147  1
  V  V71  1  -0.00126588  0.87472768  0.87249858  1
  V  V72  1  0.87832688  0.25215965  0.62330812  1
  V  V73  1  0.50773329  0.00072700  0.51119047  1
  V  V74  1  0.74223393  -0.01104041  0.74049930  1
  V  V75  1  0.24971031  0.37421858  0.62401678  1
  V  V76  1  0.50091769  0.62672369  0.12135216  1
  V  V77  1  0.12338834  0.50697392  0.62601551  1
  V  V78  1  0.87622670  0.00026762  0.87494708  1
  V  V79  1  0.24974700  0.74964458  0.50702789  1
  V  V80  1  0.70153150  0.80228996  0.54877940  1
  V  V81  1  0.12568753  0.25391256  0.37926705  1
  V  V82  1  0.87210928  0.12672334  0.75017544  1
  V  V83  1  0.37474910  0.37137764  0.00450064  1
  V  V84  1  0.86742456  0.37006276  0.00200371  1
  Zn  Zn85  1  0.87504469  0.37736523  0.50032499  1
  Zn  Zn86  1  0.11674956  0.63110022  0.00225662  1
  Zn  Zn87  1  0.12355410  0.75041794  0.87228032  1
  Zn  Zn88  1  0.25086604  0.37459031  0.12684362  1
  Zn  Zn89  1  0.24888770  0.12033109  0.87556270  1
  Zn  Zn90  1  0.37148801  0.62714784  0.24464425  1
  Zn  Zn91  1  -0.00775815  0.50910041  0.00483953  1
  Zn  Zn92  1  0.63003268  0.12334193  0.50366487  1
  Zn  Zn93  1  -0.00579374  0.24348988  0.25439013  1
  Zn  Zn94  1  0.43052723  0.59208187  0.70139564  1
  Zn  Zn95  1  0.12370360  0.00072636  0.12520417  1
  Zn  Zn96  1  0.24964671  0.24879224  0.00480700  1
  Zn  Zn97  1  0.75267003  0.13067637  0.37014194  1
  Zn  Zn98  1  0.87317951  0.49694209  0.87086463  1
  Zn  Zn99  1  0.86392136  0.24141011  0.12827546  1
  Zn  Zn100  1  0.74397362  0.36656764  0.11630644  1
  Zn  Zn101  1  0.51080299  0.12560640  0.63532964  1
  Zn  Zn102  1  0.55940484  0.81667317  0.82685266  1
  Zn  Zn103  1  0.00203516  0.00058206  0.00219211  1
  Zn  Zn104  1  0.62093969  0.24229081  0.37290402  1
  Zn  Zn105  1  0.24698041  0.00698458  0.74624297  1
  Zn  Zn106  1  0.24496494  0.88289702  0.62319360  1
  Zn  Zn107  1  0.18946772  0.18568405  0.19155596  1
  Zn  Zn108  1  0.18957997  0.18521085  0.68849058  1
  Zn  Zn109  1  0.18636246  0.68857133  0.18746109  1
  Zn  Zn110  1  0.18659234  0.69065814  0.68941944  1
  Zn  Zn111  1  0.68834576  0.18776937  0.17886041  1
  Zn  Zn112  1  0.68741090  0.18429319  0.68823267  1
  Zn  Zn113  1  0.69158276  0.68450450  0.18808207  1
  Zn  Zn114  1  0.59454164  0.66860822  0.70390693  1
  Zn  Zn115  1  0.30991699  0.30733949  0.31513923  1
  Zn  Zn116  1  0.31011901  0.31164735  0.81097122  1
  Zn  Zn117  1  0.30982506  0.81254942  0.31289210  1
  Zn  Zn118  1  0.31143695  0.81922237  0.81457783  1
  Zn  Zn119  1  0.81296487  0.31170018  0.30620285  1
  Zn  Zn120  1  0.80931608  0.31409471  0.81237671  1
  Zn  Zn121  1  0.81646046  0.81148142  0.30940185  1
  Zn  Zn122  1  0.74834935  0.77648952  0.74852131  1
  Zn  Zn123  1  0.19218114  0.43707867  0.43936085  1
  Zn  Zn124  1  0.18805657  0.43670220  0.94098951  1
  Zn  Zn125  1  0.19073377  0.93446222  0.43498435  1
  Zn  Zn126  1  0.18926256  0.94076134  0.93211474  1
  Zn  Zn127  1  0.69111598  0.42701783  0.43226661  1
  Zn  Zn128  1  0.68815158  0.43964743  0.93060720  1
  Zn  Zn129  1  0.68852260  0.94020672  0.43102506  1
  Zn  Zn130  1  0.68924783  0.95424343  0.93299881  1
  Zn  Zn131  1  0.31075601  0.06584571  0.06301021  1
  Zn  Zn132  1  0.31265937  0.06145942  0.56969314  1
  Zn  Zn133  1  0.30839417  0.56319017  0.06300468  1
  Zn  Zn134  1  0.33830133  0.55406773  0.56985158  1
  Zn  Zn135  1  0.81518121  0.05782084  0.06478826  1
  Zn  Zn136  1  0.81738220  0.06384940  0.56332158  1
  Zn  Zn137  1  0.81694371  0.55645058  0.06162845  1
  Zn  Zn138  1  0.70566668  0.56446476  0.56111090  1
  Zn  Zn139  1  0.43760076  0.44027188  0.19691846  1
  Zn  Zn140  1  0.43884792  0.42703742  0.68663003  1
  Zn  Zn141  1  0.43955440  0.93704927  0.18229204  1
  Zn  Zn142  1  0.43148988  0.93908988  0.69507592  1
  Zn  Zn143  1  0.93679039  0.43144929  0.18859165  1
  Zn  Zn144  1  0.93767256  0.43851642  0.68604554  1
  Zn  Zn145  1  0.93884673  0.94079715  0.18833525  1
  Zn  Zn146  1  0.93005981  0.93759069  0.68670292  1
  Zn  Zn147  1  0.06812456  0.05520824  0.32491290  1
  Zn  Zn148  1  0.05877354  0.06588333  0.81107466  1
  Zn  Zn149  1  0.06516595  0.56047182  0.31005959  1
  Zn  Zn150  1  0.06210790  0.56645935  0.81620546  1
  Zn  Zn151  1  0.56886894  0.06457445  0.31384750  1
  Zn  Zn152  1  0.56268099  0.06149349  0.81290876  1
  Zn  Zn153  1  0.56938408  0.55874688  0.43239275  1
  Zn  Zn154  1  0.56268004  0.55321164  0.82665820  1
  Zn  Zn155  1  0.43439262  0.18381793  0.43996250  1
  Zn  Zn156  1  0.43656752  0.18847372  0.93785803  1
  Zn  Zn157  1  0.43459731  0.70048774  0.43534156  1
  Zn  Zn158  1  0.43769188  0.68315164  0.92490301  1
  Zn  Zn159  1  0.93956906  0.18863083  0.44093459  1
  Zn  Zn160  1  0.94154250  0.18997355  0.94000675  1
  Zn  Zn161  1  0.93704989  0.68499382  0.43539673  1
  Zn  Zn162  1  0.93539959  0.68953009  0.93788589  1
  Zn  Zn163  1  0.05886669  0.31221827  0.06332238  1
  Zn  Zn164  1  0.06292317  0.31437186  0.56176496  1
  Zn  Zn165  1  0.06366416  0.81294631  0.06021872  1
  Zn  Zn166  1  0.05796088  0.81167020  0.56198906  1
  Zn  Zn167  1  0.55797089  0.30779497  0.06725455  1
  Zn  Zn168  1  0.56554881  0.31446312  0.55804193  1
  Zn  Zn169  1  0.55390935  0.80406387  0.00516573  1
  Zn  Zn170  1  0.56782531  0.83589267  0.66934090  1
  O  O171  1  0.11979560  0.12339513  0.11937127  1
  O  O172  1  0.10795403  0.12837824  0.63412049  1
  O  O173  1  0.12880421  0.61075732  0.12584702  1
  O  O174  1  0.13071037  0.61325518  0.62128461  1
  O  O175  1  0.60816768  0.11804981  0.13294583  1
  O  O176  1  0.62096504  0.13218459  0.61750984  1
  O  O177  1  0.62290507  0.61636601  0.11852471  1
  O  O178  1  0.66173275  0.58875808  0.66256405  1
  O  O179  1  0.38114880  0.37045016  0.38010961  1
  O  O180  1  0.38095406  0.37421399  0.88352826  1
  O  O181  1  0.38166972  0.87833637  0.38010287  1
  O  O182  1  0.37227358  0.88348818  0.88918002  1
  O  O183  1  0.88464711  0.38486543  0.37450884  1
  O  O184  1  0.88319567  0.37406031  0.88118148  1
  O  O185  1  0.88331044  0.87525998  0.38153119  1
  O  O186  1  0.88649806  0.88531163  0.88238757  1
  O  O187  1  0.26991421  -0.00832788  0.36177501  1
  O  O188  1  0.25968290  0.00226810  0.86772740  1
  O  O189  1  0.23788712  0.51200851  0.36326355  1
  O  O190  1  0.25168940  0.50556820  0.86980760  1
  O  O191  1  0.75911041  0.00199081  0.36520172  1
  O  O192  1  0.76268971  0.01029421  0.86693162  1
  O  O193  1  0.76087199  0.50422256  0.36686023  1
  O  O194  1  0.75040738  0.50911998  0.85844053  1
  O  O195  1  0.24675085  0.49869868  0.14000188  1
  O  O196  1  0.24701270  0.49537579  0.63315740  1
  O  O197  1  0.25007143  0.99650688  0.13631737  1
  O  O198  1  0.25114649  0.99480610  0.63155407  1
  O  O199  1  0.74300158  0.49337856  0.13035570  1
  O  O200  1  0.76082170  0.48205578  0.63153289  1
  O  O201  1  0.74614191  0.99090124  0.13178573  1
  O  O202  1  0.75867879  1.00723492  0.64215446  1
  O  O203  1  0.01110001  0.38003742  0.26239465  1
  O  O204  1  0.00594824  0.36978175  0.75610859  1
  O  O205  1  0.01239349  0.87719292  0.25576450  1
  O  O206  1  0.00347748  0.86995393  0.75398457  1
  O  O207  1  0.50892786  0.37296998  0.25617372  1
  O  O208  1  0.50690668  0.37547537  0.76071114  1
  O  O209  1  0.50795975  0.86633335  0.24959373  1
  O  O210  1  0.51029169  0.88416779  0.75048174  1
  O  O211  1  0.48685792  0.12044461  0.25008701  1
  O  O212  1  0.48595538  0.12357839  0.75119687  1
  O  O213  1  0.49677749  0.64302514  0.23991444  1
  O  O214  1  0.50865359  0.63043950  0.76753590  1
  O  O215  1  1.00894732  0.12209726  0.23814764  1
  O  O216  1  0.98816491  0.13390213  0.74734863  1
  O  O217  1  0.98703892  0.61898767  0.25178794  1
  O  O218  1  0.98674339  0.63359032  0.75645539  1
  O  O219  1  0.37325118  0.25673243  0.01015529  1
  O  O220  1  0.36730446  0.25612232  0.50558919  1
  O  O221  1  0.36514749  0.76219667  0.00538866  1
  O  O222  1  0.36865139  0.76069585  0.50660941  1
  O  O223  1  0.88445221  0.26724904  0.00245155  1
  O  O224  1  0.87254926  0.25535455  0.50898939  1
  O  O225  1  0.86443307  0.76322767  0.00154304  1
  O  O226  1  0.88268937  0.75348678  0.50976993  1
  O  O227  1  0.13438117  0.25634966  0.49093336  1
  O  O228  1  0.12589412  0.24516996  0.99357483  1
  O  O229  1  0.12992959  0.74516387  0.49396846  1
  O  O230  1  0.13827673  0.75196167  0.99731825  1
  O  O231  1  0.63689878  0.25285739  0.49368574  1
  O  O232  1  0.62288694  0.25314920  0.98886743  1
  O  O233  1  0.63790907  0.74839048  0.48803805  1
  O  O234  1  0.64604523  0.73488327  1.01607450  1
  O  O235  1  0.48845662  0.23585090  0.12658046  1
  O  O236  1  0.48714773  0.25224438  0.61800350  1
  O  O237  1  0.48878419  0.74904450  0.12427360  1
  O  O238  1  0.49450926  0.74814182  0.62868262  1
  O  O239  1  1.00330851  0.23374813  0.12776503  1
  O  O240  1  0.99398004  0.25042588  0.63076187  1
  O  O241  1  0.98412612  0.75363571  0.11617884  1
  O  O242  1  0.99196012  0.75090241  0.63597565  1
  O  O243  1  0.00658021  0.26033836  0.37613399  1
  O  O244  1  0.01057035  0.26003622  0.87037729  1
  O  O245  1  0.01140264  0.75626555  0.37753799  1
  O  O246  1  -0.00483767  0.76054772  0.86203020  1
  O  O247  1  0.49959510  0.25870236  0.38102989  1
  O  O248  1  0.50958328  0.25862106  0.88043463  1
  O  O249  1  0.50899698  0.75622111  0.36463421  1
  O  O250  1  0.50975966  0.76054110  0.90860245  1
  O  O251  1  0.25972776  0.13609987  0.49427616  1
  O  O252  1  0.23706148  0.12879124  0.99943978  1
  O  O253  1  0.24548814  0.63332965  0.49156730  1
  O  O254  1  0.24681290  0.63496249  0.99420063  1
  O  O255  1  0.75641311  0.13970152  0.50037834  1
  O  O256  1  0.75769788  0.11804771  0.98600663  1
  O  O257  1  0.76237842  0.62690030  0.48299124  1
  O  O258  1  0.74825660  0.61857159  0.99003623  1
  O  O259  1  0.26387212  0.37409295  0.00429430  1
  O  O260  1  0.25737754  0.36326802  0.50215623  1
  O  O261  1  0.25360946  0.86899652  0.00603947  1
  O  O262  1  0.25978286  0.86867216  0.49694868  1
  O  O263  1  0.76442815  0.37966071  -0.00606081  1
  O  O264  1  0.75527745  0.36375198  0.50807216  1
  O  O265  1  0.75886128  0.87652002  0.00707308  1
  O  O266  1  0.75989201  0.86438456  0.48798820  1
  O  O267  1  0.13203915  0.49279046  0.24100134  1
  O  O268  1  0.12953965  0.49715912  0.74318676  1
  O  O269  1  0.13629666  0.98938467  0.25181811  1
  O  O270  1  0.12089766  0.98596128  0.75581419  1
  O  O271  1  0.63248130  0.49388734  0.23621405  1
  O  O272  1  0.62892457  0.48011652  0.76444080  1
  O  O273  1  0.63324853  0.99151535  0.24558904  1
  O  O274  1  0.64324689  1.00333956  0.75811720  1
  O  O275  1  0.37170188  0.00405626  0.25420356  1
  O  O276  1  0.37134592  0.01021224  0.76036318  1
  O  O277  1  0.36887070  0.50614763  0.26709630  1
  O  O278  1  0.36508881  0.49587446  0.76354271  1
  O  O279  1  0.86487795  -0.00889166  0.26062541  1
  O  O280  1  0.87184973  0.00985759  0.75901884  1
  O  O281  1  0.86996016  0.50299569  0.25537090  1
  O  O282  1  0.87464366  0.51258482  0.74779608  1
  O  O283  1  0.12162700  0.37025461  0.36866001  1
  O  O284  1  0.11959169  0.37008655  0.87290357  1
  O  O285  1  0.11760583  0.86800086  0.37009399  1
  O  O286  1  0.11086076  0.87392185  0.86858858  1
  O  O287  1  0.61531549  0.37079869  0.36421959  1
  O  O288  1  0.61830528  0.36328254  0.87279840  1
  O  O289  1  0.62288513  0.86689826  0.36247522  1
  O  O290  1  0.64230229  0.85300327  0.91143602  1
  O  O291  1  0.38232871  0.12841002  0.13395879  1
  O  O292  1  0.38050741  0.13425911  0.63305103  1
  O  O293  1  0.38072616  0.63464061  0.12287816  1
  O  O294  1  0.36142607  0.65448869  0.62729121  1
  O  O295  1  0.89249884  0.12336993  0.11898825  1
  O  O296  1  0.88232185  0.13738021  0.63296141  1
  O  O297  1  0.86665278  0.63379807  0.13189806  1
  O  O298  1  0.87472691  0.62849586  0.63498058  1
  O  O299  1  0.26314403  0.25105377  0.12674716  1
  O  O300  1  0.25352507  0.25486901  0.61738587  1
  O  O301  1  0.25952612  0.75230070  0.11844558  1
  O  O302  1  0.24340105  0.75903274  0.61203793  1
  O  O303  1  0.75110717  0.25440824  0.11962508  1
  O  O304  1  0.76021416  0.25849162  0.62166609  1
  O  O305  1  0.75675244  0.76548641  0.13339605  1
  O  O306  1  0.75903188  0.75276852  0.62262173  1
  O  O307  1  0.24237627  0.24092253  0.38464784  1
  O  O308  1  0.23644337  0.25220493  0.87832654  1
  O  O309  1  0.24044307  0.74627468  0.38396577  1
  O  O310  1  0.25145735  0.74334395  0.88149243  1
  O  O311  1  0.75344097  0.25076202  0.38378320  1
  O  O312  1  0.73885962  0.24567755  0.87647752  1
  O  O313  1  0.74176840  0.73906132  0.36038749  1
  O  O314  1  0.75753233  0.73864939  0.86707928  1
  O  O315  1  0.01187911  0.12427232  0.00724789  1
  O  O316  1  -0.00109450  0.12765807  0.51613357  1
  O  O317  1  0.00492309  0.62051157  -0.01011482  1
  O  O318  1  0.00873200  0.61237154  0.49255950  1
  O  O319  1  0.49408320  0.12368469  0.01542817  1
  O  O320  1  0.49676155  0.10647792  0.49835057  1
  O  O321  1  0.51099670  0.61517037  0.00439656  1
  O  O322  1  0.46645296  0.59615612  0.45944418  1
  O  O323  1  0.48587534  0.37499186  0.49383099  1
  O  O324  1  0.48947354  0.37626704  0.99766287  1
  O  O325  1  0.48696931  0.88739843  0.49056817  1
  O  O326  1  0.47943541  0.88805441  1.01862221  1
  O  O327  1  1.00253153  0.38620564  0.48860241  1
  O  O328  1  0.99437620  0.38066049  0.99285334  1
  O  O329  1  0.99324427  0.87332225  0.48854432  1
  O  O330  1  0.99450619  0.87633983  0.99126998  1
  O  O331  1  0.49591059  0.48202788  0.36709146  1
  O  O332  1  0.49382641  0.48332469  0.88787731  1
  O  O333  1  0.49260055  0.99359850  0.37336045  1
  O  O334  1  0.48485213  1.00724189  0.87899709  1
  O  O335  1  0.99779962  0.49457041  0.37908588  1
  O  O336  1  1.00181481  0.48563096  0.87144810  1
  O  O337  1  0.99007324  0.98611784  0.37033128  1
  O  O338  1  0.98906367  0.99663944  0.87562020  1
  O  O339  1  0.00365794  0.01071699  0.12313009  1
  O  O340  1  -0.00740775  0.01498139  0.62967613  1
  O  O341  1  0.01582137  0.49574307  0.12686227  1
  O  O342  1  0.01039431  0.49407989  0.61370928  1
  O  O343  1  0.50717931  0.01316899  0.13134578  1
  O  O344  1  0.49499151  -0.00121293  0.61178460  1
  O  O345  1  0.50581975  0.50596845  0.12407444  1
  O  O346  1  0.43710401  0.51485393  0.61970826  1
  O  O347  1  0.24438911  0.38366891  0.25276895  1
  O  O348  1  0.24324280  0.38646851  0.74668065  1
  O  O349  1  0.24305483  0.87995600  0.24400898  1
  O  O350  1  0.22850791  0.87112356  0.75077412  1
  O  O351  1  0.73944070  0.38815496  0.25195829  1
  O  O352  1  0.74168870  0.38025445  0.74291180  1
  O  O353  1  0.74430357  0.88197269  0.24468998  1
  O  O354  1  0.75970748  0.89131515  0.75250085  1
  O  O355  1  0.25412405  0.11279946  0.26243444  1
  O  O356  1  0.26256556  0.12808234  0.75437316  1
  O  O357  1  0.24928893  0.61981592  0.25705480  1
  O  O358  1  0.24618464  0.61414266  0.75677802  1
  O  O359  1  0.74689862  0.11195110  0.24756472  1
  O  O360  1  0.76393333  0.12668647  0.75911511  1
  O  O361  1  0.75564433  0.61059234  0.25413223  1
  O  O362  1  0.76749446  0.62272893  0.75969507  1
  O  O363  1  0.36696998  0.11457383  0.37085556  1
  O  O364  1  0.37165611  0.12207748  0.87140951  1
  O  O365  1  0.35789347  0.63107773  0.36687303  1
  O  O366  1  0.36065813  0.61437504  0.88222789  1
  O  O367  1  0.87790844  0.11174161  0.37895508  1
  O  O368  1  0.87366632  0.12183497  0.87046324  1
  O  O369  1  0.87064319  0.61937379  0.36437758  1
  O  O370  1  0.86878905  0.62112093  0.86886710  1
  O  O371  1  0.12858015  0.38243926  0.13211183  1
  O  O372  1  0.13150065  0.38574052  0.62898211  1
  O  O373  1  0.12954961  0.87611573  0.13259193  1
  O  O374  1  0.11843451  0.87455792  0.63833192  1
  O  O375  1  0.62136824  0.38100051  0.13074635  1
  O  O376  1  0.63361109  0.36901731  0.63457099  1
  O  O377  1  0.63264525  0.88228446  0.13544371  1
  O  O378  1  0.64408756  0.86868871  0.59406061  1
  O  O379  1  0.12536256  0.26623564  0.25236340  1
  O  O380  1  0.12180791  0.25824070  0.75773085  1
  O  O381  1  0.13218312  0.75962514  0.25989875  1
  O  O382  1  0.11212532  0.75749335  0.75113626  1
  O  O383  1  0.63019153  0.26098753  0.25098392  1
  O  O384  1  0.63001218  0.25999763  0.76214885  1
  O  O385  1  0.61931652  0.75586883  0.25215534  1
  O  O386  1  0.63250774  0.76666133  0.74295158  1
  O  O387  1  0.36868787  0.23766919  0.24526376  1
  O  O388  1  0.37070101  0.24627187  0.73888415  1
  O  O389  1  0.38107155  0.75409689  0.23929607  1
  O  O390  1  0.37479917  0.76315178  0.73787481  1
  O  O391  1  0.88473975  0.26310387  0.23947731  1
  O  O392  1  0.87983757  0.24578462  0.74452458  1
  O  O393  1  0.87425945  0.73931675  0.23882525  1
  O  O394  1  0.87565166  0.73992850  0.73432563  1
  O  O395  1  0.35106252  0.48528886  0.47582964  1
  O  O396  1  0.37861352  0.49116635  0.99913122  1
  O  O397  1  0.37969408  0.99411388  0.49146391  1
  O  O398  1  0.36370111  0.98980430  0.99443064  1
  O  O399  1  0.88635568  0.49858288  0.48351126  1
  O  O400  1  0.87743320  0.48767331  0.99202781  1
  O  O401  1  0.86662804  0.98758799  0.48951930  1
  O  O402  1  0.87695681  0.98811407  0.99322384  1
  O  O403  1  0.12382535  0.00913250  0.00106480  1
  O  O404  1  0.15125389  0.03927306  0.42835487  1
  O  O405  1  0.13000595  0.49933752  0.01822351  1
  O  O406  1  0.12184939  0.50464451  0.50680784  1
  O  O407  1  0.62887510  0.00118811  0.01640049  1
  O  O408  1  0.60916130  -0.00373201  0.49301816  1
  O  O409  1  0.62280171  0.50231765  0.01033253  1
  O  O410  1  0.63915106  0.50261709  0.49532045  1
  O  O411  1  0.37794122  0.36688539  0.12300427  1
  O  O412  1  0.36587375  0.36423163  0.61600940  1
  O  O413  1  0.36622055  0.87010671  0.11900983  1
  O  O414  1  0.37363608  0.86607288  0.61643036  1
  O  O415  1  0.87396627  0.37956300  0.10891941  1
  O  O416  1  0.87130539  0.36403714  0.62597942  1
  O  O417  1  0.87022769  0.87144827  0.11854362  1
  O  O418  1  0.88019070  0.86610387  0.61010891  1
  O  O419  1  0.12636575  0.15211468  0.35084046  1
  O  O420  1  0.12299365  0.13449120  0.88203692  1
  O  O421  1  0.13059489  0.63282821  0.37731025  1
  O  O422  1  0.13849612  0.62849418  0.87650424  1
  O  O423  1  0.63298379  0.12645131  0.38272906  1
  O  O424  1  0.63315534  0.13922701  0.87198753  1
  O  O425  1  0.63419036  0.63529267  0.36990114  1
  O  O426  1  0.63705413  0.61822828  0.89140651  1
