# generated using pymatgen
data_V85Zn86O256
_symmetry_space_group_name_H-M   'P 1'
_cell_length_a   16.94615899
_cell_length_b   16.94371448
_cell_length_c   16.93201457
_cell_angle_alpha   90.04577436
_cell_angle_beta   89.97376312
_cell_angle_gamma   89.98040157
_symmetry_Int_Tables_number   1
_chemical_formula_structural   V85Zn86O256
_chemical_formula_sum   'V85 Zn86 O256'
_cell_volume   4861.70188924
_cell_formula_units_Z   1
loop_
 _symmetry_equiv_pos_site_id
 _symmetry_equiv_pos_as_xyz
  1  'x, y, z'
loop_
 _atom_site_type_symbol
 _atom_site_label
 _atom_site_symmetry_multiplicity
 _atom_site_fract_x
 _atom_site_fract_y
 _atom_site_fract_z
 _atom_site_occupancy
  V  V0  1  0.91340489  0.80186992  0.58294115  1
  V  V1  1  -0.00091106  0.37695580  0.88009692  1
  V  V2  1  0.50052586  0.13243478  0.61607871  1
  V  V3  1  0.74991088  0.62788476  0.87352892  1
  V  V4  1  0.37517277  0.75435752  0.12417040  1
  V  V5  1  0.24828902  0.24966523  0.00049775  1
  V  V6  1  0.75528794  0.87435633  0.12706409  1
  V  V7  1  0.37605950  0.87262636  0.00097684  1
  V  V8  1  0.88720556  -0.00994934  0.39137764  1
  V  V9  1  0.37387393  0.62479076  0.74953076  1
  V  V10  1  0.75362810  0.74970440  0.50310100  1
  V  V11  1  0.50548878  0.61711247  0.12111701  1
  V  V12  1  0.11916503  0.76661892  0.37156132  1
  V  V13  1  0.25241235  0.87863233  0.62473362  1
  V  V14  1  -0.00112086  0.24117898  0.25189353  1
  V  V15  1  0.62446883  0.25169349  0.87617050  1
  V  V16  1  0.75282137  0.12181811  0.39541604  1
  V  V17  1  0.62507718  0.87870666  0.75236377  1
  V  V18  1  0.50030510  0.87572729  0.37553033  1
  V  V19  1  0.87636832  0.88128821  -0.00013998  1
  V  V20  1  0.37538174  0.75054548  0.62423265  1
  V  V21  1  0.50228140  0.75089628  0.74974714  1
  V  V22  1  0.38121993  0.37523017  -0.00253348  1
  V  V23  1  0.37663662  0.25159875  0.12966894  1
  V  V24  1  0.62864874  0.74927046  0.37537491  1
  V  V25  1  0.13182297  0.49289195  0.62423307  1
  V  V26  1  -0.00733689  0.74770510  0.25282016  1
  V  V27  1  0.62670415  0.00139492  0.12586128  1
  V  V28  1  0.12807979  0.75199443  0.87393280  1
  V  V29  1  -0.00341589  0.61998237  0.62448781  1
  V  V30  1  -0.00159204  0.25133975  0.74665800  1
  V  V31  1  0.12885090  0.37386517  0.24868852  1
  V  V32  1  0.37852106  0.49794269  0.37763012  1
  V  V33  1  0.62385652  0.37568764  0.75435096  1
  V  V34  1  0.62473196  0.62012662  0.49734658  1
  V  V35  1  0.37287861  0.62423608  0.24997504  1
  V  V36  1  0.75400333  0.49919375  0.74738797  1
  V  V37  1  0.20403076  0.80835706  0.05552337  1
  V  V38  1  0.73795086  0.37041559  0.14134905  1
  V  V39  1  -0.00237345  0.12651369  0.61457815  1
  V  V40  1  0.25193714  0.62910878  0.87976249  1
  V  V41  1  -0.00340067  0.49484063  0.49859747  1
  V  V42  1  0.62724471  0.87607731  0.24962231  1
  V  V43  1  0.49901028  0.25340033  0.75232723  1
  V  V44  1  0.74866023  0.87473455  0.62343392  1
  V  V45  1  0.13235821  0.37344715  0.74974422  1
  V  V46  1  0.76079429  0.01093908  0.25097444  1
  V  V47  1  0.62275474  0.49666696  0.62002091  1
  V  V48  1  0.50213747  0.62257505  0.62208199  1
  V  V49  1  0.37584420  0.00224763  0.87388266  1
  V  V50  1  0.12340461  0.87812414  0.74890430  1
  V  V51  1  0.12542982  0.62084420  0.49516379  1
  V  V52  1  0.24411163  -0.01560086  0.24264048  1
  V  V53  1  0.62501947  0.00793655  0.61604357  1
  V  V54  1  0.49978801  0.12736473  0.13347732  1
  V  V55  1  0.75489415  0.36280668  0.61776042  1
  V  V56  1  0.12187474  0.62098426  0.00431815  1
  V  V57  1  0.75116445  0.25120810  -0.00078404  1
  V  V58  1  0.38144175  0.49787415  0.87571869  1
  V  V59  1  0.87185797  0.13399186  0.75151853  1
  V  V60  1  0.24817915  0.00588286  0.74714073  1
  V  V61  1  0.87671993  0.62683951  0.74519411  1
  V  V62  1  0.50152299  0.75068057  0.24912616  1
  V  V63  1  0.25073115  0.74920956  0.49926029  1
  V  V64  1  0.37482119  0.37871841  0.50705728  1
  V  V65  1  0.37876068  0.87698467  0.49956293  1
  V  V66  1  0.50446706  0.37008422  0.36256776  1
  V  V67  1  0.12232388  0.00795445  0.61042075  1
  V  V68  1  0.73332579  0.50116049  0.24785319  1
  V  V69  1  0.36318784  0.12654552  0.25160641  1
  V  V70  1  0.74782951  0.00864644  0.75772431  1
  V  V71  1  -0.00233496  0.11391391  0.12636762  1
  V  V72  1  0.87376209  0.72781537  0.12770628  1
  V  V73  1  0.11919993  0.11747370  0.00154840  1
  V  V74  1  0.87919540  0.50227348  0.35801876  1
  V  V75  1  0.00172908  0.36925369  0.37604111  1
  V  V76  1  0.61675540  0.23139443  0.37396597  1
  V  V77  1  0.13461171  0.23336373  0.37657086  1
  V  V78  1  -0.00352490  0.75197995  0.75075758  1
  V  V79  1  0.87387930  0.24668714  0.13456033  1
  V  V80  1  0.24865146  0.24150986  0.50615040  1
  V  V81  1  0.88072777  0.00832485  0.87841949  1
  V  V82  1  0.62685948  0.12634153  -0.00440441  1
  V  V83  1  0.50072794  0.00065231  0.00062018  1
  V  V84  1  0.36950099  0.00487008  0.37424592  1
  Zn  Zn85  1  0.87422314  0.37527053  0.00329945  1
  Zn  Zn86  1  0.50260560  0.87548886  0.87618111  1
  Zn  Zn87  1  0.37558841  0.12892394  0.75057082  1
  Zn  Zn88  1  0.25029225  0.38069652  0.12393505  1
  Zn  Zn89  1  0.24965166  0.62321939  0.37553809  1
  Zn  Zn90  1  0.24779360  0.12599800  0.87585411  1
  Zn  Zn91  1  0.75770343  0.62621790  0.36918458  1
  Zn  Zn92  1  0.12354289  -0.01504610  0.12569836  1
  Zn  Zn93  1  0.12376969  0.24936254  0.87750257  1
  Zn  Zn94  1  0.51103678  0.49137518  -0.00158266  1
  Zn  Zn95  1  0.00019184  0.87979803  0.87810052  1
  Zn  Zn96  1  0.50374757  0.00900253  0.49456892  1
  Zn  Zn97  1  0.25328934  0.49653918  0.74810171  1
  Zn  Zn98  1  -0.01127431  0.51081752  0.00907647  1
  Zn  Zn99  1  0.87505951  0.36296757  0.50507352  1
  Zn  Zn100  1  0.12134815  0.50388602  0.13030979  1
  Zn  Zn101  1  0.62762872  0.75152847  0.87691517  1
  Zn  Zn102  1  0.24965307  0.49855004  0.24943608  1
  Zn  Zn103  1  0.36863579  0.25536175  0.63051548  1
  Zn  Zn104  1  0.74888905  0.74929352  -0.00100847  1
  Zn  Zn105  1  0.62887892  0.62190553  0.00167339  1
  Zn  Zn106  1  0.87613705  0.49897044  0.87611089  1
  Zn  Zn107  1  0.18727180  0.18545028  0.18552716  1
  Zn  Zn108  1  0.18365188  0.18818680  0.68543985  1
  Zn  Zn109  1  0.18252751  0.68577768  0.19486887  1
  Zn  Zn110  1  0.18622834  0.68420985  0.68761306  1
  Zn  Zn111  1  0.68078918  0.19366584  0.19518980  1
  Zn  Zn112  1  0.68569962  0.18779796  0.68531975  1
  Zn  Zn113  1  0.68967523  0.68528016  0.18919722  1
  Zn  Zn114  1  0.68871552  0.68836908  0.68599148  1
  Zn  Zn115  1  0.31277585  0.31241781  0.31511443  1
  Zn  Zn116  1  0.31275751  0.31309737  0.81737528  1
  Zn  Zn117  1  0.31102509  0.81023774  0.31507431  1
  Zn  Zn118  1  0.31283041  0.81552962  0.81314536  1
  Zn  Zn119  1  0.82520385  0.29295189  0.34166192  1
  Zn  Zn120  1  0.81023489  0.31273407  0.81423656  1
  Zn  Zn121  1  0.81521059  0.81382099  0.31148039  1
  Zn  Zn122  1  0.81505158  0.81510026  0.80993189  1
  Zn  Zn123  1  0.19288733  0.43263154  0.43488902  1
  Zn  Zn124  1  0.19219844  0.43871146  0.93500719  1
  Zn  Zn125  1  0.19338020  0.94230709  0.43540062  1
  Zn  Zn126  1  0.18377863  0.94513555  0.93154392  1
  Zn  Zn127  1  0.68740793  0.43463471  0.43359920  1
  Zn  Zn128  1  0.68811727  0.43772417  0.93993826  1
  Zn  Zn129  1  0.69328767  0.93539846  0.43740092  1
  Zn  Zn130  1  0.69164380  0.93785125  0.93763447  1
  Zn  Zn131  1  0.30840918  0.06165220  0.06487981  1
  Zn  Zn132  1  0.31745357  0.06778548  0.56299868  1
  Zn  Zn133  1  0.30881682  0.56172867  0.06262783  1
  Zn  Zn134  1  0.31281040  0.56045755  0.56138671  1
  Zn  Zn135  1  0.81220654  0.06678040  0.06331210  1
  Zn  Zn136  1  0.81743558  0.06042043  0.56774260  1
  Zn  Zn137  1  0.80169987  0.55093627  0.05885230  1
  Zn  Zn138  1  0.81263441  0.55501868  0.55583835  1
  Zn  Zn139  1  0.43480007  0.43774946  0.18796785  1
  Zn  Zn140  1  0.44054836  0.43720983  0.68746412  1
  Zn  Zn141  1  0.43592283  0.93864826  0.18809404  1
  Zn  Zn142  1  0.44024163  0.94223292  0.68614003  1
  Zn  Zn143  1  0.94074735  0.43181653  0.18324217  1
  Zn  Zn144  1  0.93848215  0.43401065  0.68802757  1
  Zn  Zn145  1  0.93954976  0.93201273  0.19670330  1
  Zn  Zn146  1  0.93959529  0.94948214  0.69187736  1
  Zn  Zn147  1  0.06305882  0.05641962  0.31233596  1
  Zn  Zn148  1  0.06123852  0.06632162  0.81064289  1
  Zn  Zn149  1  0.06042951  0.56290458  0.30881047  1
  Zn  Zn150  1  0.06402803  0.55999984  0.81557212  1
  Zn  Zn151  1  0.56102350  0.06056364  0.31117117  1
  Zn  Zn152  1  0.56051042  0.06750710  0.81134469  1
  Zn  Zn153  1  0.55749734  0.56098370  0.31556319  1
  Zn  Zn154  1  0.56462173  0.56207998  0.81235441  1
  Zn  Zn155  1  0.43307075  0.19286812  0.43629393  1
  Zn  Zn156  1  0.43997421  0.18846757  0.93887749  1
  Zn  Zn157  1  0.44053918  0.68645253  0.43707487  1
  Zn  Zn158  1  0.43825516  0.68924661  0.93765526  1
  Zn  Zn159  1  0.93237497  0.18216453  0.43332014  1
  Zn  Zn160  1  0.93751826  0.19064922  0.93768869  1
  Zn  Zn161  1  0.94093374  0.68367871  0.43255089  1
  Zn  Zn162  1  0.93418992  0.69086541  0.93640243  1
  Zn  Zn163  1  0.06139792  0.30976259  0.06572680  1
  Zn  Zn164  1  0.06568264  0.30812883  0.56213651  1
  Zn  Zn165  1  0.04020432  0.80676756  0.06516763  1
  Zn  Zn166  1  0.07721264  0.81294367  0.56227543  1
  Zn  Zn167  1  0.56049787  0.31138833  0.06712516  1
  Zn  Zn168  1  0.56285349  0.31230424  0.55364996  1
  Zn  Zn169  1  0.56506115  0.80858732  0.06070666  1
  Zn  Zn170  1  0.56579100  0.81371491  0.56245414  1
  O  O171  1  0.11668500  0.12355539  0.11586259  1
  O  O172  1  0.11041342  0.11955831  0.62868814  1
  O  O173  1  0.13141917  0.62998105  0.10703960  1
  O  O174  1  0.11514622  0.61916907  0.61574590  1
  O  O175  1  0.61654261  0.12387518  0.11916966  1
  O  O176  1  0.61607748  0.11769348  0.62813747  1
  O  O177  1  0.60763100  0.63021013  0.12797675  1
  O  O178  1  0.62265097  0.61730449  0.61878207  1
  O  O179  1  0.38122223  0.38053513  0.38080595  1
  O  O180  1  0.37211075  0.38575876  0.88395523  1
  O  O181  1  0.38066525  0.88052845  0.38028597  1
  O  O182  1  0.37779451  0.88582270  0.88138491  1
  O  O183  1  0.89392238  0.38723001  0.36437275  1
  O  O184  1  0.88473785  0.37531137  0.87482217  1
  O  O185  1  0.86739519  0.89162871  0.37437805  1
  O  O186  1  0.87352860  0.88487886  0.88251179  1
  O  O187  1  0.26257432  -0.00257894  0.36340165  1
  O  O188  1  0.25754603  0.00322295  0.86451109  1
  O  O189  1  0.26311937  0.50299719  0.37312381  1
  O  O190  1  0.26152068  0.51052570  0.87133814  1
  O  O191  1  0.74685914  0.00864768  0.36615201  1
  O  O192  1  0.75578618  -0.00093722  0.86207224  1
  O  O193  1  0.76098605  0.49449154  0.36101061  1
  O  O194  1  0.75121834  0.50520641  0.85907148  1
  O  O195  1  0.24138763  0.49874503  0.12919871  1
  O  O196  1  0.23550548  0.50569554  0.62741141  1
  O  O197  1  0.24854893  0.99576759  0.13768065  1
  O  O198  1  0.24574665  1.00038274  0.63042637  1
  O  O199  1  0.75149856  0.48386193  0.13916477  1
  O  O200  1  0.74088522  0.49715640  0.63382105  1
  O  O201  1  0.74728388  0.99513717  0.13430071  1
  O  O202  1  0.74243569  0.99567017  0.63501315  1
  O  O203  1  0.00950350  0.35960538  0.25573450  1
  O  O204  1  0.00695977  0.36876398  0.75716815  1
  O  O205  1  0.00469086  0.85027030  0.23748420  1
  O  O206  1  0.00549860  0.86809532  0.74674248  1
  O  O207  1  0.49076546  0.37328997  0.26376520  1
  O  O208  1  0.51059046  0.36369589  0.74494839  1
  O  O209  1  0.50673887  0.87059245  0.25397415  1
  O  O210  1  0.51004596  0.87063692  0.74844939  1
  O  O211  1  0.48957436  0.11572775  0.23681242  1
  O  O212  1  0.50043432  0.13926190  0.74257570  1
  O  O213  1  0.49031603  0.62922570  0.24170815  1
  O  O214  1  0.49592387  0.63381275  0.74307273  1
  O  O215  1  1.00916047  0.13431012  0.24209375  1
  O  O216  1  0.99248763  0.13480337  0.74552212  1
  O  O217  1  1.01227182  0.64569161  0.25004915  1
  O  O218  1  0.99882003  0.63105092  0.74313506  1
  O  O219  1  0.36897958  0.25497902  0.00491320  1
  O  O220  1  0.36333818  0.25867907  0.50158217  1
  O  O221  1  0.37756437  0.76374987  0.00539388  1
  O  O222  1  0.37163212  0.75486819  0.50532328  1
  O  O223  1  0.86493188  0.25030807  0.00840025  1
  O  O224  1  0.86229489  0.26527730  0.45121073  1
  O  O225  1  0.87216091  0.75658901  0.01375464  1
  O  O226  1  0.86505070  0.74003852  0.50504397  1
  O  O227  1  0.13829091  0.25548238  0.48820289  1
  O  O228  1  0.13334687  0.24098979  1.00110552  1
  O  O229  1  0.12843387  0.74050024  0.49147790  1
  O  O230  1  0.12974978  0.74903352  0.99677875  1
  O  O231  1  0.62626881  0.26255097  0.47241950  1
  O  O232  1  0.62702264  0.24570610  0.99438646  1
  O  O233  1  0.63653739  0.74435867  0.49692202  1
  O  O234  1  0.62936729  0.74248887  0.99497846  1
  O  O235  1  0.48627209  0.24051523  0.12115522  1
  O  O236  1  0.50290191  0.24598170  0.63148702  1
  O  O237  1  0.49234113  0.74386514  0.13132261  1
  O  O238  1  0.49734739  0.74666327  0.63384189  1
  O  O239  1  0.99245922  0.24216181  0.13425815  1
  O  O240  1  1.00422837  0.24138869  0.63682827  1
  O  O241  1  0.98001178  0.73970076  0.13154566  1
  O  O242  1  0.99832582  0.73972015  0.62982514  1
  O  O243  1  0.01327814  0.25242333  0.37001107  1
  O  O244  1  0.00175670  0.25671304  0.86329164  1
  O  O245  1  0.00942901  0.75129539  0.37057544  1
  O  O246  1  0.00603411  0.75393506  0.86565287  1
  O  O247  1  0.50531007  0.25759567  0.37410201  1
  O  O248  1  0.51349783  0.24635045  0.86831547  1
  O  O249  1  0.50692303  0.75565191  0.36810614  1
  O  O250  1  0.50045401  0.75230183  0.86067472  1
  O  O251  1  0.25716794  0.14213464  0.49820759  1
  O  O252  1  0.23871791  0.13024681  1.00102822  1
  O  O253  1  0.24183530  0.63143492  0.50081330  1
  O  O254  1  0.24223272  0.62666317  0.98677260  1
  O  O255  1  0.74809529  0.11909037  0.49400314  1
  O  O256  1  0.73835102  0.14032329  1.01023444  1
  O  O257  1  0.74063546  0.63066108  0.49914789  1
  O  O258  1  0.75111116  0.62635738  0.98651469  1
  O  O259  1  0.25839979  0.36652494  0.00131325  1
  O  O260  1  0.26587360  0.36480714  0.49309997  1
  O  O261  1  0.25706619  0.87546029  -0.00618478  1
  O  O262  1  0.25875041  0.87002074  0.50567040  1
  O  O263  1  0.74843476  0.36302182  0.01220929  1
  O  O264  1  0.74933413  0.38342253  0.51616255  1
  O  O265  1  0.75761606  0.87287686  0.00872236  1
  O  O266  1  0.74762078  0.86504712  0.51208193  1
  O  O267  1  0.12754616  0.48822571  0.25292330  1
  O  O268  1  0.12519688  0.49209960  0.74163461  1
  O  O269  1  0.13975025  0.99851087  0.24803264  1
  O  O270  1  0.13280622  0.99763434  0.74438140  1
  O  O271  1  0.63502443  0.49874243  0.25481577  1
  O  O272  1  0.63131244  0.49222604  0.74350362  1
  O  O273  1  0.63233554  0.99352068  0.24364340  1
  O  O274  1  0.62967977  0.99668397  0.74515763  1
  O  O275  1  0.36682220  0.00461457  0.25462185  1
  O  O276  1  0.36844316  0.00135508  0.75760110  1
  O  O277  1  0.37304916  0.50964577  0.25646668  1
  O  O278  1  0.37491575  0.50603959  0.75514530  1
  O  O279  1  0.86216591  -0.00253106  0.25470692  1
  O  O280  1  0.86592432  0.01170272  0.75788206  1
  O  O281  1  0.87477486  0.49826175  0.25636744  1
  O  O282  1  0.86809791  0.50606639  0.74916281  1
  O  O283  1  0.11702166  0.36930975  0.36724490  1
  O  O284  1  0.11809186  0.37483936  0.86799416  1
  O  O285  1  0.12348241  0.86408050  0.38635565  1
  O  O286  1  0.12188295  0.87140212  0.86753269  1
  O  O287  1  0.60502038  0.38116975  0.37612412  1
  O  O288  1  0.63007246  0.36900059  0.86146847  1
  O  O289  1  0.62112597  0.86930046  0.37067819  1
  O  O290  1  0.62377797  0.87552316  0.86496067  1
  O  O291  1  0.38046825  0.13003612  0.13009273  1
  O  O292  1  0.38566845  0.13149966  0.63095656  1
  O  O293  1  0.37987118  0.63575266  0.13000715  1
  O  O294  1  0.38135520  0.62986977  0.62822377  1
  O  O295  1  0.88381870  0.13577775  0.12097161  1
  O  O296  1  0.88815402  0.12022407  0.63637439  1
  O  O297  1  0.86362897  0.63096182  0.12052134  1
  O  O298  1  0.88928470  0.61457066  0.62652975  1
  O  O299  1  0.26054650  0.24783207  0.11453226  1
  O  O300  1  0.24787414  0.24966049  0.61164071  1
  O  O301  1  0.25682936  0.74993071  0.12601209  1
  O  O302  1  0.25415579  0.75594117  0.61987636  1
  O  O303  1  0.75470124  0.25514541  0.12657840  1
  O  O304  1  0.74538630  0.26449746  0.62511335  1
  O  O305  1  0.75990423  0.75713163  0.12823022  1
  O  O306  1  0.75043306  0.76066909  0.61839839  1
  O  O307  1  0.23913014  0.24985671  0.38151840  1
  O  O308  1  0.24895651  0.24566915  0.88811591  1
  O  O309  1  0.23817932  0.74794058  0.38211439  1
  O  O310  1  0.24148055  0.74285695  0.86641055  1
  O  O311  1  0.73615928  0.22203536  0.36603016  1
  O  O312  1  0.73688111  0.25403596  0.88529618  1
  O  O313  1  0.74734783  0.74745028  0.38272864  1
  O  O314  1  0.75138337  0.74211069  0.87232693  1
  O  O315  1  0.01223092  0.13202064  0.00906733  1
  O  O316  1  -0.00526977  0.13481777  0.51582096  1
  O  O317  1  0.01782427  0.62861361  -0.00978717  1
  O  O318  1  0.00676047  0.61741670  0.50640907  1
  O  O319  1  0.50593946  0.11923943  0.01006331  1
  O  O320  1  0.49490317  0.12748625  0.51135372  1
  O  O321  1  0.49716651  0.62738834  0.01514886  1
  O  O322  1  0.51568318  0.63296700  0.50729361  1
  O  O323  1  0.48039328  0.36773550  0.48954178  1
  O  O324  1  0.48625931  0.37422723  1.00552242  1
  O  O325  1  0.49393574  0.87585422  0.49522544  1
  O  O326  1  0.49350784  0.88199376  0.99923276  1
  O  O327  1  1.00056420  0.37606895  0.49180737  1
  O  O328  1  1.00035151  0.36679284  0.98664953  1
  O  O329  1  0.97705603  0.85820638  0.53080649  1
  O  O330  1  0.98172114  0.87666792  0.99808445  1
  O  O331  1  0.48672804  0.49027529  0.37246973  1
  O  O332  1  0.48560902  0.51053563  0.87697872  1
  O  O333  1  0.49008404  0.99264364  0.37498410  1
  O  O334  1  0.49282370  0.99999466  0.88095005  1
  O  O335  1  0.99510639  0.49296381  0.37744303  1
  O  O336  1  0.99806578  0.49031369  0.87866202  1
  O  O337  1  0.98615764  1.00188825  0.37379649  1
  O  O338  1  0.98512887  0.99811595  0.86666418  1
  O  O339  1  0.00170485  0.01047878  0.13446022  1
  O  O340  1  0.00878650  0.01578172  0.62898844  1
  O  O341  1  0.00959623  0.48916438  0.11807684  1
  O  O342  1  0.00905545  0.50304646  0.61967104  1
  O  O343  1  0.50654470  0.00525216  0.11927246  1
  O  O344  1  0.50863652  0.01148392  0.62404290  1
  O  O345  1  0.49224496  0.51474635  0.12337529  1
  O  O346  1  0.51537057  0.50547588  0.62939115  1
  O  O347  1  0.24227885  0.37482022  0.24964166  1
  O  O348  1  0.23652339  0.37510518  0.75504772  1
  O  O349  1  0.25462921  0.88580540  0.25021747  1
  O  O350  1  0.24672064  0.88731399  0.74402232  1
  O  O351  1  0.75335555  0.38007739  0.24356969  1
  O  O352  1  0.74427069  0.38156554  0.74077775  1
  O  O353  1  0.74552964  0.88327852  0.24321992  1
  O  O354  1  0.74008173  0.88224304  0.74508600  1
  O  O355  1  0.26040219  0.11439531  0.24417511  1
  O  O356  1  0.25099776  0.11650644  0.75118026  1
  O  O357  1  0.26302122  0.62738628  0.25380951  1
  O  O358  1  0.25725721  0.62390469  0.75763795  1
  O  O359  1  0.74524015  0.11056710  0.24765246  1
  O  O360  1  0.75807094  0.11943805  0.74404497  1
  O  O361  1  0.74719119  0.60657194  0.25069306  1
  O  O362  1  0.75794122  0.61876587  0.74900811  1
  O  O363  1  0.38262932  0.11607279  0.36357317  1
  O  O364  1  0.37438438  0.11298331  0.87591037  1
  O  O365  1  0.37781484  0.61858902  0.36775776  1
  O  O366  1  0.36829337  0.62367566  0.87033387  1
  O  O367  1  0.85791460  0.10805151  0.37739071  1
  O  O368  1  0.87719937  0.12008292  0.86723209  1
  O  O369  1  0.87475471  0.60686679  0.37959228  1
  O  O370  1  0.86650418  0.62554063  0.86450017  1
  O  O371  1  0.12918651  0.36519831  0.14036275  1
  O  O372  1  0.11865212  0.38272623  0.63458998  1
  O  O373  1  0.13184799  0.86607961  0.10560881  1
  O  O374  1  0.13388737  0.88508983  0.63060013  1
  O  O375  1  0.63895044  0.36446480  0.13067910  1
  O  O376  1  0.63159570  0.38070185  0.63084457  1
  O  O377  1  0.63707390  0.87904958  0.12724153  1
  O  O378  1  0.63221337  0.88290225  0.63363311  1
  O  O379  1  0.12474647  0.25191683  0.26167988  1
  O  O380  1  0.11758094  0.25683695  0.75341260  1
  O  O381  1  0.12372335  0.75157001  0.26798764  1
  O  O382  1  0.11496067  0.75539815  0.75095156  1
  O  O383  1  0.62080499  0.25064940  0.27222507  1
  O  O384  1  0.62196683  0.25608063  0.75777440  1
  O  O385  1  0.62233145  0.75593473  0.25537049  1
  O  O386  1  0.61808712  0.76053251  0.74787622  1
  O  O387  1  0.36772723  0.24048739  0.24108357  1
  O  O388  1  0.38396414  0.25191745  0.75078563  1
  O  O389  1  0.38048996  0.74557843  0.24391907  1
  O  O390  1  0.38250307  0.74783643  0.74307114  1
  O  O391  1  0.88655245  0.24885263  0.24803724  1
  O  O392  1  0.87996109  0.24127257  0.75380998  1
  O  O393  1  0.87810901  0.74712491  0.23977489  1
  O  O394  1  0.88838697  0.74754818  0.74510149  1
  O  O395  1  0.37158906  0.48848712  0.49422579  1
  O  O396  1  0.37596981  0.49189365  0.99358173  1
  O  O397  1  0.37608191  0.99580402  0.49084847  1
  O  O398  1  0.37706907  0.99104326  0.99556491  1
  O  O399  1  0.88270422  0.48982295  0.48947541  1
  O  O400  1  0.87423944  0.49286146  0.99449361  1
  O  O401  1  0.87344187  0.99704002  0.49129584  1
  O  O402  1  0.86353392  0.99554945  0.98897348  1
  O  O403  1  0.12780817  0.01306268  0.00568004  1
  O  O404  1  0.13046936  -0.00137354  0.51143996  1
  O  O405  1  0.12705312  0.51611917  -0.00402742  1
  O  O406  1  0.12050874  0.50316583  0.50426127  1
  O  O407  1  0.62429432  0.00838937  0.00562320  1
  O  O408  1  0.62389026  -0.00739352  0.51339155  1
  O  O409  1  0.62223682  0.50804263  -0.00587039  1
  O  O410  1  0.63115444  0.50898504  0.50700539  1
  O  O411  1  0.37211612  0.36649384  0.11970298  1
  O  O412  1  0.37795394  0.37560853  0.61219155  1
  O  O413  1  0.37885924  0.86325588  0.11841109  1
  O  O414  1  0.37189088  0.87157726  0.62028817  1
  O  O415  1  0.86650140  0.35889544  0.12563426  1
  O  O416  1  0.86035405  0.37623047  0.62475854  1
  O  O417  1  0.86464890  0.87700384  0.11994571  1
  O  O418  1  0.86045791  0.87873318  0.63920508  1
  O  O419  1  0.12486345  0.13551213  0.37439866  1
  O  O420  1  0.12412765  0.12579196  0.88802842  1
  O  O421  1  0.12489702  0.62630511  0.38799836  1
  O  O422  1  0.13306828  0.63199882  0.88044499  1
  O  O423  1  0.62770200  0.12382148  0.37942631  1
  O  O424  1  0.62184117  0.13097597  0.88885811  1
  O  O425  1  0.62618645  0.63041328  0.38195844  1
  O  O426  1  0.64086553  0.62951060  0.86497683  1
