# generated using pymatgen
data_V85Zn86O256
_symmetry_space_group_name_H-M   'P 1'
_cell_length_a   16.95594127
_cell_length_b   16.94754472
_cell_length_c   16.96093964
_cell_angle_alpha   90.03481877
_cell_angle_beta   89.99709840
_cell_angle_gamma   89.99639501
_symmetry_Int_Tables_number   1
_chemical_formula_structural   V85Zn86O256
_chemical_formula_sum   'V85 Zn86 O256'
_cell_volume   4873.92137975
_cell_formula_units_Z   1
loop_
 _symmetry_equiv_pos_site_id
 _symmetry_equiv_pos_as_xyz
  1  'x, y, z'
loop_
 _atom_site_type_symbol
 _atom_site_label
 _atom_site_symmetry_multiplicity
 _atom_site_fract_x
 _atom_site_fract_y
 _atom_site_fract_z
 _atom_site_occupancy
  V  V0  1  0.31846859  0.67962248  0.30220559  1
  V  V1  1  -0.00159029  0.62252185  0.63105732  1
  V  V2  1  0.62169134  0.02202815  0.62271098  1
  V  V3  1  0.50905415  0.62050834  0.11694679  1
  V  V4  1  0.37365884  0.50069567  0.36668094  1
  V  V5  1  -0.00532244  -0.00323908  -0.01171417  1
  V  V6  1  0.00414791  -0.00475736  0.49722620  1
  V  V7  1  -0.00913288  0.74667246  0.25518589  1
  V  V8  1  0.62274620  0.88156472  0.25015522  1
  V  V9  1  0.50049883  0.37780734  0.87567721  1
  V  V10  1  0.24611190  0.62542854  0.88071585  1
  V  V11  1  0.11497177  0.87528655  0.76732389  1
  V  V12  1  0.87490698  0.37184818  0.50095340  1
  V  V13  1  0.49972160  0.62883962  0.62783442  1
  V  V14  1  0.00421343  0.37595556  0.87627963  1
  V  V15  1  0.86804046  0.50489883  0.37229065  1
  V  V16  1  0.62242983  0.75116810  0.37341863  1
  V  V17  1  0.37565271  0.11791083  0.24589425  1
  V  V18  1  0.62419525  0.87747596  0.74977682  1
  V  V19  1  0.12524581  -0.01267715  0.62823726  1
  V  V20  1  0.25067816  -0.01138734  0.24729530  1
  V  V21  1  -0.00106273  0.11845781  0.12470675  1
  V  V22  1  0.13804148  0.49909034  0.62156946  1
  V  V23  1  0.50049495  0.49869943  0.49649673  1
  V  V24  1  0.75134035  0.62510819  0.86947320  1
  V  V25  1  0.75689403  -0.00108058  0.75474878  1
  V  V26  1  0.25197551  0.12223985  0.36960344  1
  V  V27  1  0.50189454  0.24911528  0.74151218  1
  V  V28  1  0.37323331  0.00139860  0.88000682  1
  V  V29  1  0.24986880  0.12392307  0.87182210  1
  V  V30  1  0.74809405  0.87523514  0.62570838  1
  V  V31  1  0.64177518  0.37885383  0.24351507  1
  V  V32  1  0.74764722  0.23959181  0.50168168  1
  V  V33  1  0.74938670  0.74993593  0.00692447  1
  V  V34  1  0.62514507  0.24271296  0.37846241  1
  V  V35  1  0.25494967  0.49858995  0.75194796  1
  V  V36  1  0.62410660  0.74435466  0.88149451  1
  V  V37  1  0.87412643  0.25225679  0.12394702  1
  V  V38  1  0.88003413  0.12326262  0.75684096  1
  V  V39  1  0.00032603  0.24583143  0.24932585  1
  V  V40  1  0.50102218  0.37413920  0.37064475  1
  V  V41  1  0.10543959  0.49941870  0.11808318  1
  V  V42  1  0.36752812  0.37747038  0.49860550  1
  V  V43  1  0.86536416  0.11843669  0.25069027  1
  V  V44  1  -0.00052365  0.74923354  0.76183560  1
  V  V45  1  0.29505546  -0.05305059  0.70344587  1
  V  V46  1  0.62618729  0.25002023  0.87519174  1
  V  V47  1  -0.00917461  0.63130751  0.11521759  1
  V  V48  1  0.75558962  0.88424477  0.13160753  1
  V  V49  1  0.87367421  0.74416878  0.63230442  1
  V  V50  1  0.44920796  -0.03075037  0.45630562  1
  V  V51  1  0.11777363  0.37520258  0.24912597  1
  V  V52  1  0.87390128  0.87752985  -0.01414503  1
  V  V53  1  0.23754458  0.75820977  0.00132976  1
  V  V54  1  0.24710670  0.50148508  0.25058490  1
  V  V55  1  0.12641245  -0.00679852  0.12453129  1
  V  V56  1  0.61692879  0.12591526  0.00749660  1
  V  V57  1  0.87975886  0.38188633  -0.00261479  1
  V  V58  1  0.12847827  0.62755439  0.48387294  1
  V  V59  1  0.36841989  0.25757948  0.62394777  1
  V  V60  1  0.37538494  0.38500517  0.00040869  1
  V  V61  1  0.75385271  0.25311118  0.00106016  1
  V  V62  1  0.13031364  0.37190949  0.74417231  1
  V  V63  1  0.62558735  0.49914630  0.62369584  1
  V  V64  1  0.50125369  0.24588168  0.24467901  1
  V  V65  1  0.86744657  -0.00429665  0.37329669  1
  V  V66  1  0.12469901  0.24898606  0.37477020  1
  V  V67  1  0.00204703  0.12344977  0.62537896  1
  V  V68  1  0.12981060  0.12313458  0.50139565  1
  V  V69  1  0.37912910  0.24747874  0.12266170  1
  V  V70  1  0.37729423  0.12783843  0.74593783  1
  V  V71  1  0.12501141  0.86599333  0.25082942  1
  V  V72  1  0.24708131  0.37728858  0.12434262  1
  V  V73  1  0.74957358  0.74712288  0.49833037  1
  V  V74  1  0.62788911  0.37671293  0.75093712  1
  V  V75  1  0.49559185  0.75010486  0.75021353  1
  V  V76  1  0.49943093  0.87835996  0.88076334  1
  V  V77  1  0.50218798  0.74467651  0.25072023  1
  V  V78  1  -0.00030547  0.49893626  0.50111042  1
  V  V79  1  0.88126942  0.50451987  0.86449461  1
  V  V80  1  0.24785615  0.25014365  -0.00086066  1
  V  V81  1  0.87538294  0.87324218  0.50051865  1
  V  V82  1  0.75113896  0.37395262  0.62563702  1
  V  V83  1  0.75407902  0.12020942  0.87871598  1
  V  V84  1  0.37199010  0.74653239  0.11800174  1
  Zn  Zn85  1  0.37942699  0.50821961  0.87199299  1
  Zn  Zn86  1  0.24886685  0.25357473  0.50116997  1
  Zn  Zn87  1  0.12546605  0.24879385  0.87215683  1
  Zn  Zn88  1  0.87848579  0.24758954  0.62472029  1
  Zn  Zn89  1  0.52023082  0.50702361  -0.00257879  1
  Zn  Zn90  1  -0.00150508  0.37455605  0.37525944  1
  Zn  Zn91  1  0.17254819  0.78987788  0.41644775  1
  Zn  Zn92  1  0.74399082  0.11652885  0.37671516  1
  Zn  Zn93  1  0.66309271  0.50451450  0.12623379  1
  Zn  Zn94  1  0.61995197  0.00643289  0.13530752  1
  Zn  Zn95  1  0.86296201  0.62733819  0.23553416  1
  Zn  Zn96  1  0.49586119  0.00571005  0.01345107  1
  Zn  Zn97  1  0.34451492  0.65785884  0.72567897  1
  Zn  Zn98  1  0.74468242  0.62085119  0.36337479  1
  Zn  Zn99  1  0.30286081  0.79617829  0.57407524  1
  Zn  Zn100  1  0.12361150  0.12236599  -0.00176295  1
  Zn  Zn101  1  0.36993399  0.87957754  0.01143165  1
  Zn  Zn102  1  0.00331086  0.24885675  0.74927041  1
  Zn  Zn103  1  0.00143972  0.86975939  0.37586059  1
  Zn  Zn104  1  0.11928162  0.62368234  -0.00450849  1
  Zn  Zn105  1  0.62733333  0.62236501  0.49700786  1
  Zn  Zn106  1  0.75472300  0.50693345  0.74621564  1
  Zn  Zn107  1  0.18763629  0.18448726  0.18409806  1
  Zn  Zn108  1  0.19060216  0.18480214  0.68681610  1
  Zn  Zn109  1  0.17796816  0.69010511  0.17692185  1
  Zn  Zn110  1  0.17368032  0.68570182  0.69021705  1
  Zn  Zn111  1  0.68942311  0.19399533  0.18729133  1
  Zn  Zn112  1  0.69451035  0.19082520  0.69184949  1
  Zn  Zn113  1  0.68712108  0.68876488  0.18571025  1
  Zn  Zn114  1  0.68290181  0.68863071  0.69025747  1
  Zn  Zn115  1  0.31094039  0.31194601  0.30941425  1
  Zn  Zn116  1  0.31259702  0.31514314  0.81391893  1
  Zn  Zn117  1  0.34413740  0.82878541  0.42096585  1
  Zn  Zn118  1  0.31110832  0.81076675  0.82768154  1
  Zn  Zn119  1  0.81543431  0.30777968  0.31794499  1
  Zn  Zn120  1  0.81586435  0.30995976  0.81192819  1
  Zn  Zn121  1  0.81043795  0.81064170  0.31268964  1
  Zn  Zn122  1  0.81224040  0.80965626  0.81329751  1
  Zn  Zn123  1  0.18759138  0.44104148  0.43358270  1
  Zn  Zn124  1  0.18641077  0.43950529  0.93602734  1
  Zn  Zn125  1  0.23524042  0.95980665  0.46783744  1
  Zn  Zn126  1  0.18693498  0.94023075  0.93899982  1
  Zn  Zn127  1  0.68766092  0.43003740  0.43696066  1
  Zn  Zn128  1  0.69272706  0.44089172  0.94086028  1
  Zn  Zn129  1  0.67565820  0.93803447  0.43805029  1
  Zn  Zn130  1  0.68638082  0.93922309  0.94050783  1
  Zn  Zn131  1  0.31055546  0.06334214  0.06379441  1
  Zn  Zn132  1  0.34558573  0.08169610  0.54535773  1
  Zn  Zn133  1  0.31180778  0.56814536  0.06798987  1
  Zn  Zn134  1  0.29912369  0.61175075  0.57129603  1
  Zn  Zn135  1  0.81106568  0.05963470  0.06295941  1
  Zn  Zn136  1  0.81427095  0.05801558  0.56547176  1
  Zn  Zn137  1  0.81085023  0.56646270  0.04938875  1
  Zn  Zn138  1  0.81309310  0.56359992  0.56136359  1
  Zn  Zn139  1  0.43938367  0.43702245  0.18691348  1
  Zn  Zn140  1  0.43838610  0.43831490  0.68503669  1
  Zn  Zn141  1  0.44143416  0.93273023  0.18810287  1
  Zn  Zn142  1  0.46225021  0.91911746  0.64465662  1
  Zn  Zn143  1  0.87348579  0.45691796  0.16858898  1
  Zn  Zn144  1  0.94244622  0.43552376  0.68778193  1
  Zn  Zn145  1  0.93635371  0.93434584  0.18678715  1
  Zn  Zn146  1  0.93765034  0.93539385  0.68893101  1
  Zn  Zn147  1  0.06111941  0.05748101  0.31262013  1
  Zn  Zn148  1  0.06662833  0.06058077  0.81257356  1
  Zn  Zn149  1  0.05001493  0.55887763  0.30616632  1
  Zn  Zn150  1  0.06611711  0.56015281  0.81183038  1
  Zn  Zn151  1  0.55683244  0.06089464  0.31654209  1
  Zn  Zn152  1  0.56290906  0.06244395  0.81166097  1
  Zn  Zn153  1  0.56674132  0.56395705  0.30505302  1
  Zn  Zn154  1  0.56534126  0.56398824  0.81169694  1
  Zn  Zn155  1  0.43961550  0.18152829  0.43430739  1
  Zn  Zn156  1  0.43640838  0.19323753  0.93352975  1
  Zn  Zn157  1  0.44592151  0.68577905  0.44318012  1
  Zn  Zn158  1  0.43177869  0.68598198  0.93724782  1
  Zn  Zn159  1  0.93823202  0.18260310  0.43746803  1
  Zn  Zn160  1  0.94145792  0.18786778  0.93630027  1
  Zn  Zn161  1  0.93946764  0.68557724  0.44047401  1
  Zn  Zn162  1  0.92889050  0.68907163  0.94048209  1
  Zn  Zn163  1  0.05953644  0.31095562  0.06146511  1
  Zn  Zn164  1  0.06442350  0.31215056  0.56377879  1
  Zn  Zn165  1  0.05505814  0.81375027  0.06488754  1
  Zn  Zn166  1  0.06099252  0.80907060  0.56730611  1
  Zn  Zn167  1  0.56462941  0.31835223  0.06221823  1
  Zn  Zn168  1  0.56110077  0.31204618  0.56042550  1
  Zn  Zn169  1  0.56272052  0.81502733  0.06711231  1
  Zn  Zn170  1  0.56025469  0.81446870  0.55712250  1
  O  O171  1  0.11429176  0.11622100  0.12342824  1
  O  O172  1  0.11769293  0.11505357  0.62498350  1
  O  O173  1  0.11040630  0.61459776  0.12230346  1
  O  O174  1  0.11529520  0.61603347  0.61240879  1
  O  O175  1  0.63259797  0.12845222  0.11048364  1
  O  O176  1  0.63387026  0.12162493  0.62672369  1
  O  O177  1  0.61289891  0.62066220  0.12450091  1
  O  O178  1  0.61871887  0.61518106  0.62453443  1
  O  O179  1  0.38232798  0.37879067  0.37621051  1
  O  O180  1  0.38427609  0.37767230  0.88297181  1
  O  O181  1  0.40353994  0.91489712  0.38165779  1
  O  O182  1  0.38259315  0.88639881  0.87823540  1
  O  O183  1  0.87649399  0.38149993  0.38666700  1
  O  O184  1  0.88557960  0.37760216  0.87705506  1
  O  O185  1  0.87691156  0.87941810  0.38126545  1
  O  O186  1  0.86716834  0.87999961  0.88709456  1
  O  O187  1  0.24273879  0.01623897  0.36312439  1
  O  O188  1  0.26232272  0.00933870  0.88177387  1
  O  O189  1  0.25532158  0.49667153  0.35866274  1
  O  O190  1  0.25395079  0.50426331  0.86801729  1
  O  O191  1  0.76283075  -0.00035016  0.38513204  1
  O  O192  1  0.74579315  0.01246820  0.87009467  1
  O  O193  1  0.76423320  0.49964952  0.38545352  1
  O  O194  1  0.75814881  0.50880874  0.87223089  1
  O  O195  1  0.24359462  0.49615227  0.13564689  1
  O  O196  1  0.24042441  0.51305050  0.62905613  1
  O  O197  1  0.23676666  1.00619457  0.13244400  1
  O  O198  1  0.24102957  1.00541602  0.64058559  1
  O  O199  1  0.77617731  0.49434463  0.12527620  1
  O  O200  1  0.74097264  0.49494541  0.62390249  1
  O  O201  1  0.74157664  0.98749338  0.12259574  1
  O  O202  1  0.74561534  0.99480142  0.63757405  1
  O  O203  1  0.01213909  0.36530495  0.25260891  1
  O  O204  1  0.01327865  0.37266383  0.75570253  1
  O  O205  1  0.00382077  0.86099204  0.24776849  1
  O  O206  1  0.00726739  0.86681074  0.74972972  1
  O  O207  1  0.50208741  0.36432121  0.25798494  1
  O  O208  1  0.50578895  0.37056076  0.75699176  1
  O  O209  1  0.51156359  0.85659976  0.24325030  1
  O  O210  1  0.50853267  0.87055249  0.75357260  1
  O  O211  1  0.49047958  0.13629030  0.25648186  1
  O  O212  1  0.49046628  0.13937526  0.76217416  1
  O  O213  1  0.50555272  0.63598249  0.23672683  1
  O  O214  1  0.50580859  0.63683735  0.74436485  1
  O  O215  1  0.99235206  0.12729739  0.24222546  1
  O  O216  1  0.99529413  0.12251147  0.74430875  1
  O  O217  1  0.99250976  0.63482605  0.24057727  1
  O  O218  1  1.01092000  0.63111980  0.73730372  1
  O  O219  1  0.36685122  0.25811661  0.00476858  1
  O  O220  1  0.37833117  0.25793552  0.50736554  1
  O  O221  1  0.36426301  0.75385817  0.00448824  1
  O  O222  1  0.37669494  0.75169371  0.49713146  1
  O  O223  1  0.87146964  0.25333183  0.00539888  1
  O  O224  1  0.87092926  0.25664156  0.49982058  1
  O  O225  1  0.86346286  0.76668496  -0.00356560  1
  O  O226  1  0.86924540  0.75342101  0.50948570  1
  O  O227  1  0.12709981  0.24398261  0.49206960  1
  O  O228  1  0.13831489  0.24850854  1.00060885  1
  O  O229  1  0.11282282  0.73302838  0.49644570  1
  O  O230  1  0.13491287  0.75006012  1.00820498  1
  O  O231  1  0.63412664  0.25590066  0.49126982  1
  O  O232  1  0.63413481  0.24491901  0.99632875  1
  O  O233  1  0.63097047  0.75164388  0.49206175  1
  O  O234  1  0.63329674  0.76321321  0.98689999  1
  O  O235  1  0.49170589  0.25553530  0.13303432  1
  O  O236  1  0.49276728  0.25598740  0.63645373  1
  O  O237  1  0.49706427  0.73863029  0.12738631  1
  O  O238  1  0.50847798  0.74110970  0.63543627  1
  O  O239  1  0.99340001  0.23670548  0.12680859  1
  O  O240  1  1.00049947  0.23700048  0.62584746  1
  O  O241  1  1.00241900  0.73686439  0.13462675  1
  O  O242  1  0.99106284  0.74079289  0.63163050  1
  O  O243  1  0.01044586  0.24857312  0.37064932  1
  O  O244  1  0.00505812  0.25832730  0.87024642  1
  O  O245  1  -0.00350942  0.74752989  0.36058787  1
  O  O246  1  -0.00779477  0.74090239  0.86054383  1
  O  O247  1  0.50589248  0.25515858  0.37042974  1
  O  O248  1  0.50399925  0.26290994  0.86674817  1
  O  O249  1  0.51013842  0.74353804  0.36425406  1
  O  O250  1  0.50680832  0.75759750  0.87203994  1
  O  O251  1  0.24806422  0.13114784  0.48785045  1
  O  O252  1  0.25095319  0.13386860  0.99016966  1
  O  O253  1  0.22893144  0.61806580  0.48440287  1
  O  O254  1  0.24551552  0.63206818  0.99595759  1
  O  O255  1  0.75978404  0.13695906  0.50052973  1
  O  O256  1  0.74655557  0.13315263  0.99430052  1
  O  O257  1  0.74687699  0.63844801  0.50310293  1
  O  O258  1  0.75401868  0.64066519  0.98610017  1
  O  O259  1  0.25616361  0.36940732  0.00416027  1
  O  O260  1  0.26379649  0.37335799  0.49048082  1
  O  O261  1  0.25017220  0.86214569  -0.00381926  1
  O  O262  1  0.24359684  0.84824043  0.48666114  1
  O  O263  1  0.76427789  0.35830417  -0.01246380  1
  O  O264  1  0.75801956  0.36432525  0.50570146  1
  O  O265  1  0.75697154  0.87419160  0.00699506  1
  O  O266  1  0.75284513  0.86357244  0.50666600  1
  O  O267  1  0.12647696  0.49210095  0.24320856  1
  O  O268  1  0.13485359  0.49280503  0.74041506  1
  O  O269  1  0.12841234  0.99341043  0.24214613  1
  O  O270  1  0.11882223  0.98449564  0.74433178  1
  O  O271  1  0.62454739  0.48280229  0.24420725  1
  O  O272  1  0.62908219  0.49366558  0.74120416  1
  O  O273  1  0.62264989  0.98550838  0.25591502  1
  O  O274  1  0.63853277  0.99649396  0.74728621  1
  O  O275  1  0.36594626  0.01134458  0.23799622  1
  O  O276  1  0.36609199  0.00668000  0.75524247  1
  O  O277  1  0.36514241  0.49191788  0.25817429  1
  O  O278  1  0.35973220  0.49261329  0.74848987  1
  O  O279  1  0.87988331  0.00665788  0.25980511  1
  O  O280  1  0.86547857  0.00758484  0.74685107  1
  O  O281  1  0.88558083  0.50277845  0.27091276  1
  O  O282  1  0.87232883  0.49243341  0.75981961  1
  O  O283  1  0.12327754  0.36702187  0.36798663  1
  O  O284  1  0.11892059  0.37453670  0.86726013  1
  O  O285  1  0.11920246  0.87390887  0.35746930  1
  O  O286  1  0.12064691  0.87977224  0.86564045  1
  O  O287  1  0.61811459  0.36635676  0.36523181  1
  O  O288  1  0.61991824  0.36973451  0.87075550  1
  O  O289  1  0.63606624  0.85935026  0.36441289  1
  O  O290  1  0.61845534  0.87455593  0.86619987  1
  O  O291  1  0.36862294  0.14024969  0.13017056  1
  O  O292  1  0.37400782  0.13716215  0.64052891  1
  O  O293  1  0.38576364  0.63810350  0.12232229  1
  O  O294  1  0.39680074  0.60805492  0.63027996  1
  O  O295  1  0.88063641  0.12771848  0.13132071  1
  O  O296  1  0.88892796  0.12099741  0.63237129  1
  O  O297  1  0.88742395  0.62524770  0.11857037  1
  O  O298  1  0.88388457  0.63222942  0.62261197  1
  O  O299  1  0.25550548  0.25728857  0.11848272  1
  O  O300  1  0.26419377  0.24919946  0.62270257  1
  O  O301  1  0.25695985  0.74290177  0.11048593  1
  O  O302  1  0.27089169  0.70822317  0.63690192  1
  O  O303  1  0.76575759  0.24694174  0.11645680  1
  O  O304  1  0.75518492  0.25648109  0.61872967  1
  O  O305  1  0.74196335  0.76182993  0.11067927  1
  O  O306  1  0.75526248  0.75400967  0.62266733  1
  O  O307  1  0.23688834  0.24341737  0.37025585  1
  O  O308  1  0.25130501  0.24450889  0.88419799  1
  O  O309  1  0.26591861  0.74700696  0.35567737  1
  O  O310  1  0.24812723  0.74130948  0.89133046  1
  O  O311  1  0.74250761  0.24705650  0.38478407  1
  O  O312  1  0.74736938  0.23900136  0.87998955  1
  O  O313  1  0.74604531  0.74575800  0.38495614  1
  O  O314  1  0.74206904  0.74613573  0.87982540  1
  O  O315  1  -0.00066037  0.11696751  0.00910692  1
  O  O316  1  0.00855314  0.11655191  0.50751485  1
  O  O317  1  0.00111715  0.63227169  0.01101645  1
  O  O318  1  0.00263355  0.61297041  0.50907107  1
  O  O319  1  0.51493406  0.13241579  -0.00634973  1
  O  O320  1  0.44643836  0.08084915  0.48457743  1
  O  O321  1  0.49813026  0.62419372  0.01089694  1
  O  O322  1  0.50750965  0.61466299  0.50901995  1
  O  O323  1  0.49442158  0.37824774  0.48562738  1
  O  O324  1  0.49146258  0.37507314  0.99222153  1
  O  O325  1  0.48603408  0.89756129  0.52879935  1
  O  O326  1  0.50098158  0.87757793  0.98701117  1
  O  O327  1  0.99376973  0.38313082  0.50118740  1
  O  O328  1  0.99468373  0.36844205  0.98528893  1
  O  O329  1  0.99532056  0.87822970  0.49940346  1
  O  O330  1  0.98208868  0.88017978  1.00514726  1
  O  O331  1  0.49455096  0.49250718  0.37161005  1
  O  O332  1  0.49994933  0.49171363  0.87706749  1
  O  O333  1  0.53401217  0.99010754  0.40091483  1
  O  O334  1  0.48939459  0.99496943  0.87523724  1
  O  O335  1  0.98997240  0.49598212  0.38670292  1
  O  O336  1  0.99403068  0.49001592  0.86877752  1
  O  O337  1  0.99011630  0.99714272  0.38266650  1
  O  O338  1  1.00172330  1.00642538  0.88969408  1
  O  O339  1  0.00405545  0.00653333  0.12036443  1
  O  O340  1  0.00818197  0.00344734  0.61916426  1
  O  O341  1  -0.00004071  0.51470476  0.13171220  1
  O  O342  1  0.00717062  0.50520404  0.61948255  1
  O  O343  1  0.50678407  -0.00117097  0.12547827  1
  O  O344  1  0.52258658  0.01344097  0.64515054  1
  O  O345  1  0.49115896  0.51675884  0.12425096  1
  O  O346  1  0.51308141  0.50142371  0.62093235  1
  O  O347  1  0.23786708  0.38049316  0.24343500  1
  O  O348  1  0.23835445  0.38148754  0.75487018  1
  O  O349  1  0.24064019  0.88806771  0.25111254  1
  O  O350  1  0.23991073  0.87974532  0.76029369  1
  O  O351  1  0.74030996  0.36901165  0.25602229  1
  O  O352  1  0.74487195  0.37309412  0.74272165  1
  O  O353  1  0.74324992  0.86693229  0.23597140  1
  O  O354  1  0.74502517  0.88255073  0.74894228  1
  O  O355  1  0.25508173  0.11874138  0.25184056  1
  O  O356  1  0.26027819  0.13259743  0.76423837  1
  O  O357  1  0.25064938  0.62211766  0.24672691  1
  O  O358  1  0.24240485  0.61475847  0.76154173  1
  O  O359  1  0.76261031  0.13002613  0.25212212  1
  O  O360  1  0.75935924  0.11894058  0.75860610  1
  O  O361  1  0.75287485  0.62794794  0.25038429  1
  O  O362  1  0.74727620  0.62725378  0.76332193  1
  O  O363  1  0.36110713  0.13959399  0.35512096  1
  O  O364  1  0.37164776  0.12056288  0.86741652  1
  O  O365  1  0.37556280  0.61948048  0.36598984  1
  O  O366  1  0.36022992  0.62403029  0.87026078  1
  O  O367  1  0.87442166  0.11571842  0.36669006  1
  O  O368  1  0.86869492  0.12735490  0.86705921  1
  O  O369  1  0.87224806  0.61011940  0.38297917  1
  O  O370  1  0.86823884  0.61412345  0.87703794  1
  O  O371  1  0.12435979  0.38027532  0.13161317  1
  O  O372  1  0.12320997  0.38575703  0.63116686  1
  O  O373  1  0.11719150  0.88578778  0.13429649  1
  O  O374  1  0.12542577  0.88355506  0.63001925  1
  O  O375  1  0.62891202  0.36541567  0.14307385  1
  O  O376  1  0.62930405  0.38097202  0.62939080  1
  O  O377  1  0.63501488  0.87688884  0.13333025  1
  O  O378  1  0.63012215  0.87495079  0.63930668  1
  O  O379  1  0.12080923  0.25404782  0.25412737  1
  O  O380  1  0.12640244  0.25824306  0.74876348  1
  O  O381  1  0.11365411  0.75645855  0.24461250  1
  O  O382  1  0.11436773  0.76604568  0.74527338  1
  O  O383  1  0.61796241  0.25580232  0.25647733  1
  O  O384  1  0.61907545  0.25505629  0.75536873  1
  O  O385  1  0.61923376  0.75531120  0.25580131  1
  O  O386  1  0.61909712  0.76019996  0.76144357  1
  O  O387  1  0.38137316  0.24643076  0.23986703  1
  O  O388  1  0.38178051  0.24895624  0.74418866  1
  O  O389  1  0.38068471  0.73867355  0.24453490  1
  O  O390  1  0.39092600  0.75655003  0.76140127  1
  O  O391  1  0.88162781  0.24417427  0.24333447  1
  O  O392  1  0.87805210  0.23557623  0.74578884  1
  O  O393  1  0.88725205  0.74984911  0.24914566  1
  O  O394  1  0.88121528  0.75580704  0.73823478  1
  O  O395  1  0.38247671  0.49242963  0.48242139  1
  O  O396  1  0.37155181  0.48926859  1.00054585  1
  O  O397  1  0.34355923  0.97761393  0.50643269  1
  O  O398  1  0.37773810  0.99922608  0.99496429  1
  O  O399  1  0.88155196  0.49193178  0.49658205  1
  O  O400  1  0.87460189  0.48518998  0.98426764  1
  O  O401  1  0.88212200  0.99183644  0.49590288  1
  O  O402  1  0.88060980  0.98866091  1.00403996  1
  O  O403  1  0.11596440  -0.00066745  0.00867935  1
  O  O404  1  0.12954995  0.00545297  0.51078656  1
  O  O405  1  0.12629799  0.49644615  0.01619692  1
  O  O406  1  0.11752807  0.50254693  0.50421938  1
  O  O407  1  0.62249034  0.01880780  -0.00304013  1
  O  O408  1  0.63533678  -0.00264933  0.52591072  1
  O  O409  1  0.62776500  0.48237613  0.01881705  1
  O  O410  1  0.61967090  0.49604309  0.50617735  1
  O  O411  1  0.37008587  0.36719272  0.11818137  1
  O  O412  1  0.38202495  0.37028921  0.61053144  1
  O  O413  1  0.38260438  0.85327704  0.12632620  1
  O  O414  1  0.35273103  0.88278100  0.64770803  1
  O  O415  1  0.89161171  0.36175542  0.11030104  1
  O  O416  1  0.87270630  0.37400385  0.61465848  1
  O  O417  1  0.85847737  0.87896803  0.12012546  1
  O  O418  1  0.86804662  0.86796018  0.62013568  1
  O  O419  1  0.12905198  0.13139310  0.37835825  1
  O  O420  1  0.13574784  0.12679531  0.87690813  1
  O  O421  1  0.11123666  0.61657236  0.38621077  1
  O  O422  1  0.13820592  0.61561130  0.88047495  1
  O  O423  1  0.62686393  0.13864721  0.36981426  1
  O  O424  1  0.63338411  0.13257837  0.88196505  1
  O  O425  1  0.62700839  0.63404193  0.37675261  1
  O  O426  1  0.63161114  0.63592906  0.87423711  1
