# generated using pymatgen
data_V85Zn86O256
_symmetry_space_group_name_H-M   'P 1'
_cell_length_a   16.93324619
_cell_length_b   16.92266150
_cell_length_c   16.91564555
_cell_angle_alpha   89.99453137
_cell_angle_beta   89.94464471
_cell_angle_gamma   90.01324633
_symmetry_Int_Tables_number   1
_chemical_formula_structural   V85Zn86O256
_chemical_formula_sum   'V85 Zn86 O256'
_cell_volume   4847.27043396
_cell_formula_units_Z   1
loop_
 _symmetry_equiv_pos_site_id
 _symmetry_equiv_pos_as_xyz
  1  'x, y, z'
loop_
 _atom_site_type_symbol
 _atom_site_label
 _atom_site_symmetry_multiplicity
 _atom_site_fract_x
 _atom_site_fract_y
 _atom_site_fract_z
 _atom_site_occupancy
  V  V0  1  0.75480415  0.63042518  0.86399831  1
  V  V1  1  0.37757389  0.49640632  0.88060974  1
  V  V2  1  0.54122878  0.44391233  -0.05539490  1
  V  V3  1  -0.00150337  0.62336645  0.62308256  1
  V  V4  1  0.00001177  -0.00175113  0.00024121  1
  V  V5  1  0.61809536  0.37581926  0.25261647  1
  V  V6  1  0.88126901  0.62179290  0.24854345  1
  V  V7  1  0.25301623  0.75867232  0.00648178  1
  V  V8  1  0.11826217  -0.00004917  0.61986962  1
  V  V9  1  0.87902772  0.50783642  0.86485269  1
  V  V10  1  0.50063103  0.87663182  0.87474850  1
  V  V11  1  0.50493543  0.75576519  0.74446099  1
  V  V12  1  0.87372310  0.37470979  0.50629493  1
  V  V13  1  -0.00837826  0.12575239  0.63170989  1
  V  V14  1  0.24881656  0.62752692  0.88001540  1
  V  V15  1  0.75112118  0.87403727  0.12559029  1
  V  V16  1  0.86555292  0.88358098  0.49847614  1
  V  V17  1  0.61802473  0.49228659  0.62681572  1
  V  V18  1  0.13045905  0.12779288  0.00115529  1
  V  V19  1  0.86975509  0.25358647  0.12662091  1
  V  V20  1  0.12364098  0.87338140  0.74785906  1
  V  V21  1  0.62146779  -0.01582847  0.61584310  1
  V  V22  1  0.38069203  0.62715363  0.25191032  1
  V  V23  1  -0.00046709  0.87461679  0.87335858  1
  V  V24  1  0.12576135  0.25212768  0.87769745  1
  V  V25  1  0.74889979  0.24969431  0.50439688  1
  V  V26  1  0.62536699  0.00150387  0.12489660  1
  V  V27  1  0.74965336  0.25053460  0.00179649  1
  V  V28  1  -0.00050663  0.12365036  0.12551496  1
  V  V29  1  0.50158808  0.62881756  0.12442824  1
  V  V30  1  0.75450117  -0.00238604  0.25469820  1
  V  V31  1  0.24971377  0.25394077  0.50284005  1
  V  V32  1  0.37478743  0.62530954  0.75011007  1
  V  V33  1  0.49945247  0.86830885  0.37371394  1
  V  V34  1  0.11607900  0.12396255  0.49981212  1
  V  V35  1  0.00318761  0.50103101  0.49359257  1
  V  V36  1  0.75189841  0.12168655  0.37897724  1
  V  V37  1  0.37441842  0.75028576  0.62356359  1
  V  V38  1  0.36135560  0.37329234  0.00428837  1
  V  V39  1  0.87417712  0.38190512  0.00345322  1
  V  V40  1  0.86358786  0.74709621  0.61291856  1
  V  V41  1  0.12465595  0.50247852  0.62184605  1
  V  V42  1  0.38553590  0.49397715  0.37694891  1
  V  V43  1  0.88022236  0.74601816  0.12668673  1
  V  V44  1  0.00010069  0.37821137  0.87554172  1
  V  V45  1  0.61800567  0.25315908  0.37716487  1
  V  V46  1  0.62640535  0.12639201  -0.01031599  1
  V  V47  1  0.87306722  0.12363707  0.25290641  1
  V  V48  1  0.62554719  0.49573150  0.12340470  1
  V  V49  1  -0.00191959  0.88982617  0.38212804  1
  V  V50  1  0.87591535  0.87660869  0.00036345  1
  V  V51  1  0.37390438  0.24532801  0.63711545  1
  V  V52  1  0.37556111  0.00419348  0.87356927  1
  V  V53  1  0.12377952  0.25493058  0.37571926  1
  V  V54  1  0.73085237  -0.00507629  0.74940797  1
  V  V55  1  0.37926456  0.76038513  0.13038293  1
  V  V56  1  0.51076001  0.25881621  0.75387356  1
  V  V57  1  0.75296205  0.62584086  0.38330942  1
  V  V58  1  0.12503073  0.74966870  0.87601743  1
  V  V59  1  0.24995786  0.62094704  0.38250701  1
  V  V60  1  0.74954153  0.49468113  0.24928861  1
  V  V61  1  0.62778442  0.75808171  0.86974674  1
  V  V62  1  0.38415371  0.00169404  0.38397204  1
  V  V63  1  0.62689609  0.74727352  0.36933006  1
  V  V64  1  0.25477089  0.13235741  0.87514989  1
  V  V65  1  0.24940821  0.87560669  0.62199030  1
  V  V66  1  0.62190740  0.62791374  -0.00272960  1
  V  V67  1  0.12482104  0.87457237  0.25135687  1
  V  V68  1  0.87526389  0.00469116  0.86001449  1
  V  V69  1  0.12773844  0.37660192  0.23541159  1
  V  V70  1  0.12914927  -0.00438602  0.12572692  1
  V  V71  1  0.61412755  0.62120097  0.49825771  1
  V  V72  1  0.25193221  0.00722850  0.74893157  1
  V  V73  1  0.36220424  0.25299638  0.12268767  1
  V  V74  1  0.50073122  0.12991501  0.12487876  1
  V  V75  1  0.49815753  0.11724375  0.62708965  1
  V  V76  1  0.37614196  0.12661244  0.25040632  1
  V  V77  1  -0.00887828  0.74435717  0.74718761  1
  V  V78  1  0.25300980  -0.00556519  0.24809753  1
  V  V79  1  -0.00118435  0.25017317  0.25185149  1
  V  V80  1  0.25059887  0.12348117  0.37666257  1
  V  V81  1  0.38806311  0.37483840  0.49849185  1
  V  V82  1  0.24905760  0.49782396  0.75094428  1
  V  V83  1  0.12163029  0.73891089  0.38262922  1
  V  V84  1  0.24837580  0.49669531  0.23911490  1
  Zn  Zn85  1  0.61864996  0.11969127  0.49861368  1
  Zn  Zn86  1  0.24789531  0.74587865  0.50289199  1
  Zn  Zn87  1  0.86523726  0.24418598  0.63944618  1
  Zn  Zn88  1  0.87237367  0.49728410  0.37823294  1
  Zn  Zn89  1  0.38181004  0.88036084  0.50428656  1
  Zn  Zn90  1  0.49864510  0.00173629  -0.00061121  1
  Zn  Zn91  1  0.49549686  0.62080487  0.61930367  1
  Zn  Zn92  1  0.74339928  0.37081872  0.63744053  1
  Zn  Zn93  1  0.62645087  0.27068796  0.87217858  1
  Zn  Zn94  1  -0.00901420  0.24445456  0.75707345  1
  Zn  Zn95  1  0.12343011  0.37386637  0.75072438  1
  Zn  Zn96  1  0.00789448  0.51231831  0.01157246  1
  Zn  Zn97  1  0.62134332  0.86469524  0.24558055  1
  Zn  Zn98  1  0.75052079  0.75008721  -0.00133680  1
  Zn  Zn99  1  0.12275215  0.62634262  0.02443693  1
  Zn  Zn100  1  0.37428793  0.87923541  0.00429351  1
  Zn  Zn101  1  0.74643611  0.49781948  0.74770917  1
  Zn  Zn102  1  0.00545949  0.74311579  0.24934571  1
  Zn  Zn103  1  -0.00206294  0.37439621  0.37703661  1
  Zn  Zn104  1  0.76169913  0.13639359  0.86043954  1
  Zn  Zn105  1  0.49439759  0.25641772  0.25579340  1
  Zn  Zn106  1  0.24899073  0.37524212  0.62598601  1
  Zn  Zn107  1  0.18716454  0.18515600  0.18987302  1
  Zn  Zn108  1  0.18243560  0.18840546  0.69018491  1
  Zn  Zn109  1  0.20100037  0.69466359  0.19744245  1
  Zn  Zn110  1  0.18443987  0.68447243  0.68844483  1
  Zn  Zn111  1  0.68675691  0.18879288  0.18876058  1
  Zn  Zn112  1  0.68365266  0.17868860  0.68845865  1
  Zn  Zn113  1  0.69322800  0.68353398  0.19024992  1
  Zn  Zn114  1  0.68483271  0.68669947  0.68278819  1
  Zn  Zn115  1  0.31140590  0.31469092  0.31301652  1
  Zn  Zn116  1  0.31626198  0.31587951  0.81772519  1
  Zn  Zn117  1  0.31209157  0.81170826  0.31550291  1
  Zn  Zn118  1  0.31436864  0.81633633  0.81102024  1
  Zn  Zn119  1  0.80756422  0.31422624  0.31796704  1
  Zn  Zn120  1  0.81352193  0.31602332  0.80943652  1
  Zn  Zn121  1  0.81381009  0.81013818  0.31662667  1
  Zn  Zn122  1  0.81328643  0.81718498  0.80644326  1
  Zn  Zn123  1  0.18854445  0.43936143  0.43492395  1
  Zn  Zn124  1  0.18458525  0.44162112  0.94439162  1
  Zn  Zn125  1  0.18775326  0.93677900  0.43707709  1
  Zn  Zn126  1  0.18865783  0.93804472  0.93683299  1
  Zn  Zn127  1  0.68585355  0.43742147  0.44036486  1
  Zn  Zn128  1  0.70661446  0.43985416  0.93691892  1
  Zn  Zn129  1  0.68607381  0.93364737  0.43706453  1
  Zn  Zn130  1  0.69025854  0.93985272  0.93633078  1
  Zn  Zn131  1  0.31269139  0.06313092  0.06183865  1
  Zn  Zn132  1  0.31024006  0.06696827  0.56311001  1
  Zn  Zn133  1  0.31544479  0.56667000  0.06009718  1
  Zn  Zn134  1  0.31429763  0.55871822  0.56216950  1
  Zn  Zn135  1  0.81239190  0.06374492  0.06009289  1
  Zn  Zn136  1  0.80518636  0.05656512  0.56559736  1
  Zn  Zn137  1  0.80943636  0.56374756  0.06029931  1
  Zn  Zn138  1  0.81017479  0.56196267  0.56567991  1
  Zn  Zn139  1  0.43897502  0.44085312  0.18274542  1
  Zn  Zn140  1  0.43798894  0.43648935  0.68425240  1
  Zn  Zn141  1  0.44261018  0.94120937  0.19378166  1
  Zn  Zn142  1  0.43665521  0.93782721  0.69101235  1
  Zn  Zn143  1  0.93520374  0.43265365  0.19195935  1
  Zn  Zn144  1  0.93638102  0.43392480  0.68770457  1
  Zn  Zn145  1  0.93933584  0.93459600  0.19207316  1
  Zn  Zn146  1  0.93567422  0.93301004  0.68049989  1
  Zn  Zn147  1  0.06345388  0.06423470  0.31298275  1
  Zn  Zn148  1  0.06511998  0.06080903  0.81212051  1
  Zn  Zn149  1  0.06566233  0.56167651  0.17960437  1
  Zn  Zn150  1  0.06323394  0.56383426  0.81543166  1
  Zn  Zn151  1  0.56447927  0.06230715  0.31183383  1
  Zn  Zn152  1  0.55811683  0.06739891  0.80657421  1
  Zn  Zn153  1  0.56165208  0.56282388  0.31080010  1
  Zn  Zn154  1  0.56474803  0.57286196  0.80484888  1
  Zn  Zn155  1  0.43767506  0.18690990  0.44324593  1
  Zn  Zn156  1  0.43867437  0.19234140  0.93701951  1
  Zn  Zn157  1  0.43603915  0.69060089  0.43545711  1
  Zn  Zn158  1  0.43837335  0.68946819  0.93909320  1
  Zn  Zn159  1  0.93373457  0.18658655  0.44149754  1
  Zn  Zn160  1  0.93887640  0.18756609  0.93848263  1
  Zn  Zn161  1  0.94036150  0.68440417  0.43815511  1
  Zn  Zn162  1  0.93793433  0.68762933  0.94128994  1
  Zn  Zn163  1  0.05846353  0.31280137  0.05978409  1
  Zn  Zn164  1  0.06090656  0.31422263  0.56715974  1
  Zn  Zn165  1  0.06541266  0.80528342  0.06575187  1
  Zn  Zn166  1  0.05833757  0.81145802  0.55896099  1
  Zn  Zn167  1  0.56486615  0.30872876  0.07004801  1
  Zn  Zn168  1  0.56141686  0.30583912  0.56516283  1
  Zn  Zn169  1  0.56182084  0.81226309  0.05960217  1
  Zn  Zn170  1  0.56241055  0.80740053  0.55078472  1
  O  O171  1  0.12065922  0.11955322  0.11830707  1
  O  O172  1  0.11865432  0.11858543  0.61826520  1
  O  O173  1  0.12107051  0.64789062  0.13726417  1
  O  O174  1  0.11760012  0.61145701  0.62811734  1
  O  O175  1  0.61906309  0.12056445  0.11841525  1
  O  O176  1  0.61151792  0.11356008  0.62269152  1
  O  O177  1  0.62134779  0.62243383  0.11663548  1
  O  O178  1  0.62067463  0.62260407  0.61007050  1
  O  O179  1  0.37110202  0.37844955  0.38881544  1
  O  O180  1  0.37801183  0.38426914  0.88887227  1
  O  O181  1  0.38466475  0.88175489  0.37493303  1
  O  O182  1  0.38307480  0.88380389  0.87666941  1
  O  O183  1  0.87590621  0.37468151  0.38999564  1
  O  O184  1  0.88200553  0.38632758  0.88415700  1
  O  O185  1  0.88971985  0.86805495  0.38421610  1
  O  O186  1  0.88048501  0.88321760  0.88140535  1
  O  O187  1  0.25644667  0.00576947  0.36889870  1
  O  O188  1  0.25473055  0.00817381  0.86811947  1
  O  O189  1  0.25737836  0.50610020  0.36798944  1
  O  O190  1  0.26006931  0.50782594  0.87050720  1
  O  O191  1  0.74214503  0.00745795  0.36490411  1
  O  O192  1  0.75646855  0.00188112  0.86401475  1
  O  O193  1  0.74988873  0.50665664  0.36788867  1
  O  O194  1  0.76104234  0.51373686  0.87236192  1
  O  O195  1  0.25822196  0.50735301  0.14080298  1
  O  O196  1  0.24314457  0.50009529  0.63346774  1
  O  O197  1  0.24387872  1.00454170  0.13631687  1
  O  O198  1  0.24336364  0.99687746  0.63217517  1
  O  O199  1  0.73472997  0.50748520  0.13248389  1
  O  O200  1  0.73422773  0.50124168  0.62589351  1
  O  O201  1  0.74521244  0.99138214  0.12910586  1
  O  O202  1  0.72965860  1.00057539  0.63425115  1
  O  O203  1  0.00915459  0.36630351  0.25659764  1
  O  O204  1  0.00105419  0.37409936  0.76512563  1
  O  O205  1  0.00626900  0.87206537  0.26448149  1
  O  O206  1  0.00605358  0.86832330  0.75234169  1
  O  O207  1  0.51269160  0.37533286  0.24651419  1
  O  O208  1  0.49649630  0.35755393  0.74467535  1
  O  O209  1  0.50679332  0.88121921  0.26595652  1
  O  O210  1  0.49413763  0.86390177  0.76084152  1
  O  O211  1  0.49337883  0.12620470  0.24200019  1
  O  O212  1  0.49906959  0.13600826  0.73567341  1
  O  O213  1  0.48794648  0.62241655  0.24301376  1
  O  O214  1  0.49113019  0.64111297  0.74722512  1
  O  O215  1  0.99346134  0.12948568  0.24644027  1
  O  O216  1  1.00632225  0.12278369  0.73508201  1
  O  O217  1  0.98368609  0.62255579  0.25197192  1
  O  O218  1  1.00422641  0.63412749  0.73955070  1
  O  O219  1  0.37923935  0.26446934  0.00667430  1
  O  O220  1  0.36715351  0.25717812  0.50699763  1
  O  O221  1  0.37107288  0.75335284  0.00991620  1
  O  O222  1  0.37219697  0.75266937  0.51280499  1
  O  O223  1  0.86915159  0.25471921  0.00720307  1
  O  O224  1  0.86480858  0.25504839  0.50578390  1
  O  O225  1  0.87100694  0.75963830  0.00787950  1
  O  O226  1  0.87865530  0.75388604  0.50905197  1
  O  O227  1  0.12974557  0.24583322  0.49517255  1
  O  O228  1  0.12122955  0.24007378  0.99002102  1
  O  O229  1  0.12918596  0.75416237  0.48679355  1
  O  O230  1  0.13581630  0.75129148  0.99260355  1
  O  O231  1  0.63151009  0.24707743  0.49362018  1
  O  O232  1  0.63228899  0.24463227  0.99913338  1
  O  O233  1  0.62409456  0.73337927  0.48681201  1
  O  O234  1  0.62828505  0.74446829  0.99025317  1
  O  O235  1  0.49344890  0.23905212  0.12959157  1
  O  O236  1  0.49347310  0.24178582  0.63442971  1
  O  O237  1  0.49610024  0.73843671  0.12182635  1
  O  O238  1  0.49217939  0.75092028  0.62953145  1
  O  O239  1  0.99176478  0.24230824  0.13114519  1
  O  O240  1  1.00115755  0.23432033  0.62832547  1
  O  O241  1  0.98351730  0.75921699  0.13174387  1
  O  O242  1  0.99859308  0.74063025  0.62909501  1
  O  O243  1  0.00806202  0.24773271  0.37087453  1
  O  O244  1  0.00788014  0.25789285  0.87770236  1
  O  O245  1  0.01349094  0.75080034  0.37328999  1
  O  O246  1  0.00179568  0.75608847  0.86463641  1
  O  O247  1  0.51370422  0.24168973  0.37416708  1
  O  O248  1  0.50393168  0.24491534  0.85869317  1
  O  O249  1  0.50466330  0.76038292  0.37300348  1
  O  O250  1  0.50653271  0.75762479  0.86834805  1
  O  O251  1  0.24080203  0.13660130  0.49660928  1
  O  O252  1  0.23748387  0.11867567  0.99093793  1
  O  O253  1  0.25541466  0.62378966  0.48697911  1
  O  O254  1  0.25242047  0.63855218  0.99282189  1
  O  O255  1  0.74737395  0.12956211  0.49392614  1
  O  O256  1  0.74213766  0.13264340  0.99844006  1
  O  O257  1  0.74167096  0.61904722  0.48695739  1
  O  O258  1  0.73673240  0.62762749  0.99016019  1
  O  O259  1  0.26277512  0.37439442  -0.00234639  1
  O  O260  1  0.25118515  0.36204286  0.50076370  1
  O  O261  1  0.25401827  0.86353453  -0.00484537  1
  O  O262  1  0.25247234  0.87547036  0.51342651  1
  O  O263  1  0.76520417  0.36662747  0.00159759  1
  O  O264  1  0.75574116  0.36599071  0.50429802  1
  O  O265  1  0.75730117  0.87603481  0.00892748  1
  O  O266  1  0.76664599  0.87059712  0.48824303  1
  O  O267  1  0.13935621  0.49146358  0.24814250  1
  O  O268  1  0.13438655  0.49883182  0.74645148  1
  O  O269  1  0.13300052  0.99537255  0.24760925  1
  O  O270  1  0.13266610  0.99317546  0.74241556  1
  O  O271  1  0.62951309  0.49505254  0.24388636  1
  O  O272  1  0.62313078  0.50941324  0.73098338  1
  O  O273  1  0.63565966  1.00220112  0.23645298  1
  O  O274  1  0.62637406  0.99465930  0.74413415  1
  O  O275  1  0.36802857  0.00610677  0.25772739  1
  O  O276  1  0.36469051  -0.00266023  0.76208213  1
  O  O277  1  0.36751662  0.50269945  0.25641239  1
  O  O278  1  0.37036408  0.50392174  0.75731689  1
  O  O279  1  0.86190754  0.00572575  0.24388858  1
  O  O280  1  0.87803982  -0.00287315  0.75802801  1
  O  O281  1  0.86542182  0.50291627  0.25322219  1
  O  O282  1  0.87740683  0.50159537  0.76233709  1
  O  O283  1  0.12563001  0.36291007  0.36972892  1
  O  O284  1  0.11889378  0.36771924  0.87825840  1
  O  O285  1  0.11547619  0.87162531  0.37110933  1
  O  O286  1  0.11982173  0.86980940  0.86897516  1
  O  O287  1  0.62913983  0.36552601  0.36770564  1
  O  O288  1  0.61406494  0.38717618  0.89177191  1
  O  O289  1  0.61733191  0.86474682  0.37362782  1
  O  O290  1  0.61941210  0.86552252  0.87888081  1
  O  O291  1  0.38307503  0.13085139  0.12733428  1
  O  O292  1  0.38362075  0.13240152  0.62259368  1
  O  O293  1  0.38465791  0.63192225  0.13073695  1
  O  O294  1  0.37511503  0.63218181  0.62984493  1
  O  O295  1  0.87927332  0.13355447  0.12995730  1
  O  O296  1  0.89021476  0.12044596  0.61676407  1
  O  O297  1  0.86174761  0.63631438  0.13388770  1
  O  O298  1  0.88241015  0.63752652  0.62136464  1
  O  O299  1  0.26320581  0.24055651  0.12537616  1
  O  O300  1  0.25548686  0.24875860  0.62031979  1
  O  O301  1  0.26575761  0.75004746  0.11758844  1
  O  O302  1  0.25442610  0.75777415  0.62658780  1
  O  O303  1  0.75727916  0.24392465  0.11407679  1
  O  O304  1  0.74528560  0.24682005  0.61528128  1
  O  O305  1  0.75533176  0.76259154  0.12609152  1
  O  O306  1  0.76537422  0.74674591  0.62710001  1
  O  O307  1  0.24337842  0.24358989  0.38174204  1
  O  O308  1  0.24487340  0.23930372  0.87056930  1
  O  O309  1  0.24243256  0.74280439  0.37846344  1
  O  O310  1  0.24928668  0.74463745  0.87944974  1
  O  O311  1  0.74094427  0.24244617  0.38498447  1
  O  O312  1  0.74544196  0.25025741  0.88766553  1
  O  O313  1  0.74154086  0.73746445  0.36964899  1
  O  O314  1  0.74461262  0.74894845  0.87257110  1
  O  O315  1  0.01074888  0.11795943  0.00516452  1
  O  O316  1  0.01129848  0.12805956  0.50789066  1
  O  O317  1  0.00967342  0.62769160  -0.00285907  1
  O  O318  1  -0.00162703  0.61568349  0.51309071  1
  O  O319  1  0.50811471  0.12523701  0.00709582  1
  O  O320  1  0.50080265  0.13016683  0.51991404  1
  O  O321  1  0.51297150  0.62829825  0.00500217  1
  O  O322  1  0.51029959  0.62511579  0.49672989  1
  O  O323  1  0.48616502  0.36653314  0.50019671  1
  O  O324  1  0.49297756  0.37835520  1.00747880  1
  O  O325  1  0.49796073  0.87533071  0.48183151  1
  O  O326  1  0.49882290  0.87895825  0.98689620  1
  O  O327  1  0.99196784  0.38075595  0.50170436  1
  O  O328  1  0.98875599  0.37406263  0.99087682  1
  O  O329  1  0.99495934  0.87433801  0.48659943  1
  O  O330  1  0.99639958  0.87838253  0.99478297  1
  O  O331  1  0.48474794  0.50148608  0.37045569  1
  O  O332  1  0.49193413  0.50908815  0.87344481  1
  O  O333  1  0.49224582  0.99384243  0.37167644  1
  O  O334  1  0.49265609  0.99517246  0.87249424  1
  O  O335  1  0.99809613  0.49811872  0.39146355  1
  O  O336  1  0.99454815  0.49474620  0.87839634  1
  O  O337  1  1.00166046  0.98885771  0.37409515  1
  O  O338  1  0.99474206  0.99419110  0.87882347  1
  O  O339  1  0.00705353  0.00471075  0.12231167  1
  O  O340  1  0.01181542  0.00794489  0.62753270  1
  O  O341  1  0.00032064  0.49059105  0.12468223  1
  O  O342  1  0.00523386  0.50527669  0.62171697  1
  O  O343  1  0.50802241  0.01066757  0.12393707  1
  O  O344  1  0.50716199  0.00725590  0.63269743  1
  O  O345  1  0.51277745  0.51491012  0.12815105  1
  O  O346  1  0.51060626  0.50358393  0.62471917  1
  O  O347  1  0.24408553  0.38813599  0.25331241  1
  O  O348  1  0.25105850  0.38809854  0.75200692  1
  O  O349  1  0.24168631  0.88713023  0.25918073  1
  O  O350  1  0.24476075  0.88372223  0.74017154  1
  O  O351  1  0.74134305  0.38781131  0.25406797  1
  O  O352  1  0.74745409  0.38324966  0.75104358  1
  O  O353  1  0.74794453  0.88170003  0.24462359  1
  O  O354  1  0.75687634  0.89662016  0.74840535  1
  O  O355  1  0.25512210  0.11571813  0.25775593  1
  O  O356  1  0.24300053  0.11419847  0.75842306  1
  O  O357  1  0.26136654  0.61496631  0.26087612  1
  O  O358  1  0.25631350  0.61619463  0.75627807  1
  O  O359  1  0.75396422  0.11846699  0.25618172  1
  O  O360  1  0.74715808  0.10481033  0.74984269  1
  O  O361  1  0.75603029  0.61260993  0.25947430  1
  O  O362  1  0.74470081  0.62445722  0.76133006  1
  O  O363  1  0.37221734  0.11953086  0.37169100  1
  O  O364  1  0.36513932  0.11936879  0.88169029  1
  O  O365  1  0.37047584  0.61888622  0.36912134  1
  O  O366  1  0.36670909  0.62049221  0.87247519  1
  O  O367  1  0.86073004  0.13009813  0.36984998  1
  O  O368  1  0.87455020  0.10946067  0.88546106  1
  O  O369  1  0.86782733  0.62294461  0.36880602  1
  O  O370  1  0.86538312  0.62163834  0.87885427  1
  O  O371  1  0.12670868  0.36102300  0.13677635  1
  O  O372  1  0.12694716  0.38572644  0.63110391  1
  O  O373  1  0.11884933  0.87811213  0.14276586  1
  O  O374  1  0.12917459  0.88211352  0.62583522  1
  O  O375  1  0.62348107  0.38522418  0.13347779  1
  O  O376  1  0.62331645  0.38921637  0.61519712  1
  O  O377  1  0.63120286  0.88248976  0.12475564  1
  O  O378  1  0.61377627  0.88521500  0.61992377  1
  O  O379  1  0.12178530  0.25293261  0.25884152  1
  O  O380  1  0.12060009  0.25177894  0.76499146  1
  O  O381  1  0.12874242  0.76138832  0.26582817  1
  O  O382  1  0.11752544  0.75572954  0.75491879  1
  O  O383  1  0.62567041  0.25938008  0.25728813  1
  O  O384  1  0.61562073  0.25009712  0.75202351  1
  O  O385  1  0.62698314  0.74526828  0.26226189  1
  O  O386  1  0.61619075  0.74729155  0.75575360  1
  O  O387  1  0.37491363  0.24554616  0.24385226  1
  O  O388  1  0.37734704  0.25400776  0.73980137  1
  O  O389  1  0.36799684  0.73974314  0.24283867  1
  O  O390  1  0.37886218  0.74738737  0.73944366  1
  O  O391  1  0.87585124  0.24690672  0.24444435  1
  O  O392  1  0.87692313  0.24342059  0.75292982  1
  O  O393  1  0.87409391  0.74021439  0.24396684  1
  O  O394  1  0.88715107  0.75897994  0.73630704  1
  O  O395  1  0.37051488  0.48262721  0.49451615  1
  O  O396  1  0.37487021  0.49080301  0.99301760  1
  O  O397  1  0.36763013  1.00050549  0.48754730  1
  O  O398  1  0.37580108  0.99859525  0.98847372  1
  O  O399  1  0.88218732  0.49159107  0.50358925  1
  O  O400  1  0.87394800  0.49357885  0.99411917  1
  O  O401  1  0.87161490  0.98351646  0.50610626  1
  O  O402  1  0.88169301  0.99209914  0.99761028  1
  O  O403  1  0.12026060  0.00409560  0.00553778  1
  O  O404  1  0.13346996  0.01130266  0.50867641  1
  O  O405  1  0.12532331  0.51413963  -0.00123413  1
  O  O406  1  0.11708769  0.49270214  0.50962841  1
  O  O407  1  0.62606826  0.00784299  0.01011140  1
  O  O408  1  0.62666583  -0.00047244  0.51220947  1
  O  O409  1  0.62073852  0.50384983  0.00217097  1
  O  O410  1  0.62584161  0.51301813  0.50672475  1
  O  O411  1  0.37660603  0.36903179  0.11435453  1
  O  O412  1  0.37082480  0.36761262  0.61365075  1
  O  O413  1  0.38765852  0.86432616  0.12681337  1
  O  O414  1  0.36714644  0.86994780  0.62571478  1
  O  O415  1  0.87736191  0.36044144  0.11948079  1
  O  O416  1  0.87210970  0.36934296  0.61664210  1
  O  O417  1  0.86758380  0.87110931  0.12168216  1
  O  O418  1  0.88365668  0.86108212  0.60800468  1
  O  O419  1  0.12852193  0.13425855  0.38162924  1
  O  O420  1  0.13083653  0.12998017  0.88234281  1
  O  O421  1  0.13386993  0.63869133  0.37137832  1
  O  O422  1  0.14104990  0.63355002  0.86769952  1
  O  O423  1  0.63510999  0.13112621  0.37575872  1
  O  O424  1  0.62538891  0.12214969  0.88605156  1
  O  O425  1  0.62898949  0.62605412  0.38126434  1
  O  O426  1  0.62948199  0.63759956  0.87939742  1
