# generated using pymatgen
data_V85Zn86O256
_symmetry_space_group_name_H-M   'P 1'
_cell_length_a   16.93240681
_cell_length_b   16.92504440
_cell_length_c   16.92887016
_cell_angle_alpha   89.99431102
_cell_angle_beta   90.01858250
_cell_angle_gamma   90.00247285
_symmetry_Int_Tables_number   1
_chemical_formula_structural   V85Zn86O256
_chemical_formula_sum   'V85 Zn86 O256'
_cell_volume   4851.50473434
_cell_formula_units_Z   1
loop_
 _symmetry_equiv_pos_site_id
 _symmetry_equiv_pos_as_xyz
  1  'x, y, z'
loop_
 _atom_site_type_symbol
 _atom_site_label
 _atom_site_symmetry_multiplicity
 _atom_site_fract_x
 _atom_site_fract_y
 _atom_site_fract_z
 _atom_site_occupancy
  V  V0  1  0.11884703  0.24847772  0.87025687  1
  V  V1  1  0.49856837  0.50797705  0.50358764  1
  V  V2  1  0.50201408  0.12417617  0.62534583  1
  V  V3  1  0.62262543  0.50494452  0.62811455  1
  V  V4  1  0.75268311  0.00066511  0.75247298  1
  V  V5  1  0.74096841  0.12883224  0.87686712  1
  V  V6  1  0.49234390  0.49860372  0.00123944  1
  V  V7  1  0.75114682  0.50362399  0.25159388  1
  V  V8  1  0.87849662  0.13872792  0.74692251  1
  V  V9  1  -0.00590991  0.25505153  0.24290044  1
  V  V10  1  0.11840420  0.37243489  0.74643087  1
  V  V11  1  0.10654835  0.62127074  -0.00673234  1
  V  V12  1  0.37997761  0.50281488  0.36462129  1
  V  V13  1  0.24923323  0.12502558  0.87679983  1
  V  V14  1  0.12735873  0.75279012  0.86787229  1
  V  V15  1  0.25041305  0.12334955  0.36921454  1
  V  V16  1  0.74503879  0.61682776  0.88206139  1
  V  V17  1  0.00862765  -0.00384338  0.51363315  1
  V  V18  1  0.88041878  0.00573906  0.87813997  1
  V  V19  1  0.11600493  0.74976090  0.37662736  1
  V  V20  1  0.75647811  0.87066665  0.62844033  1
  V  V21  1  0.11637842  0.12084194  0.00070187  1
  V  V22  1  0.62242824  0.74226915  0.87687881  1
  V  V23  1  0.79709372  0.18374953  0.43080564  1
  V  V24  1  0.61678925  0.25238622  0.37871464  1
  V  V25  1  0.25116657  0.26428805  0.00093484  1
  V  V26  1  0.50090172  0.87185536  0.87305746  1
  V  V27  1  0.75340025  0.36291445  0.61875924  1
  V  V28  1  0.24643857  0.87147785  0.12307226  1
  V  V29  1  0.88348701  0.62787141  0.25305116  1
  V  V30  1  0.62551681  0.12682777  0.49477145  1
  V  V31  1  0.62690278  -0.00087057  0.62668619  1
  V  V32  1  0.50634827  0.24726705  0.75711711  1
  V  V33  1  0.49601389  0.37011546  0.88176202  1
  V  V34  1  0.49156188  0.87137672  0.37798077  1
  V  V35  1  0.11934902  0.86197522  0.24616721  1
  V  V36  1  0.25342960  0.74881933  0.49991163  1
  V  V37  1  0.62632185  0.37193111  0.75449946  1
  V  V38  1  0.00346632  0.37913002  0.38082241  1
  V  V39  1  0.25290684  0.88326970  0.61719666  1
  V  V40  1  0.25188489  0.74719959  -0.00193145  1
  V  V41  1  -0.00091680  0.37713722  0.87489227  1
  V  V42  1  0.11319393  0.50329855  0.61726231  1
  V  V43  1  0.13042587  0.25618437  0.36190063  1
  V  V44  1  0.74422856  0.74741997  0.00248071  1
  V  V45  1  0.12640418  0.88313162  0.74305608  1
  V  V46  1  0.62093707  0.37661922  0.25522172  1
  V  V47  1  0.87722487  0.88170649  0.00106809  1
  V  V48  1  0.37489995  0.87318389  -0.00137278  1
  V  V49  1  0.62340350  0.87410465  0.25112746  1
  V  V50  1  0.50251769  0.62665370  0.12605229  1
  V  V51  1  0.87183773  0.12325125  0.24350885  1
  V  V52  1  0.37547327  -0.00146455  0.37359363  1
  V  V53  1  0.00381964  0.88101412  0.87909348  1
  V  V54  1  0.38397962  0.62251078  0.74558604  1
  V  V55  1  0.50310152  0.24442666  0.24250757  1
  V  V56  1  0.38040975  0.74877261  0.62200253  1
  V  V57  1  0.87529723  0.88051503  0.49783789  1
  V  V58  1  0.87726252  0.50066619  0.38685109  1
  V  V59  1  0.74658967  0.25021430  -0.00065023  1
  V  V60  1  0.11277610  -0.00037280  0.12077833  1
  V  V61  1  0.25219983  0.62621712  0.36457380  1
  V  V62  1  0.62620416  0.74743444  0.37872151  1
  V  V63  1  0.37468473  0.12414244  0.75096079  1
  V  V64  1  0.25149781  0.25064869  0.49731730  1
  V  V65  1  -0.00298837  0.88767082  0.37003642  1
  V  V66  1  0.74817437  0.87932338  0.12671158  1
  V  V67  1  0.37482901  0.26729431  0.11888109  1
  V  V68  1  0.00396475  0.14196389  0.62866468  1
  V  V69  1  0.24938999  0.49816724  0.74537013  1
  V  V70  1  0.24593037  -0.00162408  0.24702342  1
  V  V71  1  0.37760929  0.12229063  0.23592110  1
  V  V72  1  0.75355195  0.00159547  0.26848970  1
  V  V73  1  0.87755575  0.49814093  0.87723833  1
  V  V74  1  0.37666549  0.25046685  0.62356494  1
  V  V75  1  0.88054154  0.74956220  0.12764973  1
  V  V76  1  0.75391260  0.36793115  0.12768857  1
  V  V77  1  0.37218300  0.74254200  0.13138694  1
  V  V78  1  0.49595956  -0.00470499  0.50031450  1
  V  V79  1  0.25200124  0.62392769  0.87273219  1
  V  V80  1  0.75782570  0.74468000  0.50604066  1
  V  V81  1  0.50211351  0.00493189  0.00617834  1
  V  V82  1  0.38583707  0.37601199  0.49682463  1
  V  V83  1  0.62784675  0.50474928  0.11704721  1
  V  V84  1  0.87903286  0.37417122  0.00741998  1
  Zn  Zn85  1  0.87355061  0.36467396  0.50359606  1
  Zn  Zn86  1  0.50428345  0.74457862  0.74372406  1
  Zn  Zn87  1  0.24461503  0.47632235  0.24103714  1
  Zn  Zn88  1  -0.02492801  0.64498408  0.61338696  1
  Zn  Zn89  1  0.11931891  0.62016722  0.49812612  1
  Zn  Zn90  1  0.49698995  0.74332895  0.25321142  1
  Zn  Zn91  1  -0.00462542  0.12598489  0.12026567  1
  Zn  Zn92  1  0.13050006  0.12069701  0.50409592  1
  Zn  Zn93  1  0.61812894  0.13473398  0.00721318  1
  Zn  Zn94  1  0.62592831  0.87166834  0.75047820  1
  Zn  Zn95  1  0.11680823  0.47805029  0.12779676  1
  Zn  Zn96  1  0.37493319  -0.00064803  0.87460883  1
  Zn  Zn97  1  0.62178119  0.62841066  0.50934121  1
  Zn  Zn98  1  0.74851343  0.62409678  0.37790291  1
  Zn  Zn99  1  0.24745909  0.00406394  0.74501007  1
  Zn  Zn100  1  0.75143272  0.49796592  0.74923333  1
  Zn  Zn101  1  -0.00964523  0.75100534  0.74390151  1
  Zn  Zn102  1  0.62053651  0.00894009  0.13154399  1
  Zn  Zn103  1  0.87496091  0.62695283  0.74690332  1
  Zn  Zn104  1  0.37226160  0.49340771  0.87642853  1
  Zn  Zn105  1  -0.00139929  0.61892931  0.12547344  1
  Zn  Zn106  1  0.25008898  0.37537678  0.62272131  1
  Zn  Zn107  1  0.18955446  0.30707721  0.18498043  1
  Zn  Zn108  1  0.18654446  0.18758136  0.68560912  1
  Zn  Zn109  1  0.18824508  0.62066969  0.17996051  1
  Zn  Zn110  1  0.18765732  0.68776796  0.68537982  1
  Zn  Zn111  1  0.68902281  0.18380205  0.18834141  1
  Zn  Zn112  1  0.68817916  0.18570759  0.68865818  1
  Zn  Zn113  1  0.68860162  0.68762561  0.18810691  1
  Zn  Zn114  1  0.69403826  0.68488194  0.69308983  1
  Zn  Zn115  1  0.32540647  0.31174381  0.31523446  1
  Zn  Zn116  1  0.31155161  0.31133206  0.81252419  1
  Zn  Zn117  1  0.30806929  0.80913868  0.31016874  1
  Zn  Zn118  1  0.31393563  0.81225620  0.80578565  1
  Zn  Zn119  1  0.81736385  0.31865958  0.30890525  1
  Zn  Zn120  1  0.80926905  0.31287165  0.81462834  1
  Zn  Zn121  1  0.81350324  0.81241261  0.31547356  1
  Zn  Zn122  1  0.81036691  0.81251199  0.81562896  1
  Zn  Zn123  1  0.19476021  0.43603130  0.43179229  1
  Zn  Zn124  1  0.18282751  0.44073816  0.93721175  1
  Zn  Zn125  1  0.18578977  0.93535721  0.43701765  1
  Zn  Zn126  1  0.18874637  0.94091313  0.93633582  1
  Zn  Zn127  1  0.68725251  0.43704468  0.43997600  1
  Zn  Zn128  1  0.68357397  0.43162444  0.93862110  1
  Zn  Zn129  1  0.68263625  0.93261280  0.44214236  1
  Zn  Zn130  1  0.68583170  0.93716713  0.93726371  1
  Zn  Zn131  1  0.30532689  0.06113082  0.05961041  1
  Zn  Zn132  1  0.31577438  0.06379703  0.55941416  1
  Zn  Zn133  1  0.31334624  0.55959383  0.06033668  1
  Zn  Zn134  1  0.30884777  0.56507601  0.56040417  1
  Zn  Zn135  1  0.80793694  0.06273083  0.06590967  1
  Zn  Zn136  1  0.82118080  0.05737470  0.56812982  1
  Zn  Zn137  1  0.81623169  0.56011636  0.06151154  1
  Zn  Zn138  1  0.80701717  0.55903790  0.56752952  1
  Zn  Zn139  1  0.44331126  0.43649686  0.18954611  1
  Zn  Zn140  1  0.43828063  0.43511791  0.68741603  1
  Zn  Zn141  1  0.43575161  0.93158108  0.18721609  1
  Zn  Zn142  1  0.43503446  0.93509546  0.68786636  1
  Zn  Zn143  1  0.94127182  0.44189741  0.18957383  1
  Zn  Zn144  1  0.93405861  0.43615346  0.68901019  1
  Zn  Zn145  1  0.93354857  0.93989474  0.19123146  1
  Zn  Zn146  1  0.93661118  0.93541001  0.69081642  1
  Zn  Zn147  1  0.06362705  0.06411283  0.30952326  1
  Zn  Zn148  1  0.06077149  0.06365480  0.80775977  1
  Zn  Zn149  1  0.06205580  0.56218308  0.31378699  1
  Zn  Zn150  1  0.05746152  0.56295324  0.80345384  1
  Zn  Zn151  1  0.56376131  0.06305499  0.31284732  1
  Zn  Zn152  1  0.56264454  0.05769979  0.81653326  1
  Zn  Zn153  1  0.55960546  0.56313135  0.31177960  1
  Zn  Zn154  1  0.56332756  0.55833540  0.81621591  1
  Zn  Zn155  1  0.43958059  0.18495550  0.43311265  1
  Zn  Zn156  1  0.43551825  0.18852250  0.93880101  1
  Zn  Zn157  1  0.43589941  0.68481837  0.43984384  1
  Zn  Zn158  1  0.43910669  0.68092974  0.94085052  1
  Zn  Zn159  1  0.95824321  0.18305103  0.43470422  1
  Zn  Zn160  1  0.93354319  0.19456427  0.93649328  1
  Zn  Zn161  1  0.93894308  0.68796100  0.44028844  1
  Zn  Zn162  1  0.92543625  0.70104043  0.91337102  1
  Zn  Zn163  1  0.06007047  0.30826506  0.05571161  1
  Zn  Zn164  1  0.06828087  0.31499490  0.55530665  1
  Zn  Zn165  1  0.06281701  0.80613991  0.05692568  1
  Zn  Zn166  1  0.06551764  0.80972872  0.56326240  1
  Zn  Zn167  1  0.56442007  0.31360233  0.06645144  1
  Zn  Zn168  1  0.56491751  0.31423242  0.56584466  1
  Zn  Zn169  1  0.56193035  0.81375749  0.06275580  1
  Zn  Zn170  1  0.56592132  0.81411838  0.56262418  1
  O  O171  1  0.12058423  0.11226691  0.11317739  1
  O  O172  1  0.11076225  0.12715464  0.62374553  1
  O  O173  1  0.11308905  0.64766286  0.09763230  1
  O  O174  1  0.13001038  0.60836549  0.62426309  1
  O  O175  1  0.62881421  0.12079019  0.11986651  1
  O  O176  1  0.62182340  0.11998412  0.61484915  1
  O  O177  1  0.62103571  0.61469231  0.12842266  1
  O  O178  1  0.62958276  0.60957593  0.63017961  1
  O  O179  1  0.37518688  0.39078534  0.38491632  1
  O  O180  1  0.39107785  0.37544196  0.86633516  1
  O  O181  1  0.38555247  0.87917093  0.36816203  1
  O  O182  1  0.38087951  0.87369932  0.88254949  1
  O  O183  1  0.88115266  0.38345450  0.37916537  1
  O  O184  1  0.88058919  0.37935641  0.88071244  1
  O  O185  1  0.88586840  0.87185215  0.38355801  1
  O  O186  1  0.88226538  0.88579761  0.88296501  1
  O  O187  1  0.25467540  0.00405500  0.37071745  1
  O  O188  1  0.25311251  0.01357569  0.87256329  1
  O  O189  1  0.26072549  0.50987144  0.37147448  1
  O  O190  1  0.24942447  0.50653436  0.86312261  1
  O  O191  1  0.74525915  -0.00780819  0.36740312  1
  O  O192  1  0.75971490  0.00526733  0.87276312  1
  O  O193  1  0.75546774  0.50025075  0.36717679  1
  O  O194  1  0.75245212  0.50305297  0.87804012  1
  O  O195  1  0.23936911  0.52317204  0.13272365  1
  O  O196  1  0.24660899  0.49735062  0.63572383  1
  O  O197  1  0.24003714  0.99024676  0.12781206  1
  O  O198  1  0.25647287  0.98780537  0.62264766  1
  O  O199  1  0.74386282  0.49390346  0.13138071  1
  O  O200  1  0.73690898  0.48634693  0.62826979  1
  O  O201  1  0.74888486  0.98718716  0.13354495  1
  O  O202  1  0.74643707  0.99370023  0.63212961  1
  O  O203  1  -0.00860181  0.36077206  0.26093267  1
  O  O204  1  0.01171659  0.37530165  0.75467305  1
  O  O205  1  0.00609309  0.88020616  0.25855526  1
  O  O206  1  0.00763859  0.87630205  0.76171573  1
  O  O207  1  0.51001530  0.36050150  0.24648754  1
  O  O208  1  0.50603696  0.36486572  0.75519991  1
  O  O209  1  0.50853063  0.87266659  0.25816379  1
  O  O210  1  0.49957956  0.87261478  0.76322135  1
  O  O211  1  0.49287207  0.13473675  0.25319682  1
  O  O212  1  0.49608589  0.12939485  0.74887442  1
  O  O213  1  0.50291512  0.62607308  0.23379953  1
  O  O214  1  0.48730599  0.62267328  0.75459309  1
  O  O215  1  0.99033228  0.13474435  0.25298622  1
  O  O216  1  0.99481794  0.12546272  0.73678129  1
  O  O217  1  0.98572519  0.62960148  0.25104171  1
  O  O218  1  0.99612693  0.63033961  0.74018468  1
  O  O219  1  0.36924061  0.24619719  0.01254011  1
  O  O220  1  0.37312510  0.25557373  0.50017314  1
  O  O221  1  0.37168814  0.75688638  0.00409912  1
  O  O222  1  0.36336163  0.74637113  0.50628852  1
  O  O223  1  0.86257916  0.26345199  -0.00161005  1
  O  O224  1  0.86273693  0.24012036  0.48475034  1
  O  O225  1  0.86237239  0.76322397  0.00162550  1
  O  O226  1  0.86248168  0.76175932  0.49435237  1
  O  O227  1  0.13780939  0.24641449  0.48866023  1
  O  O228  1  0.13363272  0.24188542  0.98675916  1
  O  O229  1  0.13732103  0.75344194  0.49132458  1
  O  O230  1  0.13404830  0.74681558  0.98327823  1
  O  O231  1  0.61837831  0.24245079  0.49116174  1
  O  O232  1  0.63997963  0.25288103  1.00394658  1
  O  O233  1  0.63457154  0.74991356  0.49480475  1
  O  O234  1  0.63710170  0.75643527  0.99537864  1
  O  O235  1  0.48763421  0.25049706  0.12875319  1
  O  O236  1  0.49584260  0.24270605  0.63315438  1
  O  O237  1  0.49389206  0.74290532  0.12325492  1
  O  O238  1  0.48560695  0.75854445  0.62368985  1
  O  O239  1  1.00366349  0.24769754  0.14047483  1
  O  O240  1  1.00091499  0.23996684  0.61585617  1
  O  O241  1  0.98242926  0.74867311  0.11666608  1
  O  O242  1  0.99690961  0.75899070  0.63122876  1
  O  O243  1  0.01239576  0.25518544  0.36616737  1
  O  O244  1  0.00952783  0.25982105  0.87450325  1
  O  O245  1  0.01230562  0.76415936  0.38238063  1
  O  O246  1  0.01647623  0.76507852  0.87600720  1
  O  O247  1  0.51095799  0.24792823  0.36484345  1
  O  O248  1  0.49835311  0.25437273  0.86808751  1
  O  O249  1  0.50430340  0.75550317  0.37609128  1
  O  O250  1  0.50675307  0.75407625  0.87769102  1
  O  O251  1  0.25404772  0.13299491  0.48891107  1
  O  O252  1  0.24025902  0.13109059  0.99160680  1
  O  O253  1  0.24462086  0.63400914  0.49039371  1
  O  O254  1  0.24786164  0.62912928  0.98370888  1
  O  O255  1  0.74662074  0.12091581  0.49848006  1
  O  O256  1  0.75305295  0.13341288  0.99314903  1
  O  O257  1  0.74335345  0.63333978  0.49827414  1
  O  O258  1  0.75235342  0.63408888  0.99318087  1
  O  O259  1  0.25298010  0.36242462  -0.01717668  1
  O  O260  1  0.26210338  0.36296003  0.49801807  1
  O  O261  1  0.25724234  0.86960709  0.00144203  1
  O  O262  1  0.24884822  0.86996769  0.51109522  1
  O  O263  1  0.75383425  0.36949709  0.00896091  1
  O  O264  1  0.74843224  0.37251789  0.51436832  1
  O  O265  1  0.75486526  0.87186985  0.00859077  1
  O  O266  1  0.75789243  0.87162970  0.50813935  1
  O  O267  1  0.13606275  0.52765936  0.23843249  1
  O  O268  1  0.13121019  0.49197555  0.74082072  1
  O  O269  1  0.12931307  0.99302605  0.24078136  1
  O  O270  1  0.12788327  0.98766919  0.75290959  1
  O  O271  1  0.63061332  0.49295013  0.24678483  1
  O  O272  1  0.62367889  0.48959211  0.74439297  1
  O  O273  1  0.63020201  0.98879284  0.25224553  1
  O  O274  1  0.63303213  0.99762745  0.74522967  1
  O  O275  1  0.37022996  0.00417996  0.25243186  1
  O  O276  1  0.37579065  0.01351411  0.75140818  1
  O  O277  1  0.37610287  0.49559614  0.26267345  1
  O  O278  1  0.36713043  0.50505756  0.74932289  1
  O  O279  1  0.86623143  0.00899039  0.25388742  1
  O  O280  1  0.87015074  0.00705570  0.76000237  1
  O  O281  1  0.86627917  0.50821046  0.25797558  1
  O  O282  1  0.87019523  0.49747453  0.76423434  1
  O  O283  1  0.11782149  0.36719836  0.38004040  1
  O  O284  1  0.11704750  0.36960042  0.86900592  1
  O  O285  1  0.11848733  0.87122435  0.36603860  1
  O  O286  1  0.12141055  0.87291989  0.86950337  1
  O  O287  1  0.63049552  0.36780136  0.36357948  1
  O  O288  1  0.61499594  0.37682287  0.86166955  1
  O  O289  1  0.61544885  0.86460934  0.37126654  1
  O  O290  1  0.61761912  0.86368518  0.87484160  1
  O  O291  1  0.36978217  0.12425324  0.13459806  1
  O  O292  1  0.38233461  0.12957722  0.63125334  1
  O  O293  1  0.38484232  0.63581633  0.11678660  1
  O  O294  1  0.36716901  0.63508384  0.63371397  1
  O  O295  1  0.87761662  0.12136583  0.13765246  1
  O  O296  1  0.88973427  0.12120224  0.63439143  1
  O  O297  1  0.87292971  0.63288277  0.13187358  1
  O  O298  1  0.86271677  0.62692125  0.63334520  1
  O  O299  1  0.26603659  0.24849932  0.11529257  1
  O  O300  1  0.25745654  0.24843204  0.61365322  1
  O  O301  1  0.25833871  0.75372931  0.11456481  1
  O  O302  1  0.25686375  0.75764273  0.61817781  1
  O  O303  1  0.74920080  0.26344012  0.12378966  1
  O  O304  1  0.74347010  0.26358092  0.62696126  1
  O  O305  1  0.75413465  0.76032856  0.11980579  1
  O  O306  1  0.74311192  0.75956067  0.61850691  1
  O  O307  1  0.24924288  0.24091076  0.37832874  1
  O  O308  1  0.24551808  0.23986594  0.87946367  1
  O  O309  1  0.24375838  0.74977939  0.38428220  1
  O  O310  1  0.24710044  0.74370320  0.87567379  1
  O  O311  1  0.74070310  0.24856698  0.37172966  1
  O  O312  1  0.75178928  0.24048924  0.88472928  1
  O  O313  1  0.74116824  0.75096536  0.38525026  1
  O  O314  1  0.73945728  0.74369044  0.88510541  1
  O  O315  1  0.01196466  0.13476890  -0.00125675  1
  O  O316  1  0.00193475  0.11209091  0.51194808  1
  O  O317  1  0.00740997  0.63421074  -0.01686541  1
  O  O318  1  0.00623416  0.62843633  0.50459525  1
  O  O319  1  0.49949919  0.10803318  -0.00793597  1
  O  O320  1  0.50787731  0.11810590  0.50434423  1
  O  O321  1  0.50194902  0.61292398  0.01130796  1
  O  O322  1  0.50201864  0.61284089  0.50260991  1
  O  O323  1  0.49053435  0.38125340  0.50342378  1
  O  O324  1  0.50714038  0.38121822  0.99163641  1
  O  O325  1  0.50553410  0.88398894  0.49063445  1
  O  O326  1  0.49278140  0.87934987  0.99120148  1
  O  O327  1  0.99222758  0.36530821  0.48560057  1
  O  O328  1  0.98896830  0.36796332  0.98912344  1
  O  O329  1  0.99631125  0.88453173  0.49595075  1
  O  O330  1  0.99255815  0.87340197  0.98841958  1
  O  O331  1  0.48770331  0.50470608  0.38314797  1
  O  O332  1  0.49972161  0.49096179  0.88541724  1
  O  O333  1  0.49720442  0.99214082  0.38107433  1
  O  O334  1  0.49726558  0.98868377  0.88442565  1
  O  O335  1  0.99123935  0.49008685  0.36877965  1
  O  O336  1  0.99383793  0.48647066  0.87062680  1
  O  O337  1  1.00569157  0.99172466  0.38554117  1
  O  O338  1  0.98877230  0.99788684  0.87343616  1
  O  O339  1  0.00961347  -0.00034400  0.12693183  1
  O  O340  1  -0.00014905  -0.00042567  0.61528150  1
  O  O341  1  0.00427652  0.50596963  0.12542734  1
  O  O342  1  0.01334613  0.49496336  0.62617265  1
  O  O343  1  0.49946691  -0.01006148  0.10949823  1
  O  O344  1  0.50429848  0.00264041  0.61869479  1
  O  O345  1  0.50728523  0.50431006  0.12033389  1
  O  O346  1  0.50971471  0.49204430  0.61674869  1
  O  O347  1  0.24565595  0.36640295  0.26148411  1
  O  O348  1  0.24033120  0.38178695  0.75021352  1
  O  O349  1  0.23994257  0.87867471  0.24280042  1
  O  O350  1  0.24468177  0.87967864  0.73988280  1
  O  O351  1  0.74646785  0.38538525  0.24434976  1
  O  O352  1  0.74060474  0.37383673  0.74455271  1
  O  O353  1  0.74407197  0.87984136  0.24565535  1
  O  O354  1  0.75123157  0.87959575  0.74491039  1
  O  O355  1  0.26036545  0.11641629  0.26090914  1
  O  O356  1  0.25800933  0.12537802  0.75509148  1
  O  O357  1  0.25827624  0.64750512  0.26657530  1
  O  O358  1  0.25499452  0.61879507  0.75734600  1
  O  O359  1  0.75921138  0.11525917  0.25152713  1
  O  O360  1  0.75648336  0.12061287  0.75758704  1
  O  O361  1  0.75374849  0.61377494  0.25161695  1
  O  O362  1  0.75070740  0.62079300  0.77092918  1
  O  O363  1  0.37026734  0.11831172  0.36542737  1
  O  O364  1  0.36658443  0.12558399  0.86773955  1
  O  O365  1  0.36876530  0.61115714  0.38086017  1
  O  O366  1  0.36710732  0.62156993  0.86673782  1
  O  O367  1  0.86502637  0.13213316  0.37361430  1
  O  O368  1  0.87043209  0.11967792  0.87035235  1
  O  O369  1  0.87149506  0.62016571  0.36910997  1
  O  O370  1  0.86468572  0.60527612  0.88740291  1
  O  O371  1  0.13556070  0.36867719  0.10883016  1
  O  O372  1  0.12841875  0.38077417  0.63051095  1
  O  O373  1  0.12596283  0.87574481  0.12842923  1
  O  O374  1  0.14171118  0.87180642  0.63144456  1
  O  O375  1  0.63308629  0.38217812  0.13780687  1
  O  O376  1  0.63048429  0.37958292  0.63594344  1
  O  O377  1  0.63128628  0.87616579  0.13523125  1
  O  O378  1  0.63660075  0.88223656  0.62688222  1
  O  O379  1  0.11418608  0.24675439  0.25814057  1
  O  O380  1  0.13328715  0.25808016  0.76124967  1
  O  O381  1  0.12567797  0.76142829  0.25847951  1
  O  O382  1  0.13118973  0.76142685  0.75843575  1
  O  O383  1  0.61969081  0.25471223  0.25509219  1
  O  O384  1  0.61306091  0.25351401  0.74693288  1
  O  O385  1  0.62563893  0.76049433  0.25786160  1
  O  O386  1  0.62208792  0.75049034  0.76063058  1
  O  O387  1  0.38362927  0.24288717  0.23880056  1
  O  O388  1  0.38297215  0.23995760  0.74572355  1
  O  O389  1  0.37928964  0.75976851  0.23450815  1
  O  O390  1  0.37771678  0.74005119  0.74121670  1
  O  O391  1  0.88678657  0.24200820  0.25555022  1
  O  O392  1  0.87259457  0.23761502  0.75505142  1
  O  O393  1  0.86301206  0.74059072  0.23942891  1
  O  O394  1  0.88644025  0.73438939  0.79898671  1
  O  O395  1  0.38054921  0.49379424  0.49755128  1
  O  O396  1  0.38751251  0.49884024  0.99755772  1
  O  O397  1  0.38911027  1.00494953  0.49193632  1
  O  O398  1  0.38236485  0.99059079  0.99892997  1
  O  O399  1  0.86600707  0.49733443  0.48800360  1
  O  O400  1  0.86870582  0.48304884  0.99273605  1
  O  O401  1  0.88733241  0.98801196  0.50111285  1
  O  O402  1  0.86926278  0.98950156  0.99542012  1
  O  O403  1  0.12778020  0.00791205  0.00670822  1
  O  O404  1  0.11301962  0.00088816  0.49924312  1
  O  O405  1  0.12439919  0.52020920  -0.00478826  1
  O  O406  1  0.13429304  0.49520933  0.51534207  1
  O  O407  1  0.60939766  -0.00443676  0.00166084  1
  O  O408  1  0.61590938  0.00696273  0.50428366  1
  O  O409  1  0.61815234  0.49277671  0.01369027  1
  O  O410  1  0.61547800  0.49959210  0.50767189  1
  O  O411  1  0.37570932  0.36591264  0.12604301  1
  O  O412  1  0.37227420  0.36698977  0.61762234  1
  O  O413  1  0.36907650  0.86765752  0.11397528  1
  O  O414  1  0.36061444  0.86597820  0.63119300  1
  O  O415  1  0.86590556  0.38099031  0.11965792  1
  O  O416  1  0.85910600  0.37699736  0.62352708  1
  O  O417  1  0.86855642  0.87083732  0.11996173  1
  O  O418  1  0.86310118  0.87991616  0.61880089  1
  O  O419  1  0.13578898  0.13190582  0.37555737  1
  O  O420  1  0.12934904  0.13080649  0.87603244  1
  O  O421  1  0.13170961  0.63600831  0.37639310  1
  O  O422  1  0.13069670  0.63354535  0.87591323  1
  O  O423  1  0.62348978  0.13219166  0.38675084  1
  O  O424  1  0.63831966  0.11839242  0.88122686  1
  O  O425  1  0.62368976  0.63869270  0.37463366  1
  O  O426  1  0.62842482  0.63348601  0.87766780  1
