# generated using pymatgen
data_V85Zn86O256
_symmetry_space_group_name_H-M   'P 1'
_cell_length_a   16.94638506
_cell_length_b   16.94113402
_cell_length_c   16.95138498
_cell_angle_alpha   90.00840007
_cell_angle_beta   89.94080406
_cell_angle_gamma   90.06441162
_symmetry_Int_Tables_number   1
_chemical_formula_structural   V85Zn86O256
_chemical_formula_sum   'V85 Zn86 O256'
_cell_volume   4866.58401123
_cell_formula_units_Z   1
loop_
 _symmetry_equiv_pos_site_id
 _symmetry_equiv_pos_as_xyz
  1  'x, y, z'
loop_
 _atom_site_type_symbol
 _atom_site_label
 _atom_site_symmetry_multiplicity
 _atom_site_fract_x
 _atom_site_fract_y
 _atom_site_fract_z
 _atom_site_occupancy
  V  V0  1  0.62464865  0.62668923  0.49356717  1
  V  V1  1  0.25197735  0.12520157  0.37636793  1
  V  V2  1  0.11864497  0.62971512  0.49910227  1
  V  V3  1  0.00006553  0.12335625  0.62549035  1
  V  V4  1  0.00158641  0.37599631  0.87536336  1
  V  V5  1  0.74970634  0.37326557  0.12703668  1
  V  V6  1  0.75099281  0.12372628  0.37416126  1
  V  V7  1  0.12770419  0.37509650  0.74804381  1
  V  V8  1  0.87199142  0.11942483  0.75190865  1
  V  V9  1  0.12194052  0.75548250  0.36053366  1
  V  V10  1  0.88213087  0.37399445  0.49670096  1
  V  V11  1  0.12640421  0.12493533  0.50237585  1
  V  V12  1  0.36828725  0.37217362  -0.00708355  1
  V  V13  1  0.01739155  0.00091785  -0.00832860  1
  V  V14  1  0.62125565  0.49980713  0.62288184  1
  V  V15  1  0.24589833  -0.01066089  0.25150320  1
  V  V16  1  0.62161269  0.85972560  0.74375283  1
  V  V17  1  0.12314605  0.87921612  0.75444664  1
  V  V18  1  0.51106345  0.74742479  0.25347168  1
  V  V19  1  0.81854856  -0.05492467  0.93087985  1
  V  V20  1  0.87563798  0.75091009  0.62360753  1
  V  V21  1  0.37022939  0.49575958  0.37967616  1
  V  V22  1  0.12910439  0.75062624  0.88055727  1
  V  V23  1  0.25760172  0.25574981  0.50074451  1
  V  V24  1  0.38189999  -0.00368702  0.38398577  1
  V  V25  1  0.74759777  0.50139250  0.25444709  1
  V  V26  1  0.62136671  -0.00603351  0.62410441  1
  V  V27  1  0.50020539  0.12252069  0.62562225  1
  V  V28  1  0.50054050  0.25160308  0.24966285  1
  V  V29  1  0.35677865  0.51867619  0.87799154  1
  V  V30  1  0.88454826  0.62207077  0.74185752  1
  V  V31  1  0.87889645  0.49781227  0.37017125  1
  V  V32  1  0.87694383  0.24820428  0.12438015  1
  V  V33  1  0.26182878  0.37949213  0.62387478  1
  V  V34  1  0.13209801  0.62653269  0.00167676  1
  V  V35  1  0.38387899  0.25666430  0.62731699  1
  V  V36  1  0.00367398  0.74854746  0.74557479  1
  V  V37  1  0.63581539  0.73528879  0.89301696  1
  V  V38  1  0.12099324  0.50078870  0.62081940  1
  V  V39  1  0.75254428  0.37263205  0.62613283  1
  V  V40  1  0.38728039  -0.00331613  0.87395640  1
  V  V41  1  0.24855355  0.62233493  0.36839909  1
  V  V42  1  -0.00069923  0.50319832  0.49392349  1
  V  V43  1  0.51039225  0.87144543  0.38245931  1
  V  V44  1  0.38300069  0.87809794  0.00848714  1
  V  V45  1  -0.00130672  0.63221997  0.12649064  1
  V  V46  1  0.12340162  0.50160846  0.13435560  1
  V  V47  1  0.74975221  0.12925750  0.87501595  1
  V  V48  1  0.01175368  0.12563163  0.12083683  1
  V  V49  1  0.74895874  -0.00853636  0.74372292  1
  V  V50  1  0.25335977  0.00657628  0.75698538  1
  V  V51  1  0.25061582  0.38077366  0.13737798  1
  V  V52  1  0.87966239  0.50653154  0.87283339  1
  V  V53  1  0.87554828  0.37589794  -0.00189883  1
  V  V54  1  0.37230877  0.74228599  0.64003540  1
  V  V55  1  0.49298647  0.49780452  -0.00870093  1
  V  V56  1  0.50400488  0.62109717  0.12115927  1
  V  V57  1  0.87598812  0.87648915  0.50481700  1
  V  V58  1  0.75276825  0.50353799  0.74881161  1
  V  V59  1  0.74787884  0.75292031  0.49739051  1
  V  V60  1  0.49678838  0.85672477  0.86803827  1
  V  V61  1  0.87749683  -0.00038795  0.37388931  1
  V  V62  1  0.75108405  -0.00554183  0.24637945  1
  V  V63  1  0.25129081  0.75318920  0.49571870  1
  V  V64  1  0.62417230  0.37936152  0.24901051  1
  V  V65  1  0.37812872  0.13136173  0.75232836  1
  V  V66  1  0.00278083  0.87451766  0.36018016  1
  V  V67  1  0.49611310  0.37502814  0.38330573  1
  V  V68  1  0.87550392  0.24841056  0.62505722  1
  V  V69  1  0.62574902  0.25013481  0.37503051  1
  V  V70  1  0.87534844  0.63735311  0.24916933  1
  V  V71  1  0.62068646  -0.00224913  0.12102553  1
  V  V72  1  0.87092883  0.75615380  0.10109654  1
  V  V73  1  0.60433642  0.25239890  0.87353416  1
  V  V74  1  0.64514641  0.51395803  0.08945007  1
  V  V75  1  0.24877659  0.87844233  0.62430794  1
  V  V76  1  0.74426619  0.25241046  -0.00236967  1
  V  V77  1  0.50041772  0.12400967  0.12006954  1
  V  V78  1  0.62066392  0.11934269  0.49918366  1
  V  V79  1  -0.00060733  0.24786534  0.75175800  1
  V  V80  1  0.37615484  0.62117889  0.25132515  1
  V  V81  1  0.13466878  0.24249058  0.88078682  1
  V  V82  1  0.11734442  0.25612084  0.37528736  1
  V  V83  1  0.37766392  0.12391371  0.25296786  1
  V  V84  1  0.61369314  0.37152467  0.75533867  1
  Zn  Zn85  1  0.74687524  0.63112424  0.37290385  1
  Zn  Zn86  1  0.24046421  0.23437543  0.01114713  1
  Zn  Zn87  1  0.75107103  0.24876605  0.49948525  1
  Zn  Zn88  1  0.23738476  0.86855745  0.12471717  1
  Zn  Zn89  1  -0.00100827  0.25423520  0.25027046  1
  Zn  Zn90  1  0.50507693  0.64061648  0.63128309  1
  Zn  Zn91  1  0.37730045  0.74889023  0.12650147  1
  Zn  Zn92  1  0.11919305  0.38456124  0.25947843  1
  Zn  Zn93  1  0.00329186  0.50161648  0.00019538  1
  Zn  Zn94  1  0.61562171  0.12621361  -0.00432425  1
  Zn  Zn95  1  0.25552481  0.51661193  0.74467732  1
  Zn  Zn96  1  0.37144334  0.25284781  0.12972571  1
  Zn  Zn97  1  0.74791726  0.87038800  0.10935608  1
  Zn  Zn98  1  0.25664896  0.74996743  0.00091354  1
  Zn  Zn99  1  0.00298409  -0.00179216  0.49957036  1
  Zn  Zn100  1  0.87871421  0.12389840  0.24793014  1
  Zn  Zn101  1  0.12450238  -0.00258421  0.12848918  1
  Zn  Zn102  1  -0.00723534  0.87843238  0.87866369  1
  Zn  Zn103  1  0.12626793  0.00269713  0.62717028  1
  Zn  Zn104  1  0.49443939  0.50384957  0.50043441  1
  Zn  Zn105  1  0.37997733  0.87661785  0.50420156  1
  Zn  Zn106  1  0.62841625  0.86965092  0.24902265  1
  Zn  Zn107  1  0.19066441  0.18715410  0.19108952  1
  Zn  Zn108  1  0.19191079  0.19048044  0.68964577  1
  Zn  Zn109  1  0.19147470  0.69023057  0.18396781  1
  Zn  Zn110  1  0.18759394  0.69020183  0.68311534  1
  Zn  Zn111  1  0.68654969  0.18548173  0.18857633  1
  Zn  Zn112  1  0.68495915  0.18742185  0.68996002  1
  Zn  Zn113  1  0.69145719  0.68757083  0.18162485  1
  Zn  Zn114  1  0.69539946  0.68274284  0.68140317  1
  Zn  Zn115  1  0.31056234  0.31293445  0.31272001  1
  Zn  Zn116  1  0.31291424  0.31795200  0.80920903  1
  Zn  Zn117  1  0.32156286  0.80890088  0.31363607  1
  Zn  Zn118  1  0.30674082  0.81419066  0.81490234  1
  Zn  Zn119  1  0.81465529  0.31262982  0.31212155  1
  Zn  Zn120  1  0.81118171  0.31207014  0.81228910  1
  Zn  Zn121  1  0.81322376  0.81528351  0.31520008  1
  Zn  Zn122  1  0.80585474  0.80444320  0.80778323  1
  Zn  Zn123  1  0.19121454  0.43804013  0.43882693  1
  Zn  Zn124  1  0.18620912  0.43535050  0.94495723  1
  Zn  Zn125  1  0.18665638  0.93884832  0.43469000  1
  Zn  Zn126  1  0.19540869  0.93601414  0.93841206  1
  Zn  Zn127  1  0.68988758  0.43747135  0.43815368  1
  Zn  Zn128  1  0.69411634  0.44928569  0.93498326  1
  Zn  Zn129  1  0.69057372  0.93730448  0.43995564  1
  Zn  Zn130  1  0.65332733  0.93701319  0.93515809  1
  Zn  Zn131  1  0.31350645  0.05692997  0.06567524  1
  Zn  Zn132  1  0.31303841  0.06464303  0.56554633  1
  Zn  Zn133  1  0.31043061  0.56166853  0.06752754  1
  Zn  Zn134  1  0.30840075  0.56574687  0.55659387  1
  Zn  Zn135  1  0.80803919  0.06946743  0.06576369  1
  Zn  Zn136  1  0.80980643  0.05949965  0.56244811  1
  Zn  Zn137  1  0.81625246  0.56258000  0.06116964  1
  Zn  Zn138  1  0.81201738  0.56507404  0.56239354  1
  Zn  Zn139  1  0.44033356  0.44248956  0.18765676  1
  Zn  Zn140  1  0.45419641  0.47599643  0.70861811  1
  Zn  Zn141  1  0.44113042  0.93871066  0.19663805  1
  Zn  Zn142  1  0.43943870  0.93469259  0.68675078  1
  Zn  Zn143  1  0.94209800  0.43652809  0.18950242  1
  Zn  Zn144  1  0.94378725  0.43688589  0.68419265  1
  Zn  Zn145  1  0.93571600  0.93736952  0.17743429  1
  Zn  Zn146  1  0.93740252  0.93826550  0.68696361  1
  Zn  Zn147  1  0.06166167  0.06808682  0.31182536  1
  Zn  Zn148  1  0.06335617  0.06362593  0.81375392  1
  Zn  Zn149  1  0.05845069  0.56806657  0.31138700  1
  Zn  Zn150  1  0.09254224  0.57977446  0.79700983  1
  Zn  Zn151  1  0.56356013  0.05756483  0.30986872  1
  Zn  Zn152  1  0.56087386  0.06198395  0.80853349  1
  Zn  Zn153  1  0.56062814  0.56093354  0.31437560  1
  Zn  Zn154  1  0.55902699  0.56881512  0.81413486  1
  Zn  Zn155  1  0.43937979  0.18817730  0.44041657  1
  Zn  Zn156  1  0.39902985  0.16911612  0.95523454  1
  Zn  Zn157  1  0.43860464  0.68877802  0.44112939  1
  Zn  Zn158  1  0.44006195  0.68758489  0.93999425  1
  Zn  Zn159  1  0.93746701  0.18494106  0.43930142  1
  Zn  Zn160  1  0.93770568  0.18444038  0.93907150  1
  Zn  Zn161  1  0.93749010  0.68989764  0.43292749  1
  Zn  Zn162  1  0.94815451  0.68554999  0.93228348  1
  Zn  Zn163  1  0.06421931  0.31536241  0.06327708  1
  Zn  Zn164  1  0.06380449  0.31268706  0.56106397  1
  Zn  Zn165  1  0.05849067  0.81826532  0.06689554  1
  Zn  Zn166  1  0.06147243  0.81490749  0.56075630  1
  Zn  Zn167  1  0.55894359  0.31934229  0.06071498  1
  Zn  Zn168  1  0.56588386  0.31135984  0.56350983  1
  Zn  Zn169  1  0.55953365  0.81151395  0.06199738  1
  Zn  Zn170  1  0.56064483  0.80992145  0.56281923  1
  O  O171  1  0.11556396  0.12311419  0.12820037  1
  O  O172  1  0.12037342  0.12884452  0.61866480  1
  O  O173  1  0.11666248  0.62274472  0.12242697  1
  O  O174  1  0.12798695  0.61625798  0.60571821  1
  O  O175  1  0.61628344  0.11986212  0.12464560  1
  O  O176  1  0.61844953  0.12101551  0.61883308  1
  O  O177  1  0.61926438  0.61281965  0.12947669  1
  O  O178  1  0.62690625  0.61373522  0.61656484  1
  O  O179  1  0.38260801  0.38374733  0.36812361  1
  O  O180  1  0.36749644  0.37920953  0.89112673  1
  O  O181  1  0.38589084  0.88132780  0.37881271  1
  O  O182  1  0.38242032  0.87675389  0.87744684  1
  O  O183  1  0.86933901  0.38762884  0.38305400  1
  O  O184  1  0.88332130  0.37886384  0.87788035  1
  O  O185  1  0.88681248  0.87995577  0.38075152  1
  O  O186  1  0.87152723  0.88023319  0.87123805  1
  O  O187  1  0.25811937  0.00539216  0.36859518  1
  O  O188  1  0.26626002  -0.00812891  0.86168858  1
  O  O189  1  0.25590223  0.50981176  0.37660200  1
  O  O190  1  0.25510936  0.50228405  0.88120085  1
  O  O191  1  0.75585565  0.00536937  0.36771587  1
  O  O192  1  0.74820076  0.00372415  0.87266963  1
  O  O193  1  0.75907190  0.50249245  0.36769503  1
  O  O194  1  0.76867492  0.49085386  0.85917935  1
  O  O195  1  0.24088425  0.48923333  0.12575067  1
  O  O196  1  0.23959256  0.49484498  0.62219291  1
  O  O197  1  0.25299091  0.99817407  0.14223741  1
  O  O198  1  0.25041449  0.99332558  0.63518911  1
  O  O199  1  0.75103294  0.49266437  0.14214325  1
  O  O200  1  0.74329420  0.49134452  0.62763531  1
  O  O201  1  0.74341046  0.99829764  0.13165730  1
  O  O202  1  0.73511770  1.00585503  0.63369054  1
  O  O203  1  0.00746434  0.36738371  0.24613790  1
  O  O204  1  0.00366663  0.36491160  0.75538482  1
  O  O205  1  -0.00600748  0.88019991  0.26205653  1
  O  O206  1  0.01145257  0.87497490  0.75174832  1
  O  O207  1  0.50595133  0.37086697  0.25651341  1
  O  O208  1  0.51604784  0.38109675  0.74891413  1
  O  O209  1  0.50321865  0.86377848  0.26020417  1
  O  O210  1  0.50888810  0.87294333  0.75595194  1
  O  O211  1  0.49526864  0.13242624  0.24891036  1
  O  O212  1  0.49559259  0.12468153  0.73412452  1
  O  O213  1  0.49659670  0.62864359  0.24515859  1
  O  O214  1  0.49650227  0.58263380  0.72565772  1
  O  O215  1  0.99774564  0.13190419  0.23922575  1
  O  O216  1  0.99374463  0.12871938  0.74499989  1
  O  O217  1  0.98869207  0.62216891  0.23670506  1
  O  O218  1  0.99779687  0.63688168  0.75005875  1
  O  O219  1  0.37774353  0.26883228  0.01040357  1
  O  O220  1  0.36489769  0.24590266  0.50899238  1
  O  O221  1  0.37742277  0.76351990  0.00127682  1
  O  O222  1  0.35956829  0.75257393  0.50193206  1
  O  O223  1  0.86814260  0.25451911  0.00844989  1
  O  O224  1  0.87372548  0.25818224  0.50385598  1
  O  O225  1  0.87479279  0.74497298  0.00259310  1
  O  O226  1  0.87438519  0.75550706  0.50685284  1
  O  O227  1  0.13312387  0.24312147  0.49371472  1
  O  O228  1  0.12652943  0.25349217  0.98596881  1
  O  O229  1  0.13225046  0.74539116  0.49444369  1
  O  O230  1  0.12162246  0.74591884  0.99487229  1
  O  O231  1  0.62932369  0.23773093  0.49444531  1
  O  O232  1  0.62741168  0.25360801  0.99147182  1
  O  O233  1  0.63699681  0.74125992  0.51089328  1
  O  O234  1  0.62665926  0.74848524  0.99245004  1
  O  O235  1  0.50011769  0.24546695  0.13582734  1
  O  O236  1  0.48807137  0.24623930  0.61960072  1
  O  O237  1  0.49947477  0.73879941  0.13316881  1
  O  O238  1  0.47700940  0.75392321  0.62326358  1
  O  O239  1  0.99269862  0.24238275  0.11937485  1
  O  O240  1  0.99577371  0.24297036  0.62985701  1
  O  O241  1  0.98294124  0.74390446  0.12040429  1
  O  O242  1  0.99324639  0.75693033  0.63686566  1
  O  O243  1  0.01498710  0.24602770  0.37857546  1
  O  O244  1  0.00625977  0.25862243  0.87152745  1
  O  O245  1  0.00705969  0.76484913  0.37612968  1
  O  O246  1  0.00656652  0.75910210  0.86272537  1
  O  O247  1  0.50487760  0.25527981  0.36842446  1
  O  O248  1  0.50793727  0.24367114  0.88295144  1
  O  O249  1  0.49753289  0.76179904  0.36970681  1
  O  O250  1  0.50943145  0.75268415  0.87370393  1
  O  O251  1  0.24423272  0.13358390  0.49800084  1
  O  O252  1  0.29211029  0.13621328  0.99279284  1
  O  O253  1  0.24110616  0.63385414  0.48673942  1
  O  O254  1  0.23627508  0.62958428  1.00923331  1
  O  O255  1  0.74470894  0.12464077  0.48728153  1
  O  O256  1  0.74388884  0.13391647  0.99116277  1
  O  O257  1  0.74453495  0.63331747  0.49812790  1
  O  O258  1  0.71411106  0.55088599  1.01390112  1
  O  O259  1  0.25829573  0.37304342  0.01380776  1
  O  O260  1  0.24690761  0.36567881  0.51004774  1
  O  O261  1  0.26828813  0.87460409  0.00326232  1
  O  O262  1  0.24848499  0.87011865  0.50738668  1
  O  O263  1  0.75693734  0.37083292  0.00489331  1
  O  O264  1  0.76065641  0.37438688  0.51061383  1
  O  O265  1  0.75236881  0.89187947  -0.01228711  1
  O  O266  1  0.76487442  0.86857065  0.49532757  1
  O  O267  1  0.12199958  0.50451129  0.23897766  1
  O  O268  1  0.10840355  0.48247246  0.73514715  1
  O  O269  1  0.14414815  1.00682541  0.25627129  1
  O  O270  1  0.13451708  0.99651715  0.75091776  1
  O  O271  1  0.63558640  0.49467751  0.25596315  1
  O  O272  1  0.63769243  0.48806554  0.74422907  1
  O  O273  1  0.63493308  0.99804796  0.24025770  1
  O  O274  1  0.62979349  0.99085038  0.74244419  1
  O  O275  1  0.36903810  0.00622192  0.26254438  1
  O  O276  1  0.37123106  0.00557525  0.75247207  1
  O  O277  1  0.38297287  0.51375268  0.26272381  1
  O  O278  1  0.36350540  0.49127349  0.77457948  1
  O  O279  1  0.86712024  0.00169316  0.25267242  1
  O  O280  1  0.86246119  0.00634944  0.74283009  1
  O  O281  1  0.86918773  0.50559292  0.25611067  1
  O  O282  1  0.87611069  0.50536251  0.74975230  1
  O  O283  1  0.13131514  0.35976126  0.37870675  1
  O  O284  1  0.11839086  0.37207070  0.86710787  1
  O  O285  1  0.11149549  0.87043892  0.37838729  1
  O  O286  1  0.12328813  0.87191322  0.86857188  1
  O  O287  1  0.61979754  0.36933800  0.37050947  1
  O  O288  1  0.63246919  0.36874953  0.86019519  1
  O  O289  1  0.61345604  0.88027778  0.37357382  1
  O  O290  1  0.61476478  0.85989984  0.86419214  1
  O  O291  1  0.38355223  0.12335578  0.14216660  1
  O  O292  1  0.38245881  0.13239795  0.63123761  1
  O  O293  1  0.38456121  0.62070477  0.13535876  1
  O  O294  1  0.36539016  0.64035607  0.62299026  1
  O  O295  1  0.88141817  0.13501602  0.12559772  1
  O  O296  1  0.87977663  0.12967314  0.62841657  1
  O  O297  1  0.87865763  0.63266938  0.12776162  1
  O  O298  1  0.87884951  0.63059687  0.63395985  1
  O  O299  1  0.24945976  0.26322896  0.12725556  1
  O  O300  1  0.25924404  0.25808333  0.61888048  1
  O  O301  1  0.26049190  0.75439829  0.12316484  1
  O  O302  1  0.25349002  0.75812578  0.61708507  1
  O  O303  1  0.75461438  0.25371313  0.11933887  1
  O  O304  1  0.75674972  0.25562928  0.62420386  1
  O  O305  1  0.76463186  0.75015068  0.12001263  1
  O  O306  1  0.76783352  0.74623993  0.61463920  1
  O  O307  1  0.24639366  0.24445343  0.38467269  1
  O  O308  1  0.23571770  0.25889413  0.87429148  1
  O  O309  1  0.24338838  0.74762958  0.37995584  1
  O  O310  1  0.23329590  0.75410830  0.87925436  1
  O  O311  1  0.74497091  0.24077874  0.37440234  1
  O  O312  1  0.74279446  0.24392631  0.87868966  1
  O  O313  1  0.75757741  0.74822690  0.39133631  1
  O  O314  1  0.73416550  0.74759135  0.87318815  1
  O  O315  1  -0.00425117  0.11217029  0.00683663  1
  O  O316  1  0.00917281  0.12403046  0.50743730  1
  O  O317  1  0.00553385  0.62336427  0.01323294  1
  O  O318  1  0.00726597  0.61772695  0.49269440  1
  O  O319  1  0.49350944  0.13052477  0.01767232  1
  O  O320  1  0.50881449  0.12751840  0.51086913  1
  O  O321  1  0.49422937  0.61417005  0.01300932  1
  O  O322  1  0.50867228  0.62480793  0.50879521  1
  O  O323  1  0.50465620  0.37029119  0.48483383  1
  O  O324  1  0.47448801  0.38666146  1.01567639  1
  O  O325  1  0.49877831  0.87097825  0.48671407  1
  O  O326  1  0.49152910  0.87190161  0.98623268  1
  O  O327  1  0.98832265  0.38110132  0.50207159  1
  O  O328  1  0.99440032  0.37680865  0.99132022  1
  O  O329  1  0.99020502  0.87817726  0.49347162  1
  O  O330  1  0.99850806  0.89692134  0.99771378  1
  O  O331  1  0.49240322  0.49108740  0.37910132  1
  O  O332  1  0.48374083  0.50601105  0.88807691  1
  O  O333  1  0.49361355  0.98491712  0.36835055  1
  O  O334  1  0.49264447  0.98578956  0.86696298  1
  O  O335  1  0.99382150  0.50124816  0.38368749  1
  O  O336  1  0.99498445  0.48550731  0.87184607  1
  O  O337  1  0.99673383  0.99279070  0.37606513  1
  O  O338  1  1.00065113  1.00273790  0.88750614  1
  O  O339  1  -0.00009399  0.00968824  0.11341287  1
  O  O340  1  0.00450075  0.01063742  0.62334386  1
  O  O341  1  0.00631616  0.50929958  0.12217043  1
  O  O342  1  0.01216946  0.49446186  0.60900776  1
  O  O343  1  0.50965067  0.01121063  0.13826066  1
  O  O344  1  0.51033145  0.00774685  0.62596487  1
  O  O345  1  0.51083793  0.50739510  0.11758263  1
  O  O346  1  0.51979851  0.47453349  0.61134157  1
  O  O347  1  0.24222053  0.37430428  0.24080020  1
  O  O348  1  0.24012617  0.38150824  0.74096985  1
  O  O349  1  0.25947622  0.88747612  0.25342902  1
  O  O350  1  0.23961202  0.88149043  0.74368705  1
  O  O351  1  0.74517351  0.38112131  0.24688687  1
  O  O352  1  0.75352890  0.38246871  0.73734091  1
  O  O353  1  0.74810002  0.88525947  0.25100277  1
  O  O354  1  0.74064899  0.88590581  0.75334975  1
  O  O355  1  0.26099198  0.11925507  0.25795772  1
  O  O356  1  0.26259924  0.11679119  0.74398206  1
  O  O357  1  0.25945731  0.63093606  0.26151541  1
  O  O358  1  0.19853796  0.61084341  0.75716877  1
  O  O359  1  0.75011767  0.11599731  0.26061686  1
  O  O360  1  0.74926351  0.11400014  0.75750567  1
  O  O361  1  0.75644721  0.61715867  0.25187518  1
  O  O362  1  0.76319766  0.60985782  0.74217806  1
  O  O363  1  0.37494063  0.11868301  0.36953459  1
  O  O364  1  0.39220781  0.11265816  0.85656501  1
  O  O365  1  0.36755443  0.62080494  0.37157521  1
  O  O366  1  0.36767586  0.61758676  0.88158671  1
  O  O367  1  0.86786561  0.11937722  0.37323603  1
  O  O368  1  0.85872202  0.13216123  0.86814179  1
  O  O369  1  0.87553455  0.61522709  0.36554780  1
  O  O370  1  0.88600251  0.61325693  0.86205423  1
  O  O371  1  0.13421686  0.38458746  0.12523251  1
  O  O372  1  0.13313482  0.37939869  0.62864179  1
  O  O373  1  0.12520095  0.88358072  0.12610087  1
  O  O374  1  0.13444798  0.87728412  0.63151838  1
  O  O375  1  0.63494358  0.38784946  0.12796813  1
  O  O376  1  0.63661448  0.37367960  0.63397764  1
  O  O377  1  0.62846009  0.88219122  0.12522403  1
  O  O378  1  0.61824062  0.88369509  0.62999724  1
  O  O379  1  0.12819070  0.24638802  0.27002560  1
  O  O380  1  0.12098289  0.26054064  0.75471195  1
  O  O381  1  0.12673303  0.74518217  0.26220170  1
  O  O382  1  0.11849402  0.76144364  0.75426140  1
  O  O383  1  0.62070066  0.25691711  0.25591801  1
  O  O384  1  0.62744920  0.26313515  0.75653554  1
  O  O385  1  0.61574401  0.74729227  0.24759873  1
  O  O386  1  0.63239964  0.75844712  0.74001485  1
  O  O387  1  0.38138240  0.24148869  0.25179632  1
  O  O388  1  0.36900577  0.24301722  0.74063804  1
  O  O389  1  0.38881309  0.73701625  0.25136917  1
  O  O390  1  0.36253189  0.74871576  0.73847849  1
  O  O391  1  0.87333566  0.24941704  0.23532853  1
  O  O392  1  0.87917588  0.24207077  0.74418901  1
  O  O393  1  0.86862581  0.73840021  0.24828033  1
  O  O394  1  0.88086329  0.74315753  0.74310597  1
  O  O395  1  0.37548704  0.50433533  0.48591633  1
  O  O396  1  0.37255547  0.49413959  0.99356080  1
  O  O397  1  0.36960398  0.99992084  0.48791338  1
  O  O398  1  0.37816365  0.98654739  0.98838529  1
  O  O399  1  0.88145585  0.49627782  0.49363510  1
  O  O400  1  0.88060224  0.49621102  0.98769863  1
  O  O401  1  0.87588986  0.99301266  0.49376241  1
  O  O402  1  0.87334867  1.00288479  0.99301097  1
  O  O403  1  0.12026291  0.00440483  -0.00216071  1
  O  O404  1  0.12779480  0.01433720  0.50237300  1
  O  O405  1  0.12313495  0.50892475  0.01163420  1
  O  O406  1  0.11784436  0.50625051  0.50021719  1
  O  O407  1  0.62107052  0.00814013  0.01467881  1
  O  O408  1  0.63114466  0.01135939  0.50767661  1
  O  O409  1  0.59995249  0.46778997  -0.00186123  1
  O  O410  1  0.62884785  0.50786148  0.50672520  1
  O  O411  1  0.36085486  0.38071144  0.12667507  1
  O  O412  1  0.36454774  0.37173175  0.63323582  1
  O  O413  1  0.38608284  0.87831246  0.11315573  1
  O  O414  1  0.36264814  0.86771998  0.62444938  1
  O  O415  1  0.86941730  0.36957533  0.11810622  1
  O  O416  1  0.87130265  0.36995859  0.61798978  1
  O  O417  1  0.87060489  0.86010448  0.12031134  1
  O  O418  1  0.87989973  0.86629061  0.61605010  1
  O  O419  1  0.13100308  0.13347861  0.38520076  1
  O  O420  1  0.12459644  0.14457618  0.86665765  1
  O  O421  1  0.12988942  0.63251179  0.37990480  1
  O  O422  1  0.10736085  0.63794446  0.89415687  1
  O  O423  1  0.62988102  0.12644873  0.38115521  1
  O  O424  1  0.63124296  0.13274770  0.87316016  1
  O  O425  1  0.62563744  0.62103345  0.38944845  1
  O  O426  1  0.62272192  0.63589370  0.87464571  1
