# generated using pymatgen
data_V85Zn86O256
_symmetry_space_group_name_H-M   'P 1'
_cell_length_a   16.92113520
_cell_length_b   16.92727477
_cell_length_c   16.92920744
_cell_angle_alpha   90.03406444
_cell_angle_beta   90.07408202
_cell_angle_gamma   89.94852727
_symmetry_Int_Tables_number   1
_chemical_formula_structural   V85Zn86O256
_chemical_formula_sum   'V85 Zn86 O256'
_cell_volume   4849.00409737
_cell_formula_units_Z   1
loop_
 _symmetry_equiv_pos_site_id
 _symmetry_equiv_pos_as_xyz
  1  'x, y, z'
loop_
 _atom_site_type_symbol
 _atom_site_label
 _atom_site_symmetry_multiplicity
 _atom_site_fract_x
 _atom_site_fract_y
 _atom_site_fract_z
 _atom_site_occupancy
  V  V0  1  0.36879756  0.25426809  0.12539075  1
  V  V1  1  0.24677849  0.13701511  0.37728318  1
  V  V2  1  0.49822081  0.25124134  0.75042305  1
  V  V3  1  0.12653792  0.75390615  0.37097862  1
  V  V4  1  0.12947118  0.74446348  0.87335334  1
  V  V5  1  0.25006611  0.75128754  0.00032803  1
  V  V6  1  0.50555822  0.12102636  0.62723618  1
  V  V7  1  0.88353274  0.49821099  0.37539750  1
  V  V8  1  0.87473006  0.62371793  0.74795174  1
  V  V9  1  0.37032124  0.00416559  0.87640220  1
  V  V10  1  0.00252403  0.25137352  0.75578265  1
  V  V11  1  0.62383247  0.50465549  0.62758885  1
  V  V12  1  0.75188529  0.37618813  0.62611080  1
  V  V13  1  0.49651573  0.00263336  0.00100515  1
  V  V14  1  0.37278313  0.87879470  0.50556109  1
  V  V15  1  0.37010591  0.51723447  0.87709555  1
  V  V16  1  0.49487079  0.62709297  0.62775264  1
  V  V17  1  0.00405619  0.49778643  0.00138585  1
  V  V18  1  0.13299173  0.62091588  -0.00165536  1
  V  V19  1  0.36575178  0.37901454  0.50535672  1
  V  V20  1  0.12183992  0.62615199  0.50617322  1
  V  V21  1  0.12893368  0.87273676  0.74062626  1
  V  V22  1  0.87177171  0.11568298  0.74733478  1
  V  V23  1  0.75024502  -0.00043256  0.24720933  1
  V  V24  1  0.23547933  -0.00053832  0.25365619  1
  V  V25  1  0.50154207  0.87753058  0.87407262  1
  V  V26  1  0.62607169  0.49567320  0.12570038  1
  V  V27  1  0.13531045  0.36987295  0.26093208  1
  V  V28  1  0.00221897  0.87957022  0.87652685  1
  V  V29  1  0.62479162  0.37587394  0.75129099  1
  V  V30  1  0.87755160  0.74907583  0.12140400  1
  V  V31  1  0.49744460  0.74616060  0.75591031  1
  V  V32  1  0.87868351  0.88277524  -0.00168399  1
  V  V33  1  0.25009899  -0.00198554  0.74047160  1
  V  V34  1  -0.00167905  0.25515997  0.26234756  1
  V  V35  1  0.36601041  0.25358850  0.62695137  1
  V  V36  1  0.75034423  0.12253396  0.86961226  1
  V  V37  1  0.87465913  0.74550907  0.62192967  1
  V  V38  1  0.75730978  0.74506438  -0.00573223  1
  V  V39  1  0.75733698  0.36922707  0.12613828  1
  V  V40  1  0.51092983  -0.00085333  0.50380512  1
  V  V41  1  0.23258613  0.12719792  0.87791911  1
  V  V42  1  0.62370476  0.63127223  0.49774470  1
  V  V43  1  0.62943636  0.74448108  0.87532957  1
  V  V44  1  -0.00064467  0.13362421  0.11315694  1
  V  V45  1  0.11851085  0.00376055  0.10884383  1
  V  V46  1  0.25487225  0.51927222  0.74748213  1
  V  V47  1  0.50415760  0.36713402  0.38199484  1
  V  V48  1  0.62463586  0.86607009  0.24969397  1
  V  V49  1  0.50324388  0.86884999  0.37131830  1
  V  V50  1  0.00378926  0.62356190  0.12728900  1
  V  V51  1  0.37234005  0.12419927  0.25089453  1
  V  V52  1  0.36693443  0.37478273  0.00025643  1
  V  V53  1  0.63477383  0.61956794  0.00197421  1
  V  V54  1  0.24880009  0.75632856  0.50303497  1
  V  V55  1  0.74995691  0.62996153  0.37471387  1
  V  V56  1  0.37335616  0.49757606  0.36621478  1
  V  V57  1  0.13998467  0.36817849  0.74889987  1
  V  V58  1  0.87685292  0.50103559  0.87734825  1
  V  V59  1  0.11729848  0.12633050  0.49468365  1
  V  V60  1  0.37345854  0.00076337  0.37621210  1
  V  V61  1  0.00387058  0.88251347  0.37449261  1
  V  V62  1  0.25077979  0.62249663  0.36778618  1
  V  V63  1  0.24377588  0.87481299  0.13140492  1
  V  V64  1  0.50068896  0.49616615  0.00012250  1
  V  V65  1  0.87515992  0.24955865  0.62486116  1
  V  V66  1  0.87588095  0.00342890  0.37575592  1
  V  V67  1  0.74158789  0.13243863  0.37310078  1
  V  V68  1  0.37013744  0.75242547  0.63307474  1
  V  V69  1  0.76237934  0.24759229  0.00281972  1
  V  V70  1  0.00054111  0.50270851  0.51070307  1
  V  V71  1  0.23753735  0.24886250  -0.00158886  1
  V  V72  1  0.75151303  0.87340282  0.11944945  1
  V  V73  1  0.62568597  0.12862192  0.00036699  1
  V  V74  1  0.88289816  0.37362646  0.49708105  1
  V  V75  1  0.49737951  0.12545870  0.12702033  1
  V  V76  1  0.62712541  0.36442019  0.25620896  1
  V  V77  1  0.00232182  0.75536685  0.25036453  1
  V  V78  1  0.74873839  0.88856139  0.62960822  1
  V  V79  1  -0.00086153  0.11352424  0.62175105  1
  V  V80  1  0.87287270  0.62419626  0.25049877  1
  V  V81  1  0.87775504  0.87709961  0.49807273  1
  V  V82  1  0.00111592  0.74181479  0.74663571  1
  V  V83  1  0.74943740  0.50639505  0.75716404  1
  V  V84  1  0.14098663  0.49206190  0.13341024  1
  Zn  Zn85  1  0.38525237  0.75472858  0.13730037  1
  Zn  Zn86  1  0.74640753  0.75399787  0.49736719  1
  Zn  Zn87  1  0.37175075  0.12686748  0.75030625  1
  Zn  Zn88  1  0.24088298  0.25626689  0.50412226  1
  Zn  Zn89  1  0.74270079  0.25928721  0.49150177  1
  Zn  Zn90  1  0.38777242  0.63382321  0.25357943  1
  Zn  Zn91  1  0.12583163  -0.00598590  0.61701208  1
  Zn  Zn92  1  0.00716188  0.37115183  0.87676358  1
  Zn  Zn93  1  0.87622307  0.13295236  0.24414513  1
  Zn  Zn94  1  0.13144469  0.49744281  0.62520482  1
  Zn  Zn95  1  0.87999151  0.37209572  0.00199858  1
  Zn  Zn96  1  0.49620744  0.37442606  0.87365605  1
  Zn  Zn97  1  0.62547714  0.25258031  0.87566708  1
  Zn  Zn98  1  0.49838479  0.49989588  0.50309572  1
  Zn  Zn99  1  0.62420286  0.13323948  0.50137435  1
  Zn  Zn100  1  0.75281372  0.49640107  0.25166143  1
  Zn  Zn101  1  0.62570947  -0.00088825  0.12214649  1
  Zn  Zn102  1  0.62404639  0.88222605  0.73869694  1
  Zn  Zn103  1  0.37092597  0.87821272  0.00322601  1
  Zn  Zn104  1  0.56852430  0.70359875  0.31281504  1
  Zn  Zn105  1  0.88007885  0.00128602  0.87499550  1
  Zn  Zn106  1  0.50195933  0.24540214  0.25631645  1
  Zn  Zn107  1  0.18309082  0.18876595  0.18607184  1
  Zn  Zn108  1  0.18414361  0.18286939  0.68791824  1
  Zn  Zn109  1  0.18869779  0.68672781  0.18728162  1
  Zn  Zn110  1  0.18928381  0.68735757  0.68535448  1
  Zn  Zn111  1  0.68863989  0.18654987  0.18565248  1
  Zn  Zn112  1  0.68736606  0.18909463  0.68450071  1
  Zn  Zn113  1  0.50631580  0.63489517  0.13468884  1
  Zn  Zn114  1  0.68908012  0.69174278  0.68775689  1
  Zn  Zn115  1  0.31485871  0.31474611  0.31215907  1
  Zn  Zn116  1  0.31242271  0.31315224  0.81841578  1
  Zn  Zn117  1  0.31435484  0.81338636  0.31153151  1
  Zn  Zn118  1  0.31218082  0.81485470  0.81580637  1
  Zn  Zn119  1  0.81973014  0.31323969  0.31027644  1
  Zn  Zn120  1  0.81539800  0.31160280  0.81467238  1
  Zn  Zn121  1  0.81188246  0.81153134  0.30994254  1
  Zn  Zn122  1  0.81272418  0.81311538  0.81154203  1
  Zn  Zn123  1  0.18743353  0.43958581  0.43552786  1
  Zn  Zn124  1  0.18984551  0.43594191  0.93195821  1
  Zn  Zn125  1  0.18578817  0.94184918  0.43869469  1
  Zn  Zn126  1  0.18610919  0.93503339  0.93375107  1
  Zn  Zn127  1  0.69102996  0.44302187  0.43909415  1
  Zn  Zn128  1  0.69161039  0.43312413  0.93588726  1
  Zn  Zn129  1  0.68956922  0.93730888  0.43551723  1
  Zn  Zn130  1  0.67252218  0.95108273  0.90563119  1
  Zn  Zn131  1  0.30619809  0.06553226  0.06329611  1
  Zn  Zn132  1  0.31482214  0.06941937  0.56154970  1
  Zn  Zn133  1  0.31868876  0.56775314  0.06968953  1
  Zn  Zn134  1  0.31239107  0.56660098  0.55942664  1
  Zn  Zn135  1  0.81683792  0.06250593  0.06199945  1
  Zn  Zn136  1  0.81270231  0.06331395  0.55538255  1
  Zn  Zn137  1  0.81299592  0.56034511  0.06484556  1
  Zn  Zn138  1  0.81142609  0.56249660  0.56361612  1
  Zn  Zn139  1  0.44013190  0.43373877  0.18849438  1
  Zn  Zn140  1  0.43232578  0.43964548  0.69031450  1
  Zn  Zn141  1  0.43220670  0.93645009  0.18904742  1
  Zn  Zn142  1  0.43695372  0.93662072  0.68882369  1
  Zn  Zn143  1  0.94294373  0.43419946  0.18810240  1
  Zn  Zn144  1  0.94175264  0.43525683  0.68830702  1
  Zn  Zn145  1  0.93947668  0.94006411  0.18716531  1
  Zn  Zn146  1  0.93770508  0.93143950  0.68835199  1
  Zn  Zn147  1  0.05977656  0.07011738  0.31055301  1
  Zn  Zn148  1  0.06110731  0.05950068  0.80566028  1
  Zn  Zn149  1  0.06372910  0.56046034  0.31558498  1
  Zn  Zn150  1  0.06708272  0.55937134  0.81245558  1
  Zn  Zn151  1  0.56255916  0.05501993  0.31156368  1
  Zn  Zn152  1  0.56251650  0.06511136  0.81155213  1
  Zn  Zn153  1  0.56220702  0.54243999  0.31251387  1
  Zn  Zn154  1  0.55806867  0.56473106  0.81733667  1
  Zn  Zn155  1  0.43496521  0.18877509  0.44284975  1
  Zn  Zn156  1  0.43277278  0.18835722  0.93609689  1
  Zn  Zn157  1  0.43288313  0.68726802  0.44149653  1
  Zn  Zn158  1  0.45165964  0.69743168  0.96701278  1
  Zn  Zn159  1  0.93546981  0.18737078  0.43563264  1
  Zn  Zn160  1  0.94112316  0.18434164  0.93523789  1
  Zn  Zn161  1  0.93967134  0.68799869  0.43795104  1
  Zn  Zn162  1  0.94359890  0.68414581  0.93349190  1
  Zn  Zn163  1  0.06248754  0.31539068  0.06863232  1
  Zn  Zn164  1  0.06289515  0.31137028  0.56866896  1
  Zn  Zn165  1  0.06602035  0.81575124  0.06257807  1
  Zn  Zn166  1  0.05719177  0.81113786  0.56015662  1
  Zn  Zn167  1  0.56130381  0.31122767  0.06557003  1
  Zn  Zn168  1  0.56052674  0.31133479  0.56432731  1
  Zn  Zn169  1  0.56816644  0.81448958  0.06027359  1
  Zn  Zn170  1  0.56256696  0.81242740  0.56281213  1
  O  O171  1  0.11589448  0.11213842  0.12693916  1
  O  O172  1  0.11431290  0.12039253  0.61834466  1
  O  O173  1  0.12102256  0.61395496  0.12230472  1
  O  O174  1  0.13049873  0.62333311  0.61021836  1
  O  O175  1  0.61692244  0.12230435  0.11771798  1
  O  O176  1  0.61059468  0.12536636  0.62750546  1
  O  O177  1  0.62402635  0.61061878  0.10982411  1
  O  O178  1  0.61639604  0.62378096  0.62103572  1
  O  O179  1  0.38039809  0.38071837  0.38345434  1
  O  O180  1  0.37687310  0.38245214  0.88682223  1
  O  O181  1  0.38117683  0.88134286  0.38679387  1
  O  O182  1  0.38065439  0.88781958  0.87892266  1
  O  O183  1  0.87029046  0.38534239  0.38533833  1
  O  O184  1  0.88009592  0.38864557  0.87599741  1
  O  O185  1  0.88007587  0.87972790  0.38003379  1
  O  O186  1  0.88406151  0.87421242  0.88015809  1
  O  O187  1  0.25474438  0.00703993  0.36921683  1
  O  O188  1  0.25232962  0.00842278  0.86970304  1
  O  O189  1  0.26036425  0.51123455  0.38173338  1
  O  O190  1  0.26304822  0.50279970  0.86862432  1
  O  O191  1  0.75662275  0.00760142  0.36675870  1
  O  O192  1  0.76212137  0.01972424  0.88690358  1
  O  O193  1  0.76310589  0.51200957  0.37479706  1
  O  O194  1  0.75911276  0.49669013  0.86464636  1
  O  O195  1  0.23883340  0.50278048  0.12518953  1
  O  O196  1  0.25666804  0.50767036  0.64265925  1
  O  O197  1  0.23795282  0.99778761  0.13197678  1
  O  O198  1  0.25171749  1.00672159  0.63768222  1
  O  O199  1  0.73980481  0.49131567  0.12446183  1
  O  O200  1  0.74597350  0.49555405  0.63731365  1
  O  O201  1  0.75152019  0.99364650  0.13088502  1
  O  O202  1  0.75541476  0.98749026  0.62076554  1
  O  O203  1  0.01054053  0.36120965  0.24263547  1
  O  O204  1  0.00741041  0.36603487  0.75183515  1
  O  O205  1  -0.00615217  0.86218569  0.25802216  1
  O  O206  1  0.00492603  0.86155908  0.75598290  1
  O  O207  1  0.50953821  0.37186213  0.26054903  1
  O  O208  1  0.50718990  0.36916396  0.74973819  1
  O  O209  1  0.50978003  0.88448639  0.25939041  1
  O  O210  1  0.50170656  0.86373766  0.75578218  1
  O  O211  1  0.49371406  0.12349675  0.24515893  1
  O  O212  1  0.49709219  0.13213184  0.74550555  1
  O  O213  1  0.51052133  0.62528501  0.25282268  1
  O  O214  1  0.50322880  0.63831785  0.74416377  1
  O  O215  1  1.00157511  0.14021552  0.24261321  1
  O  O216  1  0.99376743  0.13110891  0.74089846  1
  O  O217  1  0.99270985  0.63438896  0.25010116  1
  O  O218  1  0.99691389  0.63522217  0.75226197  1
  O  O219  1  0.36863089  0.25756375  0.00521683  1
  O  O220  1  0.37168129  0.25946017  0.51073419  1
  O  O221  1  0.35414061  0.75532893  -0.00827735  1
  O  O222  1  0.36682264  0.75834458  0.50806417  1
  O  O223  1  0.86580111  0.25039744  -0.00322507  1
  O  O224  1  0.87296630  0.25789179  0.50607764  1
  O  O225  1  0.87377563  0.75090769  0.00001434  1
  O  O226  1  0.87429370  0.75615888  0.50692501  1
  O  O227  1  0.12566250  0.23457110  0.50887460  1
  O  O228  1  0.13862401  0.25892619  1.00370866  1
  O  O229  1  0.12946063  0.74621948  0.49326900  1
  O  O230  1  0.13050669  0.74232991  0.99335479  1
  O  O231  1  0.63141364  0.24759333  0.50823832  1
  O  O232  1  0.62867591  0.23962204  0.99952190  1
  O  O233  1  0.62720246  0.73619794  0.50399490  1
  O  O234  1  0.63891664  0.73677059  0.99781873  1
  O  O235  1  0.48845186  0.24057619  0.12576536  1
  O  O236  1  0.49188081  0.24454317  0.63692914  1
  O  O237  1  0.48782233  0.73978492  0.07944043  1
  O  O238  1  0.49392088  0.74643810  0.63440762  1
  O  O239  1  1.00550841  0.23681520  0.12895561  1
  O  O240  1  0.98896234  0.24195007  0.63281765  1
  O  O241  1  1.00021701  0.74494231  0.13306411  1
  O  O242  1  0.98569062  0.75465394  0.63291076  1
  O  O243  1  0.00023192  0.24822872  0.36186189  1
  O  O244  1  -0.00272693  0.24960115  0.85980543  1
  O  O245  1  0.00620239  0.75861741  0.36942323  1
  O  O246  1  0.01123918  0.75500177  0.86671864  1
  O  O247  1  0.49367240  0.26256182  0.37569615  1
  O  O248  1  0.49992312  0.25049050  0.86238886  1
  O  O249  1  0.50020570  0.76422630  0.38439117  1
  O  O250  1  0.50321750  0.75272682  0.87166928  1
  O  O251  1  0.24136389  0.12878080  0.49256604  1
  O  O252  1  0.24944328  0.13103831  0.98610494  1
  O  O253  1  0.24562203  0.63890759  0.49156922  1
  O  O254  1  0.23880383  0.63237257  1.00856552  1
  O  O255  1  0.74805049  0.12532240  0.48325768  1
  O  O256  1  0.74379516  0.13166031  0.99878274  1
  O  O257  1  0.74279341  0.62565159  0.49281559  1
  O  O258  1  0.74698106  0.63047694  1.00076175  1
  O  O259  1  0.25917414  0.36702973  -0.00506595  1
  O  O260  1  0.26027805  0.37401040  0.49796487  1
  O  O261  1  0.24537213  0.86854641  0.00845831  1
  O  O262  1  0.25678748  0.86529623  0.49531509  1
  O  O263  1  0.75144064  0.36376417  0.00661053  1
  O  O264  1  0.76241197  0.37921975  0.50843438  1
  O  O265  1  0.76257696  0.86639459  0.00164498  1
  O  O266  1  0.76061591  0.87356063  0.50448908  1
  O  O267  1  0.11913289  0.49156803  0.23945707  1
  O  O268  1  0.14192518  0.49720527  0.74872491  1
  O  O269  1  0.13385326  1.00360014  0.24863135  1
  O  O270  1  0.13168793  0.98956930  0.74473728  1
  O  O271  1  0.63109599  0.48575883  0.24017986  1
  O  O272  1  0.63178996  0.49795599  0.74975605  1
  O  O273  1  0.63861864  0.99362123  0.24670492  1
  O  O274  1  0.62685135  0.97680021  0.79845377  1
  O  O275  1  0.36469601  0.00728364  0.25616304  1
  O  O276  1  0.36691055  -0.00011380  0.75851268  1
  O  O277  1  0.38055145  0.49956575  0.26363669  1
  O  O278  1  0.36559624  0.50028763  0.76473520  1
  O  O279  1  0.86453705  -0.00293912  0.25876512  1
  O  O280  1  0.87884202  0.01266704  0.74915683  1
  O  O281  1  0.88006623  0.50583632  0.25799206  1
  O  O282  1  0.87067853  0.50557066  0.75395801  1
  O  O283  1  0.12365809  0.38291862  0.35982156  1
  O  O284  1  0.12280262  0.38168010  0.85525843  1
  O  O285  1  0.11481654  0.86751490  0.38236132  1
  O  O286  1  0.11859874  0.86699406  0.86454741  1
  O  O287  1  0.61823420  0.38318460  0.36873473  1
  O  O288  1  0.62286856  0.37391502  0.86250864  1
  O  O289  1  0.61674212  0.87994612  0.36533974  1
  O  O290  1  0.61451377  0.85215893  0.89354976  1
  O  O291  1  0.37909810  0.12936831  0.13097073  1
  O  O292  1  0.38610216  0.13493957  0.62793846  1
  O  O293  1  0.38539982  0.62926498  0.13369952  1
  O  O294  1  0.38720754  0.63744394  0.61836132  1
  O  O295  1  0.89465139  0.11442488  0.12873136  1
  O  O296  1  0.87818927  0.13079480  0.62705430  1
  O  O297  1  0.88330142  0.62755290  0.13276422  1
  O  O298  1  0.87233500  0.63115660  0.63684152  1
  O  O299  1  0.26206780  0.23864079  0.11484470  1
  O  O300  1  0.26296223  0.24265924  0.62740262  1
  O  O301  1  0.24369581  0.76044459  0.11809072  1
  O  O302  1  0.25936278  0.74808453  0.61749381  1
  O  O303  1  0.74829909  0.25634125  0.11580263  1
  O  O304  1  0.76325623  0.25668678  0.62641603  1
  O  O305  1  0.76359245  0.75736879  0.10866557  1
  O  O306  1  0.76304433  0.75592888  0.62247782  1
  O  O307  1  0.25498517  0.23914327  0.37813358  1
  O  O308  1  0.25313505  0.23422044  0.88105865  1
  O  O309  1  0.24162551  0.74809817  0.38213225  1
  O  O310  1  0.23583798  0.75570393  0.88078154  1
  O  O311  1  0.75689014  0.23534107  0.37145996  1
  O  O312  1  0.74941132  0.24224957  0.88424412  1
  O  O313  1  0.75648191  0.73515057  0.37640952  1
  O  O314  1  0.74516173  0.75274889  0.88468389  1
  O  O315  1  0.00121638  0.12784772  0.01313926  1
  O  O316  1  0.00791661  0.12773945  0.50552514  1
  O  O317  1  0.01297929  0.61917913  0.00600036  1
  O  O318  1  0.01033786  0.61806507  0.49579081  1
  O  O319  1  0.50448218  0.12021821  0.00404197  1
  O  O320  1  0.49987980  0.11654636  0.50765692  1
  O  O321  1  0.51339708  0.60377540  -0.00260604  1
  O  O322  1  0.50641566  0.62438044  0.50846566  1
  O  O323  1  0.49080498  0.37729395  0.49667951  1
  O  O324  1  0.49443978  0.38223567  0.99820162  1
  O  O325  1  0.49434693  0.88180318  0.49621663  1
  O  O326  1  0.49829646  0.89227106  0.99605645  1
  O  O327  1  0.98971670  0.38219707  0.50611479  1
  O  O328  1  0.99959077  0.38315895  0.99833446  1
  O  O329  1  0.98702239  0.87216763  0.48988329  1
  O  O330  1  0.99250640  0.86373686  0.98791635  1
  O  O331  1  0.49098568  0.48634727  0.38211023  1
  O  O332  1  0.48807435  0.49602840  0.88002648  1
  O  O333  1  0.49251076  0.99228139  0.38360164  1
  O  O334  1  0.48710948  1.00182570  0.88416021  1
  O  O335  1  0.98893273  0.50538413  0.38662162  1
  O  O336  1  0.99712940  0.50061140  0.88708235  1
  O  O337  1  0.99257814  0.98966130  0.36417226  1
  O  O338  1  1.00034979  0.98434477  0.86838839  1
  O  O339  1  0.01451503  0.00611871  0.13097651  1
  O  O340  1  -0.00205179  0.01058662  0.62791228  1
  O  O341  1  0.00564763  0.50467334  0.11464612  1
  O  O342  1  0.00031074  0.50255526  0.61410435  1
  O  O343  1  0.49803609  0.00759021  0.11717820  1
  O  O344  1  0.49390774  0.00766398  0.61713197  1
  O  O345  1  0.51347495  0.49362722  0.11785878  1
  O  O346  1  0.50312708  0.51203023  0.62936068  1
  O  O347  1  0.23583215  0.37026100  0.25118417  1
  O  O348  1  0.24225046  0.37874914  0.75256048  1
  O  O349  1  0.25087438  0.88638553  0.24342161  1
  O  O350  1  0.23995624  0.88408290  0.75531478  1
  O  O351  1  0.74575430  0.37457960  0.24426105  1
  O  O352  1  0.74394505  0.38145990  0.74648513  1
  O  O353  1  0.74634177  0.88123615  0.24269690  1
  O  O354  1  0.75365483  0.87323020  0.73302899  1
  O  O355  1  0.25148761  0.12021869  0.25821367  1
  O  O356  1  0.24930886  0.11724194  0.76121149  1
  O  O357  1  0.25007516  0.62971502  0.26561110  1
  O  O358  1  0.25020510  0.61787649  0.75515586  1
  O  O359  1  0.75357386  0.11843936  0.25550739  1
  O  O360  1  0.75835583  0.13272500  0.75781238  1
  O  O361  1  0.76703673  0.62016231  0.25639605  1
  O  O362  1  0.75869687  0.61693903  0.74773862  1
  O  O363  1  0.36731544  0.12026696  0.37226239  1
  O  O364  1  0.36727966  0.11429921  0.87288154  1
  O  O365  1  0.36891387  0.61632056  0.37653208  1
  O  O366  1  0.38179631  0.61337806  0.89003222  1
  O  O367  1  0.86777997  0.11702189  0.36962624  1
  O  O368  1  0.87110858  0.12526467  0.86384644  1
  O  O369  1  0.87224680  0.61996490  0.36967728  1
  O  O370  1  0.88210363  0.61255724  0.86204587  1
  O  O371  1  0.12591443  0.38890698  0.13220089  1
  O  O372  1  0.12141282  0.38077299  0.64262188  1
  O  O373  1  0.13233006  0.88877895  0.12470678  1
  O  O374  1  0.11844488  0.87370079  0.63571138  1
  O  O375  1  0.63425717  0.37714646  0.13119794  1
  O  O376  1  0.62809048  0.38455774  0.63607951  1
  O  O377  1  0.63271748  0.87945545  0.12856224  1
  O  O378  1  0.64283640  0.87143118  0.62224413  1
  O  O379  1  0.11802382  0.26228657  0.24629097  1
  O  O380  1  0.11965365  0.26034771  0.74459282  1
  O  O381  1  0.11749203  0.74519221  0.26276868  1
  O  O382  1  0.12052068  0.75216686  0.75383833  1
  O  O383  1  0.62281887  0.26043233  0.24637434  1
  O  O384  1  0.61788062  0.26034682  0.74887737  1
  O  O385  1  0.63229910  0.76646284  0.24372661  1
  O  O386  1  0.61885522  0.75376775  0.76000584  1
  O  O387  1  0.37586937  0.24348325  0.24167165  1
  O  O388  1  0.38131288  0.25163994  0.74552995  1
  O  O389  1  0.38138298  0.75021075  0.25142844  1
  O  O390  1  0.38030293  0.75643351  0.74116477  1
  O  O391  1  0.89210788  0.25182480  0.24761546  1
  O  O392  1  0.88206907  0.24367066  0.74236869  1
  O  O393  1  0.88212062  0.74286946  0.24355837  1
  O  O394  1  0.88137701  0.74174357  0.74599747  1
  O  O395  1  0.37644442  0.49345329  0.49493717  1
  O  O396  1  0.38019133  0.49413411  0.99582688  1
  O  O397  1  0.37921726  0.99379437  0.49665251  1
  O  O398  1  0.37867966  1.00234114  0.99470884  1
  O  O399  1  0.88200894  0.49582234  0.49643241  1
  O  O400  1  0.88477751  0.50254148  0.99247130  1
  O  O401  1  0.87322408  0.99289420  0.48438433  1
  O  O402  1  0.87814427  0.98575648  0.99924245  1
  O  O403  1  0.12519233  -0.00130061  0.01032623  1
  O  O404  1  0.12883334  0.01702133  0.50355224  1
  O  O405  1  0.12321616  0.50345260  0.00741813  1
  O  O406  1  0.11857845  0.50670096  0.50247873  1
  O  O407  1  0.61573677  0.01339751  -0.00330415  1
  O  O408  1  0.61303545  0.00333256  0.49542651  1
  O  O409  1  0.62201555  0.49854672  0.00261508  1
  O  O410  1  0.62401484  0.51203767  0.50976095  1
  O  O411  1  0.37948171  0.36520069  0.11634253  1
  O  O412  1  0.38017485  0.36726865  0.61735789  1
  O  O413  1  0.35952762  0.87508735  0.12209362  1
  O  O414  1  0.37976803  0.86733938  0.61317523  1
  O  O415  1  0.86087955  0.38431846  0.12233453  1
  O  O416  1  0.87272614  0.36776799  0.62029816  1
  O  O417  1  0.87568069  0.86899675  0.11647956  1
  O  O418  1  0.86851300  0.86991618  0.61656852  1
  O  O419  1  0.13059035  0.12288335  0.38646261  1
  O  O420  1  0.13390102  0.12098179  0.87189209  1
  O  O421  1  0.13154686  0.63198221  0.38386116  1
  O  O422  1  0.12180137  0.63197138  0.88572069  1
  O  O423  1  0.63925967  0.12092981  0.37109629  1
  O  O424  1  0.63317957  0.13151020  0.88277223  1
  O  O425  1  0.63168374  0.62189848  0.37979635  1
  O  O426  1  0.62192887  0.63483025  0.88568488  1
