# generated using pymatgen
data_V85Zn86O256
_symmetry_space_group_name_H-M   'P 1'
_cell_length_a   16.93309457
_cell_length_b   16.93123390
_cell_length_c   16.93887196
_cell_angle_alpha   89.90026726
_cell_angle_beta   90.01869599
_cell_angle_gamma   89.94507500
_symmetry_Int_Tables_number   1
_chemical_formula_structural   V85Zn86O256
_chemical_formula_sum   'V85 Zn86 O256'
_cell_volume   4856.33399569
_cell_formula_units_Z   1
loop_
 _symmetry_equiv_pos_site_id
 _symmetry_equiv_pos_as_xyz
  1  'x, y, z'
loop_
 _atom_site_type_symbol
 _atom_site_label
 _atom_site_symmetry_multiplicity
 _atom_site_fract_x
 _atom_site_fract_y
 _atom_site_fract_z
 _atom_site_occupancy
  V  V0  1  0.00651205  -0.00703507  0.50132703  1
  V  V1  1  0.13118122  0.37344481  0.24587018  1
  V  V2  1  0.37194543  0.25827464  0.12645198  1
  V  V3  1  0.49750480  0.74731301  0.23536782  1
  V  V4  1  -0.01837620  0.63209639  0.62248118  1
  V  V5  1  0.51302204  0.37962604  0.37126624  1
  V  V6  1  0.62422999  0.62533577  0.50253991  1
  V  V7  1  0.37382209  -0.00017181  0.87704189  1
  V  V8  1  0.50182903  0.12724007  0.12342204  1
  V  V9  1  0.76473893  0.50058826  0.75323406  1
  V  V10  1  0.24825549  0.63191069  0.86601365  1
  V  V11  1  0.25298776  0.00081080  0.25024865  1
  V  V12  1  0.12621953  -0.00152399  0.12662581  1
  V  V13  1  0.36668568  0.62859985  0.24579508  1
  V  V14  1  0.00195018  -0.01046728  -0.00231379  1
  V  V15  1  0.50274540  0.37924724  0.88018062  1
  V  V16  1  0.87692573  0.61401894  0.25140105  1
  V  V17  1  0.49811831  0.74744584  0.75041110  1
  V  V18  1  -0.00178296  0.50102782  -0.00632980  1
  V  V19  1  0.75256564  0.12839942  0.86852192  1
  V  V20  1  0.62778524  0.23293057  0.37000989  1
  V  V21  1  0.87838927  0.00029807  0.87275693  1
  V  V22  1  0.61825996  0.74614758  0.37489625  1
  V  V23  1  0.12730529  0.87308460  0.25098563  1
  V  V24  1  0.87422722  0.37995385  -0.00561140  1
  V  V25  1  0.12310894  0.38121853  0.74784012  1
  V  V26  1  0.82702172  0.93265534  0.43591969  1
  V  V27  1  0.37690828  0.87702624  0.50015059  1
  V  V28  1  0.63574541  -0.00406977  0.12272006  1
  V  V29  1  0.87674280  0.38406987  0.49455861  1
  V  V30  1  0.36686830  0.50365147  0.37799545  1
  V  V31  1  -0.00351860  0.38786371  0.37587358  1
  V  V32  1  0.75487178  0.00453111  0.74447672  1
  V  V33  1  0.74666085  0.25123903  -0.00548192  1
  V  V34  1  0.37563531  0.50471380  0.86537445  1
  V  V35  1  0.12202646  0.24936829  0.37492162  1
  V  V36  1  0.75043511  0.37484199  0.62325642  1
  V  V37  1  0.12465776  0.63368912  -0.00226010  1
  V  V38  1  0.00275188  0.12085981  0.62783922  1
  V  V39  1  0.87640176  0.24809984  0.62299494  1
  V  V40  1  0.50127079  0.00068561  -0.00062397  1
  V  V41  1  0.49934836  0.24998094  0.75634868  1
  V  V42  1  0.63195875  0.74813378  0.87489850  1
  V  V43  1  0.23789680  0.87859061  0.62269319  1
  V  V44  1  0.24939395  0.37755085  0.62450958  1
  V  V45  1  0.86286165  0.87934105  0.00879092  1
  V  V46  1  0.12717968  0.11918944  0.50355518  1
  V  V47  1  0.76290319  0.61893353  0.87672726  1
  V  V48  1  0.62546025  0.12755316  -0.00656442  1
  V  V49  1  0.87390886  0.24890597  0.12601364  1
  V  V50  1  0.12294696  0.25374520  0.87432340  1
  V  V51  1  0.76209413  0.75033393  0.49751971  1
  V  V52  1  0.37492108  0.38628769  0.00276152  1
  V  V53  1  0.24857699  0.25902688  0.00341291  1
  V  V54  1  0.25083778  0.24933719  0.50154829  1
  V  V55  1  -0.00175579  0.12399686  0.12615045  1
  V  V56  1  0.11827912  0.87018011  0.76802065  1
  V  V57  1  0.00476924  0.87660055  0.37797097  1
  V  V58  1  0.37691220  0.12875877  0.25082671  1
  V  V59  1  -0.00361619  0.24795201  0.74952366  1
  V  V60  1  0.74539006  0.23885109  0.49544581  1
  V  V61  1  0.37109581  0.74869385  0.63291893  1
  V  V62  1  0.87011019  0.11842220  0.26355430  1
  V  V63  1  0.62461700  0.49914453  0.62816804  1
  V  V64  1  0.75441130  0.61723877  0.37633092  1
  V  V65  1  0.61928534  0.61421390  0.00026244  1
  V  V66  1  0.24334444  0.00069831  0.74717397  1
  V  V67  1  0.62635819  0.37120362  0.75520450  1
  V  V68  1  0.80024777  0.82481861  0.67101757  1
  V  V69  1  0.74194391  0.49580772  0.25192592  1
  V  V70  1  0.12782293  0.73606559  0.37945343  1
  V  V71  1  0.25981136  0.74831804  0.00649719  1
  V  V72  1  0.63070287  0.87181523  0.24403520  1
  V  V73  1  0.74343643  0.37459589  0.12948799  1
  V  V74  1  0.13046925  0.49666799  0.12160028  1
  V  V75  1  0.62459427  0.87660059  0.74159452  1
  V  V76  1  0.12398168  0.12680456  0.00133346  1
  V  V77  1  0.50331441  0.12560622  0.61969167  1
  V  V78  1  0.49413262  0.62249561  0.63125172  1
  V  V79  1  0.24978034  0.12718961  0.87591233  1
  V  V80  1  0.50064726  0.87476704  0.87345451  1
  V  V81  1  0.11842444  0.51217912  0.60669140  1
  V  V82  1  0.24805586  0.73784936  0.49697129  1
  V  V83  1  0.00026555  0.74800571  0.25120385  1
  V  V84  1  0.86850743  0.75227919  0.12788300  1
  Zn  Zn85  1  0.25145947  0.12566230  0.37578831  1
  Zn  Zn86  1  0.50925827  0.25581380  0.24546031  1
  Zn  Zn87  1  0.37518959  0.25176506  0.62708686  1
  Zn  Zn88  1  0.37677225  0.00095985  0.37537036  1
  Zn  Zn89  1  -0.00278680  0.24991629  0.25231776  1
  Zn  Zn90  1  -0.00639494  0.38162156  0.86921421  1
  Zn  Zn91  1  0.61491013  0.49097213  0.12569970  1
  Zn  Zn92  1  0.37414537  0.12761944  0.75023080  1
  Zn  Zn93  1  0.50031590  0.49808417  0.50128176  1
  Zn  Zn94  1  0.24976814  0.50838561  0.74427661  1
  Zn  Zn95  1  0.75446989  -0.00360089  0.25517964  1
  Zn  Zn96  1  0.37845440  0.37510819  0.49922357  1
  Zn  Zn97  1  0.49140231  0.61488526  0.11759013  1
  Zn  Zn98  1  0.49555458  0.87587756  0.37094858  1
  Zn  Zn99  1  0.38074798  0.86881019  0.00619350  1
  Zn  Zn100  1  0.00335649  0.74108946  0.75387373  1
  Zn  Zn101  1  0.24851227  0.49994833  0.24936756  1
  Zn  Zn102  1  0.74835170  0.74928753  0.00637157  1
  Zn  Zn103  1  0.25929947  0.86701457  0.13011793  1
  Zn  Zn104  1  -0.00090080  0.62312255  0.12530321  1
  Zn  Zn105  1  0.50114466  0.00842306  0.49388755  1
  Zn  Zn106  1  0.62953482  0.00504723  0.62038255  1
  Zn  Zn107  1  0.18889680  0.18862179  0.18739593  1
  Zn  Zn108  1  0.18504847  0.18878954  0.68740753  1
  Zn  Zn109  1  0.18564229  0.68380463  0.18673582  1
  Zn  Zn110  1  0.18170564  0.69258571  0.68600859  1
  Zn  Zn111  1  0.69109971  0.18306762  0.18811310  1
  Zn  Zn112  1  0.68530298  0.19054004  0.68742182  1
  Zn  Zn113  1  0.68710325  0.68294027  0.18713348  1
  Zn  Zn114  1  0.68881539  0.68164994  0.69171744  1
  Zn  Zn115  1  0.31448837  0.31612425  0.31627185  1
  Zn  Zn116  1  0.31289627  0.31601787  0.81339705  1
  Zn  Zn117  1  0.31271322  0.81038283  0.31486882  1
  Zn  Zn118  1  0.30859072  0.81448596  0.81484125  1
  Zn  Zn119  1  0.81184183  0.30927175  0.31270034  1
  Zn  Zn120  1  0.81431450  0.31195396  0.81095605  1
  Zn  Zn121  1  0.80732591  0.80198728  0.30747546  1
  Zn  Zn122  1  0.85303146  0.79103879  0.84243798  1
  Zn  Zn123  1  0.18664241  0.43523409  0.43613279  1
  Zn  Zn124  1  0.18761186  0.44225657  0.93376925  1
  Zn  Zn125  1  0.19054856  0.93495596  0.43576982  1
  Zn  Zn126  1  0.18947685  0.93565880  0.93984687  1
  Zn  Zn127  1  0.68905661  0.43704593  0.44117626  1
  Zn  Zn128  1  0.68935474  0.43742682  0.93599996  1
  Zn  Zn129  1  0.66453769  0.93674232  0.43645168  1
  Zn  Zn130  1  0.68930704  0.93830812  0.93195162  1
  Zn  Zn131  1  0.31292600  0.06432837  0.06452234  1
  Zn  Zn132  1  0.31819130  0.06358531  0.56669406  1
  Zn  Zn133  1  0.30962004  0.56317933  0.06325459  1
  Zn  Zn134  1  0.31371054  0.56123053  0.56423971  1
  Zn  Zn135  1  0.81323168  0.06576110  0.06206547  1
  Zn  Zn136  1  0.81757632  0.06636670  0.56572958  1
  Zn  Zn137  1  0.81027214  0.56236781  0.06450049  1
  Zn  Zn138  1  0.81237546  0.56188146  0.56294251  1
  Zn  Zn139  1  0.43893044  0.44067489  0.19194999  1
  Zn  Zn140  1  0.43616450  0.43487849  0.68882540  1
  Zn  Zn141  1  0.44079584  0.93689082  0.18491686  1
  Zn  Zn142  1  0.43271852  0.93887539  0.68721228  1
  Zn  Zn143  1  0.94002458  0.43614781  0.18369808  1
  Zn  Zn144  1  0.94260645  0.43858728  0.67901031  1
  Zn  Zn145  1  0.93837644  0.93725353  0.18964580  1
  Zn  Zn146  1  0.94158616  0.94176072  0.68909045  1
  Zn  Zn147  1  0.06033694  0.06245139  0.31441667  1
  Zn  Zn148  1  0.06401333  0.06165658  0.81311579  1
  Zn  Zn149  1  0.06401406  0.55989860  0.31112303  1
  Zn  Zn150  1  0.06195065  0.56540856  0.80997572  1
  Zn  Zn151  1  0.55966041  0.05840912  0.30857412  1
  Zn  Zn152  1  0.56459773  0.06383121  0.80962631  1
  Zn  Zn153  1  0.55864976  0.56371002  0.30992005  1
  Zn  Zn154  1  0.56588786  0.55953802  0.81355692  1
  Zn  Zn155  1  0.43917932  0.19278002  0.43513183  1
  Zn  Zn156  1  0.43558211  0.19164731  0.93599562  1
  Zn  Zn157  1  0.43516077  0.68540107  0.44008658  1
  Zn  Zn158  1  0.43759601  0.68436380  0.93294264  1
  Zn  Zn159  1  0.93955221  0.18982187  0.44152981  1
  Zn  Zn160  1  0.93617233  0.18588370  0.93751096  1
  Zn  Zn161  1  0.94196461  0.68034213  0.43824349  1
  Zn  Zn162  1  0.94363824  0.68979428  0.94108195  1
  Zn  Zn163  1  0.05918242  0.31487050  0.06298188  1
  Zn  Zn164  1  0.06360500  0.31546922  0.56024266  1
  Zn  Zn165  1  0.06207029  0.81112333  0.06588051  1
  Zn  Zn166  1  0.05992577  0.80435969  0.56497378  1
  Zn  Zn167  1  0.56135513  0.31208202  0.05954030  1
  Zn  Zn168  1  0.56269731  0.31009240  0.56084995  1
  Zn  Zn169  1  0.56429834  0.81159014  0.05931474  1
  Zn  Zn170  1  0.56197657  0.81033475  0.56127328  1
  O  O171  1  0.11835587  0.12050409  0.12093752  1
  O  O172  1  0.11759388  0.13092271  0.61130304  1
  O  O173  1  0.12159117  0.61630979  0.11637346  1
  O  O174  1  0.13035039  0.61222402  0.62274645  1
  O  O175  1  0.62281423  0.12018672  0.11358487  1
  O  O176  1  0.60806329  0.12617171  0.63277190  1
  O  O177  1  0.62802175  0.62548507  0.10678879  1
  O  O178  1  0.61907603  0.61874154  0.62241781  1
  O  O179  1  0.38378145  0.38724476  0.37726790  1
  O  O180  1  0.38016214  0.38379355  0.88249525  1
  O  O181  1  0.37507516  0.87560695  0.38539598  1
  O  O182  1  0.38038986  0.88298687  0.88028009  1
  O  O183  1  0.88936398  0.36703621  0.37854292  1
  O  O184  1  0.87455689  0.37049811  0.89007435  1
  O  O185  1  0.88176479  0.87184779  0.37191967  1
  O  O186  1  0.86891225  0.89429495  0.89157099  1
  O  O187  1  0.25265888  0.00334758  0.36192984  1
  O  O188  1  0.25647089  0.00578889  0.87289750  1
  O  O189  1  0.26357216  0.49535704  0.37409243  1
  O  O190  1  0.25639602  0.51257416  0.87143168  1
  O  O191  1  0.76107772  -0.01274122  0.38045947  1
  O  O192  1  0.75538552  0.00824153  0.86469929  1
  O  O193  1  0.74704708  0.50946745  0.36977995  1
  O  O194  1  0.74772693  0.50994745  0.86808670  1
  O  O195  1  0.23536408  0.50056742  0.12568119  1
  O  O196  1  0.24073399  0.49393665  0.62499781  1
  O  O197  1  0.24268548  1.00362612  0.13603320  1
  O  O198  1  0.25674569  0.99192365  0.63663466  1
  O  O199  1  0.74571706  0.49027508  0.13243858  1
  O  O200  1  0.74410865  0.49436978  0.63317526  1
  O  O201  1  0.73814042  1.00434256  0.12487908  1
  O  O202  1  0.75005931  1.01275402  0.63978870  1
  O  O203  1  0.00555757  0.37227064  0.26049424  1
  O  O204  1  0.00668344  0.36882735  0.74942013  1
  O  O205  1  0.00635329  0.86975962  0.25910182  1
  O  O206  1  0.01856420  0.87999789  0.74480134  1
  O  O207  1  0.49603709  0.37101391  0.26712475  1
  O  O208  1  0.50657538  0.37013821  0.75798704  1
  O  O209  1  0.50846604  0.86390105  0.24925327  1
  O  O210  1  0.50576430  0.87005445  0.75490817  1
  O  O211  1  0.49301169  0.13014519  0.24159265  1
  O  O212  1  0.49892108  0.13642702  0.74859363  1
  O  O213  1  0.49001328  0.63208342  0.24662729  1
  O  O214  1  0.50733072  0.63086355  0.73942698  1
  O  O215  1  0.99177065  0.12555562  0.24225130  1
  O  O216  1  1.01030533  0.13373095  0.73831480  1
  O  O217  1  0.99193793  0.62845621  0.25047147  1
  O  O218  1  1.00809330  0.62480889  0.73198704  1
  O  O219  1  0.36704028  0.25890247  0.00579050  1
  O  O220  1  0.36058912  0.25188680  0.49828427  1
  O  O221  1  0.36327818  0.74686588  -0.00143194  1
  O  O222  1  0.36466249  0.75477135  0.50793237  1
  O  O223  1  0.86571037  0.25388461  0.00706863  1
  O  O224  1  0.86566568  0.25674435  0.50370628  1
  O  O225  1  0.87345778  0.76084445  0.01126618  1
  O  O226  1  0.86100082  0.74614295  0.49360758  1
  O  O227  1  0.13308076  0.24425842  0.49407067  1
  O  O228  1  0.13085488  0.24909883  0.99665566  1
  O  O229  1  0.13974192  0.75489187  0.49423871  1
  O  O230  1  0.12932823  0.73811303  1.00293583  1
  O  O231  1  0.63841132  0.25252287  0.49099637  1
  O  O232  1  0.63823765  0.24270668  1.00243680  1
  O  O233  1  0.63159852  0.74604838  0.49131792  1
  O  O234  1  0.62919836  0.74550659  0.98731015  1
  O  O235  1  0.49222795  0.24539966  0.12547049  1
  O  O236  1  0.49945105  0.24427788  0.63563292  1
  O  O237  1  0.50366551  0.74381464  0.13323219  1
  O  O238  1  0.49105719  0.74330406  0.63108039  1
  O  O239  1  0.98764022  0.24488493  0.12506181  1
  O  O240  1  0.99578642  0.24483810  0.62837251  1
  O  O241  1  0.99100834  0.74758594  0.13455263  1
  O  O242  1  0.99873849  0.73858142  0.63330701  1
  O  O243  1  0.01263758  0.25379457  0.37537016  1
  O  O244  1  0.00398350  0.25022409  0.86591883  1
  O  O245  1  0.00712546  0.75843097  0.37340930  1
  O  O246  1  -0.03775692  0.75723198  0.85686090  1
  O  O247  1  0.51535976  0.25855244  0.37547064  1
  O  O248  1  0.49634622  0.26070717  0.86444873  1
  O  O249  1  0.50980251  0.74526064  0.36929735  1
  O  O250  1  0.50854545  0.75358242  0.86831164  1
  O  O251  1  0.24415964  0.13018571  0.50021024  1
  O  O252  1  0.24398794  0.13562961  0.99599234  1
  O  O253  1  0.25486502  0.63969066  0.50206338  1
  O  O254  1  0.24454607  0.63365540  0.99391002  1
  O  O255  1  0.75554611  0.14034119  0.50200547  1
  O  O256  1  0.74457952  0.13227795  0.99232177  1
  O  O257  1  0.74534772  0.63080539  0.49415771  1
  O  O258  1  0.74052348  0.62442361  0.99058997  1
  O  O259  1  0.25698511  0.36538837  -0.00663246  1
  O  O260  1  0.24766748  0.36696744  0.50966365  1
  O  O261  1  0.24849400  0.85611562  -0.00202669  1
  O  O262  1  0.25900981  0.87171697  0.50751569  1
  O  O263  1  0.75500935  0.36887037  0.00527464  1
  O  O264  1  0.75667871  0.36620129  0.50581429  1
  O  O265  1  0.75927123  0.87539376  0.00128408  1
  O  O266  1  0.75941024  0.87205207  0.48663211  1
  O  O267  1  0.12621758  0.49224825  0.24154887  1
  O  O268  1  0.12749860  0.48861908  0.74526485  1
  O  O269  1  0.13205008  0.99575940  0.24701149  1
  O  O270  1  0.13716532  0.99141879  0.75629766  1
  O  O271  1  0.63873021  0.50670043  0.24719791  1
  O  O272  1  0.63216407  0.48906618  0.74506983  1
  O  O273  1  0.62855831  0.99070554  0.24140838  1
  O  O274  1  0.63454862  0.99146629  0.74961442  1
  O  O275  1  0.36875002  0.01105691  0.24785765  1
  O  O276  1  0.36359814  -0.00077226  0.76308781  1
  O  O277  1  0.37046703  0.50934586  0.26010183  1
  O  O278  1  0.36826050  0.49479018  0.76137789  1
  O  O279  1  0.87427053  0.01304335  0.24715484  1
  O  O280  1  0.86841233  -0.00256599  0.76015896  1
  O  O281  1  0.86740513  0.50994194  0.24203056  1
  O  O282  1  0.86329507  0.48648266  0.74720097  1
  O  O283  1  0.11461462  0.36932068  0.36983788  1
  O  O284  1  0.12330282  0.37041026  0.86506978  1
  O  O285  1  0.11973984  0.86692964  0.36956643  1
  O  O286  1  0.12370343  0.87656392  0.86707425  1
  O  O287  1  0.61521679  0.37370864  0.37677014  1
  O  O288  1  0.61523123  0.38054940  0.86863827  1
  O  O289  1  0.61881601  0.86148180  0.36388786  1
  O  O290  1  0.62323412  0.86701513  0.86508093  1
  O  O291  1  0.37949723  0.13569589  0.13229392  1
  O  O292  1  0.38545945  0.13177379  0.63227609  1
  O  O293  1  0.37320628  0.62072560  0.14102600  1
  O  O294  1  0.38253489  0.63346837  0.62427482  1
  O  O295  1  0.87999386  0.13268795  0.12899131  1
  O  O296  1  0.88750307  0.13994249  0.62054046  1
  O  O297  1  0.87682058  0.63182144  0.13277661  1
  O  O298  1  0.88188794  0.62161307  0.62849997  1
  O  O299  1  0.25859523  0.24687622  0.11457930  1
  O  O300  1  0.24833457  0.25784409  0.61766487  1
  O  O301  1  0.24671958  0.74714342  0.11035220  1
  O  O302  1  0.25445568  0.75662516  0.61674691  1
  O  O303  1  0.75839952  0.25334522  0.11891176  1
  O  O304  1  0.75693890  0.25378382  0.61737022  1
  O  O305  1  0.76340555  0.74580304  0.12675046  1
  O  O306  1  0.74163547  0.75636565  0.61413479  1
  O  O307  1  0.23846794  0.25115669  0.38256990  1
  O  O308  1  0.24362897  0.24687687  0.88126475  1
  O  O309  1  0.24320620  0.75319618  0.38918644  1
  O  O310  1  0.25421130  0.73736875  0.88485621  1
  O  O311  1  0.73876938  0.25362981  0.38476568  1
  O  O312  1  0.75588491  0.24175339  0.88257836  1
  O  O313  1  0.73887265  0.73839591  0.37952801  1
  O  O314  1  0.74757376  0.73733481  0.87689641  1
  O  O315  1  0.00513249  0.11895980  0.00846444  1
  O  O316  1  0.00738634  0.11542589  0.50446984  1
  O  O317  1  0.00801306  0.61918227  0.00168900  1
  O  O318  1  -0.00120270  0.62880786  0.52028147  1
  O  O319  1  0.50826491  0.12341283  0.00107981  1
  O  O320  1  0.49388655  0.13068193  0.51628647  1
  O  O321  1  0.51535583  0.63048902  -0.00154851  1
  O  O322  1  0.50608301  0.62533231  0.51382640  1
  O  O323  1  0.49865334  0.37529451  0.48798065  1
  O  O324  1  0.49003241  0.36824296  0.98789321  1
  O  O325  1  0.48428189  0.86828415  0.50029518  1
  O  O326  1  0.50212184  0.88236843  0.99058137  1
  O  O327  1  0.99319722  0.36940743  0.48519571  1
  O  O328  1  0.99087530  0.38187256  0.99724100  1
  O  O329  1  1.00638123  0.88429178  0.49627927  1
  O  O330  1  0.99364179  0.88684235  1.00621791  1
  O  O331  1  0.49563568  0.49085991  0.37628015  1
  O  O332  1  0.49034445  0.49169798  0.87054676  1
  O  O333  1  0.49495463  0.99492892  0.37546039  1
  O  O334  1  0.49306724  0.99644296  0.87757486  1
  O  O335  1  1.00081100  0.48648723  0.37402980  1
  O  O336  1  1.00555172  0.49969984  0.88863503  1
  O  O337  1  1.00393279  0.98539010  0.38259306  1
  O  O338  1  0.99164923  1.00999968  0.88658369  1
  O  O339  1  0.00721801  0.00505559  0.11890398  1
  O  O340  1  -0.00342069  0.01276317  0.61620072  1
  O  O341  1  0.01003929  0.50013120  0.11361979  1
  O  O342  1  0.01270121  0.50972658  0.62395937  1
  O  O343  1  0.51061896  0.00906138  0.11739542  1
  O  O344  1  0.49690449  0.01793280  0.63248129  1
  O  O345  1  0.50302803  0.50127321  0.12546432  1
  O  O346  1  0.50405997  0.50628913  0.62645556  1
  O  O347  1  0.23475085  0.37546460  0.25572348  1
  O  O348  1  0.24130459  0.37314205  0.73765807  1
  O  O349  1  0.24575279  0.88218919  0.25020351  1
  O  O350  1  0.24027969  0.88126297  0.74529416  1
  O  O351  1  0.75874162  0.38348301  0.24198647  1
  O  O352  1  0.74334696  0.37746896  0.74509030  1
  O  O353  1  0.73565086  0.87379760  0.25251070  1
  O  O354  1  0.74408073  0.88378592  0.74229940  1
  O  O355  1  0.25799848  0.11923889  0.25112322  1
  O  O356  1  0.24763248  0.11821844  0.75592478  1
  O  O357  1  0.26269972  0.62540057  0.25205656  1
  O  O358  1  0.24486843  0.62909786  0.76266087  1
  O  O359  1  0.76524813  0.11976996  0.25026788  1
  O  O360  1  0.74497339  0.12262903  0.76140189  1
  O  O361  1  0.75614610  0.61791314  0.25797601  1
  O  O362  1  0.74707276  0.61472555  0.76528963  1
  O  O363  1  0.37456823  0.12916608  0.36136007  1
  O  O364  1  0.36774050  0.11923845  0.87277831  1
  O  O365  1  0.38281791  0.61009314  0.36717412  1
  O  O366  1  0.36244527  0.61615910  0.87932098  1
  O  O367  1  0.88280209  0.12917364  0.36146902  1
  O  O368  1  0.86358389  0.11333880  0.88308181  1
  O  O369  1  0.86544616  0.62881924  0.36567182  1
  O  O370  1  0.86072706  0.62145470  0.88654405  1
  O  O371  1  0.11822436  0.38123403  0.13480118  1
  O  O372  1  0.12845681  0.38500535  0.62880579  1
  O  O373  1  0.12952175  0.88113392  0.13313603  1
  O  O374  1  0.13667434  0.87285418  0.62621123  1
  O  O375  1  0.63933795  0.37084443  0.12074134  1
  O  O376  1  0.62960678  0.37982758  0.63151026  1
  O  O377  1  0.62042262  0.88351303  0.13053455  1
  O  O378  1  0.61851448  0.87422228  0.63860048  1
  O  O379  1  0.12225273  0.25468148  0.25705614  1
  O  O380  1  0.11521798  0.26083806  0.75132210  1
  O  O381  1  0.12098544  0.75328054  0.25685331  1
  O  O382  1  0.12554903  0.76599995  0.75262458  1
  O  O383  1  0.62933674  0.24572136  0.26460096  1
  O  O384  1  0.61863304  0.26444974  0.74865935  1
  O  O385  1  0.61772389  0.75108667  0.25412331  1
  O  O386  1  0.62347448  0.75558074  0.75948701  1
  O  O387  1  0.37349971  0.24624901  0.24186181  1
  O  O388  1  0.38462352  0.25213438  0.74956963  1
  O  O389  1  0.38261739  0.73645998  0.25849875  1
  O  O390  1  0.37694946  0.75637464  0.73908990  1
  O  O391  1  0.87497756  0.23935052  0.24216958  1
  O  O392  1  0.88838225  0.25560991  0.74049207  1
  O  O393  1  0.88045804  0.73959900  0.24553842  1
  O  O394  1  0.85217601  0.76351880  0.73009943  1
  O  O395  1  0.37822610  0.50032641  0.48934930  1
  O  O396  1  0.36642443  0.48921836  0.99296681  1
  O  O397  1  0.37878459  0.99205834  0.49876418  1
  O  O398  1  0.38023383  1.00508237  0.98879370  1
  O  O399  1  0.86706524  0.48346443  0.50074491  1
  O  O400  1  0.88359127  0.49068930  1.00895978  1
  O  O401  1  0.88212364  0.99800272  0.49567098  1
  O  O402  1  0.88258928  0.99578689  1.00039435  1
  O  O403  1  0.11957196  0.00437946  0.00511350  1
  O  O404  1  0.11954174  0.00781117  0.49539864  1
  O  O405  1  0.12002605  0.50631383  0.00493703  1
  O  O406  1  0.12560642  0.49895591  0.50871564  1
  O  O407  1  0.62191153  0.00599319  0.00367995  1
  O  O408  1  0.61233211  -0.00512071  0.51027761  1
  O  O409  1  0.62677417  0.51177972  -0.00074732  1
  O  O410  1  0.62473652  0.50663780  0.51075634  1
  O  O411  1  0.37876495  0.36571435  0.11849147  1
  O  O412  1  0.36425271  0.37430478  0.62073232  1
  O  O413  1  0.37052052  0.88421650  0.11724424  1
  O  O414  1  0.36650115  0.86711859  0.62040210  1
  O  O415  1  0.86759316  0.36609540  0.11721142  1
  O  O416  1  0.87410180  0.36468532  0.61539575  1
  O  O417  1  0.87840172  0.86736283  0.12076570  1
  O  O418  1  0.86654399  0.88149811  0.62265508  1
  O  O419  1  0.12549131  0.13234900  0.38512064  1
  O  O420  1  0.12965255  0.13316911  0.88236085  1
  O  O421  1  0.12087810  0.63669620  0.37276912  1
  O  O422  1  0.13891774  0.61969339  0.88371244  1
  O  O423  1  0.62155116  0.13458829  0.37451438  1
  O  O424  1  0.63408611  0.11931412  0.88689078  1
  O  O425  1  0.63048333  0.62859770  0.38063365  1
  O  O426  1  0.63091277  0.63031985  0.88333825  1
