# generated using pymatgen
data_V85Zn86O256
_symmetry_space_group_name_H-M   'P 1'
_cell_length_a   16.92048373
_cell_length_b   16.93639016
_cell_length_c   16.93188873
_cell_angle_alpha   90.01231157
_cell_angle_beta   89.94358674
_cell_angle_gamma   90.03946476
_symmetry_Int_Tables_number   1
_chemical_formula_structural   V85Zn86O256
_chemical_formula_sum   'V85 Zn86 O256'
_cell_volume   4852.20014762
_cell_formula_units_Z   1
loop_
 _symmetry_equiv_pos_site_id
 _symmetry_equiv_pos_as_xyz
  1  'x, y, z'
loop_
 _atom_site_type_symbol
 _atom_site_label
 _atom_site_symmetry_multiplicity
 _atom_site_fract_x
 _atom_site_fract_y
 _atom_site_fract_z
 _atom_site_occupancy
  V  V0  1  0.51166458  0.86719802  0.87767595  1
  V  V1  1  -0.00323653  0.49729168  0.50099024  1
  V  V2  1  0.87746313  0.12350574  0.24983990  1
  V  V3  1  0.26118238  0.37813458  0.11850271  1
  V  V4  1  0.12897630  0.49422295  0.62707679  1
  V  V5  1  0.25768607  0.12603105  0.37421391  1
  V  V6  1  0.75653540  0.37892418  0.62205078  1
  V  V7  1  0.12450390  0.12468823  0.50283016  1
  V  V8  1  0.11912455  0.87417209  0.75361616  1
  V  V9  1  0.25530977  0.00221964  0.25204324  1
  V  V10  1  -0.00027477  0.24967807  0.25006868  1
  V  V11  1  0.10899080  0.75285833  0.37171802  1
  V  V12  1  0.87657685  0.24499733  0.61751831  1
  V  V13  1  0.37686183  0.75041099  0.12540799  1
  V  V14  1  0.00181750  0.00312028  -0.00459587  1
  V  V15  1  0.62156458  0.11999663  0.49730879  1
  V  V16  1  0.87754009  0.75074054  0.12648595  1
  V  V17  1  0.24954315  0.62313560  0.87369418  1
  V  V18  1  0.88347920  0.50905081  0.87476622  1
  V  V19  1  0.75355146  -0.00649288  0.74223061  1
  V  V20  1  0.62080092  0.49746173  0.11706332  1
  V  V21  1  0.62225904  0.87202964  0.26002716  1
  V  V22  1  0.87917933  0.87319813  -0.00478662  1
  V  V23  1  0.37355648  0.49757951  0.37554003  1
  V  V24  1  0.38977921  0.87800137  0.49663341  1
  V  V25  1  0.75193701  0.50737106  0.74926420  1
  V  V26  1  -0.00867365  0.74716339  0.75361869  1
  V  V27  1  0.50046128  0.62150620  0.11954055  1
  V  V28  1  0.74286624  0.62712477  0.87267469  1
  V  V29  1  0.37701698  0.25284896  0.63025908  1
  V  V30  1  0.62419504  0.25675231  0.36654922  1
  V  V31  1  0.37405714  0.62538382  0.25050705  1
  V  V32  1  0.38497804  0.37530185  0.50489502  1
  V  V33  1  0.75389324  0.12514494  0.37535734  1
  V  V34  1  0.75341722  0.25608941  0.49747417  1
  V  V35  1  0.74213080  0.37272504  0.12501400  1
  V  V36  1  0.87138340  0.49701155  0.37868987  1
  V  V37  1  0.12454470  0.37665798  0.24844327  1
  V  V38  1  0.00540902  0.24462538  0.75176562  1
  V  V39  1  0.63309755  0.13124407  -0.01117430  1
  V  V40  1  0.74077565  0.62932982  0.37641161  1
  V  V41  1  0.12014490  0.75408764  0.87621290  1
  V  V42  1  0.38844619  -0.00060148  0.37640654  1
  V  V43  1  0.49781762  0.11279667  0.62166278  1
  V  V44  1  0.12487734  0.00789421  0.12192738  1
  V  V45  1  0.37575406  0.23308226  0.12404749  1
  V  V46  1  0.38264677  0.12801634  0.75322030  1
  V  V47  1  0.25467945  0.48924232  0.75026055  1
  V  V48  1  0.88028363  0.38170101  0.00113164  1
  V  V49  1  0.25017901  -0.00190542  0.75223766  1
  V  V50  1  0.74750291  0.76360412  0.49784769  1
  V  V51  1  0.50566358  0.00108339  0.00125979  1
  V  V52  1  0.11259710  0.87232642  0.25179922  1
  V  V53  1  0.11929973  0.49706045  0.11983788  1
  V  V54  1  -0.01097559  0.62221438  0.62808746  1
  V  V55  1  0.87534479  -0.00732242  0.86821859  1
  V  V56  1  0.50230718  0.74526478  0.75132570  1
  V  V57  1  0.38602037  0.49528771  0.88908659  1
  V  V58  1  -0.00360213  0.62137853  0.12505586  1
  V  V59  1  0.12424798  0.00006899  0.62552564  1
  V  V60  1  -0.00047474  -0.01305160  0.49551763  1
  V  V61  1  0.62964516  0.87011690  0.74301573  1
  V  V62  1  0.74116907  0.75098323  -0.00392916  1
  V  V63  1  0.50367086  0.75272646  0.26091595  1
  V  V64  1  0.24709757  0.12376732  0.88277163  1
  V  V65  1  0.11646130  0.62404434  -0.00071495  1
  V  V66  1  0.87186318  0.76386673  0.61870608  1
  V  V67  1  0.24750057  0.75469457  0.49769099  1
  V  V68  1  0.24964623  0.87296136  0.12683614  1
  V  V69  1  0.81798749  0.17382765  0.80726497  1
  V  V70  1  0.87710652  0.62816678  0.25206706  1
  V  V71  1  0.12706194  0.25063261  0.37560387  1
  V  V72  1  0.25075678  0.25918769  0.50586682  1
  V  V73  1  0.24747076  0.62731649  0.37438583  1
  V  V74  1  0.87174250  0.24968276  0.12282303  1
  V  V75  1  0.37799367  -0.00436315  0.87488791  1
  V  V76  1  -0.00497179  0.37396787  0.37938128  1
  V  V77  1  0.88193968  -0.01475021  0.37570884  1
  V  V78  1  0.75085432  -0.00226086  0.24725101  1
  V  V79  1  0.12278621  0.62490218  0.50059590  1
  V  V80  1  0.74202509  0.49702005  0.24999653  1
  V  V81  1  0.50751364  0.35763792  0.88207985  1
  V  V82  1  0.12536845  0.24839537  0.88433028  1
  V  V83  1  0.62333027  0.50350214  0.62146498  1
  V  V84  1  0.24930330  0.87312278  0.62481189  1
  Zn  Zn85  1  0.62757889  -0.00075175  0.12357972  1
  Zn  Zn86  1  0.74854649  0.87255387  0.12384785  1
  Zn  Zn87  1  -0.00506557  0.12095525  0.62868779  1
  Zn  Zn88  1  0.49707755  0.62533417  0.62313518  1
  Zn  Zn89  1  0.00463281  0.37978745  0.87677399  1
  Zn  Zn90  1  0.24917584  0.25071502  0.00030828  1
  Zn  Zn91  1  0.37748955  0.87274938  0.00028663  1
  Zn  Zn92  1  0.49148557  0.25013433  0.25003927  1
  Zn  Zn93  1  0.37482455  0.74769038  0.62622686  1
  Zn  Zn94  1  0.62167548  0.36623931  0.75787040  1
  Zn  Zn95  1  0.61885664  0.62622029  -0.00577187  1
  Zn  Zn96  1  0.62132988  0.63164416  0.49628603  1
  Zn  Zn97  1  0.24790226  0.50138874  0.24900904  1
  Zn  Zn98  1  0.00463780  0.12773412  0.12211977  1
  Zn  Zn99  1  0.50661803  0.12346082  0.12932784  1
  Zn  Zn100  1  0.37481487  0.62502146  0.74959748  1
  Zn  Zn101  1  0.62879529  -0.00477448  0.61778795  1
  Zn  Zn102  1  0.12707643  0.37173663  0.74990000  1
  Zn  Zn103  1  0.50030256  0.50632757  0.49993216  1
  Zn  Zn104  1  0.50668266  0.37975476  0.37007017  1
  Zn  Zn105  1  0.24804185  0.75072718  0.00013144  1
  Zn  Zn106  1  0.74902998  0.24995713  -0.01534637  1
  Zn  Zn107  1  0.19348107  0.18961431  0.18969273  1
  Zn  Zn108  1  0.19223881  0.18594972  0.69156862  1
  Zn  Zn109  1  0.18456325  0.68900179  0.18910358  1
  Zn  Zn110  1  0.18458731  0.68381871  0.68722476  1
  Zn  Zn111  1  0.68518385  0.18204054  0.18362867  1
  Zn  Zn112  1  0.68143306  0.18708218  0.68273178  1
  Zn  Zn113  1  0.68814022  0.68762945  0.18624961  1
  Zn  Zn114  1  0.68945277  0.68910085  0.68632166  1
  Zn  Zn115  1  0.31410820  0.31525314  0.30831255  1
  Zn  Zn116  1  0.31902041  0.31346702  0.81849392  1
  Zn  Zn117  1  0.31167081  0.81467866  0.31358877  1
  Zn  Zn118  1  0.31346637  0.81042825  0.81395341  1
  Zn  Zn119  1  0.81048686  0.31388358  0.30972110  1
  Zn  Zn120  1  0.81784870  0.33669891  0.80630210  1
  Zn  Zn121  1  0.81147725  0.81129271  0.31225939  1
  Zn  Zn122  1  0.81261981  0.81148252  0.81208857  1
  Zn  Zn123  1  0.18794923  0.43748397  0.43882486  1
  Zn  Zn124  1  0.18666530  0.43837955  0.93744686  1
  Zn  Zn125  1  0.18638845  0.93778596  0.43359561  1
  Zn  Zn126  1  0.18727557  0.93562997  0.93985447  1
  Zn  Zn127  1  0.68782130  0.43817396  0.44360591  1
  Zn  Zn128  1  0.68679178  0.43452416  0.93711034  1
  Zn  Zn129  1  0.68962413  0.93845738  0.43244227  1
  Zn  Zn130  1  0.69263004  0.94150875  0.93218845  1
  Zn  Zn131  1  0.31296388  0.05719346  0.05962128  1
  Zn  Zn132  1  0.31199986  0.06122687  0.56183407  1
  Zn  Zn133  1  0.30664011  0.56517923  0.06202491  1
  Zn  Zn134  1  0.31321449  0.56408352  0.56501538  1
  Zn  Zn135  1  0.81205458  0.06416107  0.05876254  1
  Zn  Zn136  1  0.81441214  0.06261334  0.55923020  1
  Zn  Zn137  1  0.80808294  0.56272670  0.05926569  1
  Zn  Zn138  1  0.81106880  0.56772574  0.55902311  1
  Zn  Zn139  1  0.44221472  0.43398075  0.19370806  1
  Zn  Zn140  1  0.44029207  0.43571612  0.69466876  1
  Zn  Zn141  1  0.43881961  0.93789375  0.18995432  1
  Zn  Zn142  1  0.43912524  0.93105079  0.68828839  1
  Zn  Zn143  1  0.93345401  0.43860963  0.19039325  1
  Zn  Zn144  1  0.93821064  0.43362627  0.69138432  1
  Zn  Zn145  1  0.93622278  0.93815275  0.18270783  1
  Zn  Zn146  1  0.94074615  0.93721690  0.68679448  1
  Zn  Zn147  1  0.06575614  0.06225845  0.31223233  1
  Zn  Zn148  1  0.05984969  0.06458168  0.81498656  1
  Zn  Zn149  1  0.06006386  0.56327682  0.31032115  1
  Zn  Zn150  1  0.06438092  0.56520417  0.80846414  1
  Zn  Zn151  1  0.56513806  0.06975169  0.30723675  1
  Zn  Zn152  1  0.56561334  0.05980084  0.81163829  1
  Zn  Zn153  1  0.55919884  0.56152442  0.30797007  1
  Zn  Zn154  1  0.56429419  0.55608602  0.80889813  1
  Zn  Zn155  1  0.44046353  0.18718496  0.44082185  1
  Zn  Zn156  1  0.43571346  0.18655864  0.94583387  1
  Zn  Zn157  1  0.43506669  0.68756904  0.44097964  1
  Zn  Zn158  1  0.43460041  0.68705219  0.93752822  1
  Zn  Zn159  1  0.93854041  0.18267408  0.43842067  1
  Zn  Zn160  1  0.94345826  0.18949745  0.94431280  1
  Zn  Zn161  1  0.93180378  0.68546367  0.44064427  1
  Zn  Zn162  1  0.93507219  0.68702568  0.93804491  1
  Zn  Zn163  1  0.06076337  0.31299902  0.06098047  1
  Zn  Zn164  1  0.06056927  0.31306219  0.56330953  1
  Zn  Zn165  1  0.05855078  0.81367958  0.06456061  1
  Zn  Zn166  1  0.06175337  0.81039877  0.56528299  1
  Zn  Zn167  1  0.55807945  0.31210723  0.05524005  1
  Zn  Zn168  1  0.57766863  0.29529802  0.59184730  1
  Zn  Zn169  1  0.56380989  0.81637771  0.07037159  1
  Zn  Zn170  1  0.56464508  0.80957420  0.56600352  1
  O  O171  1  0.12826925  0.11106038  0.13072606  1
  O  O172  1  0.12711107  0.11777843  0.61868041  1
  O  O173  1  0.11676457  0.62067564  0.12031321  1
  O  O174  1  0.11404710  0.61613615  0.61943525  1
  O  O175  1  0.62641129  0.11657659  0.11195956  1
  O  O176  1  0.61521858  0.11755201  0.61560360  1
  O  O177  1  0.61664057  0.61744078  0.12471860  1
  O  O178  1  0.62789496  0.61297968  0.62423815  1
  O  O179  1  0.37020206  0.38440711  0.38365793  1
  O  O180  1  0.38435194  0.38859309  0.87642761  1
  O  O181  1  0.36955663  0.88304519  0.38849646  1
  O  O182  1  0.38256568  0.88190482  0.87756547  1
  O  O183  1  0.88368073  0.38406829  0.36838295  1
  O  O184  1  0.87941956  0.38924739  0.88391917  1
  O  O185  1  0.87822098  0.88622114  0.36834214  1
  O  O186  1  0.87626642  0.88089446  0.88230972  1
  O  O187  1  0.25421619  0.00767388  0.36845560  1
  O  O188  1  0.25697638  0.00255800  0.87169503  1
  O  O189  1  0.25706390  0.50720410  0.37492446  1
  O  O190  1  0.25390966  0.50579539  0.86902439  1
  O  O191  1  0.76147731  0.00420941  0.36456858  1
  O  O192  1  0.76557998  0.00021640  0.86219612  1
  O  O193  1  0.75474625  0.50468200  0.36922943  1
  O  O194  1  0.75688253  0.50478519  0.86717875  1
  O  O195  1  0.24032981  0.49180032  0.12619189  1
  O  O196  1  0.23982818  0.50799121  0.63677754  1
  O  O197  1  0.24545680  0.99310156  0.13158176  1
  O  O198  1  0.24394044  0.99378206  0.63214653  1
  O  O199  1  0.74546560  0.49311116  0.13176616  1
  O  O200  1  0.75298841  0.49665853  0.63005836  1
  O  O201  1  0.75712847  0.99810172  0.13888657  1
  O  O202  1  0.75404589  1.00473207  0.63813567  1
  O  O203  1  0.00448856  0.37094659  0.25912613  1
  O  O204  1  0.00021033  0.35961029  0.75493432  1
  O  O205  1  0.01423658  0.87921245  0.24507800  1
  O  O206  1  0.01290562  0.86499882  0.74516228  1
  O  O207  1  0.49720402  0.36390932  0.25887983  1
  O  O208  1  0.50438709  0.38941518  0.77570692  1
  O  O209  1  0.51335969  0.86848572  0.24585715  1
  O  O210  1  0.50706825  0.86574408  0.75813678  1
  O  O211  1  0.50644042  0.13695222  0.24202192  1
  O  O212  1  0.48808771  0.11765981  0.74424676  1
  O  O213  1  0.49354949  0.63297762  0.24056999  1
  O  O214  1  0.50276803  0.63734400  0.75265228  1
  O  O215  1  0.99651802  0.13207474  0.24751034  1
  O  O216  1  1.00266449  0.13816323  0.74631609  1
  O  O217  1  0.98520932  0.62158524  0.24307719  1
  O  O218  1  1.00481801  0.63594137  0.73974339  1
  O  O219  1  0.36622464  0.24700952  0.01714224  1
  O  O220  1  0.36772011  0.25741006  0.50457996  1
  O  O221  1  0.37090684  0.75081808  0.01376586  1
  O  O222  1  0.36452561  0.76303740  0.49886882  1
  O  O223  1  0.87101273  0.25633449  0.00764758  1
  O  O224  1  0.86884871  0.24741478  0.50554422  1
  O  O225  1  0.87023058  0.75676478  0.00522033  1
  O  O226  1  0.86730623  0.74827329  0.51129006  1
  O  O227  1  0.13219669  0.24480849  0.49800032  1
  O  O228  1  0.12460475  0.24819741  0.98885034  1
  O  O229  1  0.12879705  0.74547466  0.49293512  1
  O  O230  1  0.12248531  0.74514180  0.99281007  1
  O  O231  1  0.63576405  0.23987964  0.49744523  1
  O  O232  1  0.63039745  0.23599118  1.00316810  1
  O  O233  1  0.64287848  0.74938097  0.50711141  1
  O  O234  1  0.63834435  0.75142142  1.00560279  1
  O  O235  1  0.48324801  0.24954184  0.12020790  1
  O  O236  1  0.48048623  0.23157469  0.61435042  1
  O  O237  1  0.49160657  0.74507982  0.13301711  1
  O  O238  1  0.49704017  0.74934309  0.63693405  1
  O  O239  1  0.98890511  0.24993217  0.12947228  1
  O  O240  1  0.99277987  0.25007942  0.63218952  1
  O  O241  1  0.98730824  0.73766704  0.12054047  1
  O  O242  1  0.99056908  0.74278306  0.62829348  1
  O  O243  1  0.00555689  0.25687879  0.37240530  1
  O  O244  1  0.00865055  0.24858720  0.86963245  1
  O  O245  1  0.00991799  0.74355475  0.37927099  1
  O  O246  1  0.00613863  0.74315601  0.86495330  1
  O  O247  1  0.51703585  0.24823765  0.37878734  1
  O  O248  1  0.49066001  0.25879184  0.87627788  1
  O  O249  1  0.49233332  0.74590966  0.35947996  1
  O  O250  1  0.49565224  0.75947367  0.87055344  1
  O  O251  1  0.24082377  0.13142534  0.49471223  1
  O  O252  1  0.25136493  0.12148954  0.98597769  1
  O  O253  1  0.24369977  0.63674406  0.49556427  1
  O  O254  1  0.23510636  0.62736656  0.99130431  1
  O  O255  1  0.74753733  0.13550027  0.49319875  1
  O  O256  1  0.73949032  0.12727357  0.99640325  1
  O  O257  1  0.74865907  0.63393705  0.48921897  1
  O  O258  1  0.74803680  0.63465591  0.99163049  1
  O  O259  1  0.24204925  0.37366348  0.01604412  1
  O  O260  1  0.25468917  0.36279783  0.49850799  1
  O  O261  1  0.25118171  0.87345146  0.01493772  1
  O  O262  1  0.24592436  0.86482119  0.50355107  1
  O  O263  1  0.76004264  0.36976062  0.00638871  1
  O  O264  1  0.75497023  0.36404251  0.50386341  1
  O  O265  1  0.76040547  0.86912746  -0.00138881  1
  O  O266  1  0.75130071  0.86279809  0.49476914  1
  O  O267  1  0.12418653  0.49622898  0.23826214  1
  O  O268  1  0.13198899  0.49703737  0.74378174  1
  O  O269  1  0.13403022  0.98983528  0.24543944  1
  O  O270  1  0.12690817  0.99118067  0.74827901  1
  O  O271  1  0.63702602  0.50392050  0.24096530  1
  O  O272  1  0.63590065  0.49623820  0.73998573  1
  O  O273  1  0.63497605  0.99142591  0.25095257  1
  O  O274  1  0.63603760  0.99203844  0.74851313  1
  O  O275  1  0.36249891  -0.00848103  0.25943877  1
  O  O276  1  0.37225473  0.00123344  0.76076498  1
  O  O277  1  0.37084229  0.50710188  0.25890597  1
  O  O278  1  0.36676286  0.50430362  0.75982332  1
  O  O279  1  0.87237735  0.00472701  0.25485721  1
  O  O280  1  0.87139850  -0.00574955  0.75628576  1
  O  O281  1  0.86531424  0.50701738  0.25901762  1
  O  O282  1  0.86766541  0.49430989  0.76460439  1
  O  O283  1  0.11934256  0.37023479  0.36900449  1
  O  O284  1  0.12305935  0.36575191  0.87383894  1
  O  O285  1  0.12824518  0.86826571  0.36013251  1
  O  O286  1  0.12910663  0.86227410  0.86929111  1
  O  O287  1  0.62774770  0.35999095  0.38289697  1
  O  O288  1  0.61682827  0.36947748  0.87535999  1
  O  O289  1  0.62660709  0.87605918  0.35975237  1
  O  O290  1  0.61537564  0.88057947  0.86631470  1
  O  O291  1  0.37241604  0.13099079  0.12529078  1
  O  O292  1  0.37754211  0.12591062  0.63358147  1
  O  O293  1  0.37812349  0.63028725  0.13036764  1
  O  O294  1  0.37694379  0.62930960  0.63105340  1
  O  O295  1  0.87528796  0.13424947  0.13091090  1
  O  O296  1  0.87609300  0.13959494  0.62263034  1
  O  O297  1  0.87946178  0.62734523  0.12968215  1
  O  O298  1  0.88609543  0.63165560  0.62166740  1
  O  O299  1  0.25556236  0.26086269  0.12312263  1
  O  O300  1  0.26199484  0.24173755  0.61572958  1
  O  O301  1  0.25627363  0.75654956  0.12612953  1
  O  O302  1  0.24698844  0.75498289  0.61645359  1
  O  O303  1  0.76024408  0.25734572  0.12928761  1
  O  O304  1  0.75861892  0.25721031  0.61590150  1
  O  O305  1  0.76181554  0.74704948  0.11463276  1
  O  O306  1  0.76472444  0.74587092  0.61492833  1
  O  O307  1  0.24706722  0.24395848  0.38169497  1
  O  O308  1  0.24484643  0.24195847  0.87689651  1
  O  O309  1  0.24118284  0.74667271  0.38144537  1
  O  O310  1  0.24053824  0.74174535  0.87688092  1
  O  O311  1  0.74528946  0.24748209  0.38098132  1
  O  O312  1  0.76609680  0.24316854  0.86198786  1
  O  O313  1  0.75905536  0.74267564  0.38877537  1
  O  O314  1  0.75855138  0.73883283  0.88305585  1
  O  O315  1  -0.00335038  0.10893767  0.00483813  1
  O  O316  1  0.01536332  0.12213211  0.50218561  1
  O  O317  1  0.00892370  0.62658572  0.00707034  1
  O  O318  1  0.00438197  0.61710016  0.50656999  1
  O  O319  1  0.50964864  0.11610759  0.00337900  1
  O  O320  1  0.51025751  0.12297660  0.50613447  1
  O  O321  1  0.50094055  0.63291365  0.01524562  1
  O  O322  1  0.50361900  0.62584080  0.50394080  1
  O  O323  1  0.48793104  0.37581994  0.49474498  1
  O  O324  1  0.50340928  0.37939529  0.98258899  1
  O  O325  1  0.48796633  0.87046976  0.50147137  1
  O  O326  1  0.50157733  0.87968851  0.99289700  1
  O  O327  1  1.00422266  0.38041443  0.48684045  1
  O  O328  1  0.98498302  0.37352485  0.99898629  1
  O  O329  1  1.01022702  0.88786542  0.49937621  1
  O  O330  1  0.98671490  0.88457628  1.00633233  1
  O  O331  1  0.48639711  0.50133283  0.37647787  1
  O  O332  1  0.48599925  0.51175455  0.88075561  1
  O  O333  1  0.48705128  1.00679050  0.36853788  1
  O  O334  1  0.49461397  0.99180291  0.88256973  1
  O  O335  1  0.99235871  0.49325667  0.37798106  1
  O  O336  1  0.98720241  0.50359295  0.87013738  1
  O  O337  1  0.99403173  1.00618944  0.38294085  1
  O  O338  1  0.98927587  1.00248585  0.88157169  1
  O  O339  1  0.00892205  0.00211657  0.11804079  1
  O  O340  1  0.00684033  0.00238342  0.61642752  1
  O  O341  1  0.00358847  0.51134866  0.12868021  1
  O  O342  1  0.00172431  0.50507289  0.62245032  1
  O  O343  1  0.49763759  -0.00238785  0.11017092  1
  O  O344  1  0.49758099  0.00898100  0.62678941  1
  O  O345  1  0.50913886  0.50829086  0.13251086  1
  O  O346  1  0.51071848  0.49982580  0.62447321  1
  O  O347  1  0.23999347  0.37781893  0.23845742  1
  O  O348  1  0.25008815  0.38612623  0.75462112  1
  O  O349  1  0.24294464  0.88049092  0.24116889  1
  O  O350  1  0.24043945  0.87837689  0.74716192  1
  O  O351  1  0.75547601  0.38585248  0.23862875  1
  O  O352  1  0.74433625  0.38798946  0.73875315  1
  O  O353  1  0.74161141  0.88010749  0.24942938  1
  O  O354  1  0.74147969  0.88049733  0.75330730  1
  O  O355  1  0.24542452  0.11486072  0.26175264  1
  O  O356  1  0.26148355  0.11541411  0.75891499  1
  O  O357  1  0.25468605  0.62498216  0.25645759  1
  O  O358  1  0.24459744  0.61851842  0.76357257  1
  O  O359  1  0.75603670  0.11655386  0.25521867  1
  O  O360  1  0.75003354  0.12132941  0.75018053  1
  O  O361  1  0.75865931  0.61907266  0.25460480  1
  O  O362  1  0.75021288  0.61563644  0.75537851  1
  O  O363  1  0.36346746  0.11750638  0.38621336  1
  O  O364  1  0.37169515  0.11631016  0.87000467  1
  O  O365  1  0.36584116  0.61903744  0.37213008  1
  O  O366  1  0.36335061  0.61927661  0.87473219  1
  O  O367  1  0.87115298  0.12143291  0.36573611  1
  O  O368  1  0.87636679  0.12023776  0.87187018  1
  O  O369  1  0.86801287  0.61785782  0.36753089  1
  O  O370  1  0.86584516  0.61314653  0.87975434  1
  O  O371  1  0.12503848  0.38254794  0.12902398  1
  O  O372  1  0.11958429  0.39017130  0.62590072  1
  O  O373  1  0.13040507  0.87915581  0.13467872  1
  O  O374  1  0.13020767  0.87914658  0.63388207  1
  O  O375  1  0.63520875  0.37907622  0.11854970  1
  O  O376  1  0.64366003  0.39316139  0.61008810  1
  O  O377  1  0.63137692  0.88162622  0.13581832  1
  O  O378  1  0.62054914  0.88048878  0.63755996  1
  O  O379  1  0.11950230  0.25581586  0.25484992  1
  O  O380  1  0.12065689  0.25181755  0.75675874  1
  O  O381  1  0.12538290  0.76305025  0.25610885  1
  O  O382  1  0.11667505  0.75500384  0.75650665  1
  O  O383  1  0.63528884  0.24891650  0.26638847  1
  O  O384  1  0.61159624  0.26936141  0.70091378  1
  O  O385  1  0.61932086  0.76215206  0.24517688  1
  O  O386  1  0.61945390  0.75855896  0.74733029  1
  O  O387  1  0.36781055  0.25326015  0.22940589  1
  O  O388  1  0.36809369  0.23945906  0.74277850  1
  O  O389  1  0.37912273  0.74724934  0.24185850  1
  O  O390  1  0.38512958  0.74904119  0.74931148  1
  O  O391  1  0.88057689  0.24504102  0.24370122  1
  O  O392  1  0.87635807  0.24274860  0.74894536  1
  O  O393  1  0.86802625  0.74057170  0.23970229  1
  O  O394  1  0.88473458  0.75503568  0.73807122  1
  O  O395  1  0.37234750  0.49144112  0.49474683  1
  O  O396  1  0.36689700  0.50443867  0.98646645  1
  O  O397  1  0.36847283  0.98555352  0.49255709  1
  O  O398  1  0.38332474  0.99733648  0.98885823  1
  O  O399  1  0.87939259  0.50449038  0.48606918  1
  O  O400  1  0.86895148  0.49488343  0.98684498  1
  O  O401  1  0.88727070  1.00656527  0.48869466  1
  O  O402  1  0.87901537  0.99253928  0.99213929  1
  O  O403  1  0.11522345  -0.00897719  0.00971717  1
  O  O404  1  0.12222062  0.00780130  0.50312427  1
  O  O405  1  0.12473580  0.50799378  0.01157331  1
  O  O406  1  0.11964415  0.50545579  0.50648063  1
  O  O407  1  0.62080419  0.00553753  -0.00146791  1
  O  O408  1  0.63775003  0.01482680  0.49869756  1
  O  O409  1  0.63457656  0.50509562  0.01445455  1
  O  O410  1  0.62337255  0.50857468  0.50517408  1
  O  O411  1  0.36121763  0.38076256  0.12502543  1
  O  O412  1  0.38099723  0.36528222  0.61991802  1
  O  O413  1  0.36754060  0.86718436  0.12604079  1
  O  O414  1  0.36729452  0.87447292  0.61249893  1
  O  O415  1  0.86738468  0.37116701  0.11968658  1
  O  O416  1  0.86456714  0.36427132  0.63124987  1
  O  O417  1  0.87191801  0.86543121  0.11872804  1
  O  O418  1  0.88093092  0.86230660  0.62133016  1
  O  O419  1  0.13473326  0.13130622  0.38243249  1
  O  O420  1  0.13634424  0.13357638  0.86735923  1
  O  O421  1  0.12857935  0.63134795  0.37818106  1
  O  O422  1  0.12733980  0.63206098  0.88240532  1
  O  O423  1  0.63465669  0.13390487  0.38092587  1
  O  O424  1  0.62104644  0.12246849  0.88923598  1
  O  O425  1  0.63814346  0.62274971  0.36941057  1
  O  O426  1  0.63831536  0.61787015  0.87682681  1
