# generated using pymatgen
data_V85Zn86O256
_symmetry_space_group_name_H-M   'P 1'
_cell_length_a   16.92740305
_cell_length_b   16.93377314
_cell_length_c   16.93158867
_cell_angle_alpha   89.98057502
_cell_angle_beta   89.99678131
_cell_angle_gamma   90.00402865
_symmetry_Int_Tables_number   1
_chemical_formula_structural   V85Zn86O256
_chemical_formula_sum   'V85 Zn86 O256'
_cell_volume   4853.35160211
_cell_formula_units_Z   1
loop_
 _symmetry_equiv_pos_site_id
 _symmetry_equiv_pos_as_xyz
  1  'x, y, z'
loop_
 _atom_site_type_symbol
 _atom_site_label
 _atom_site_symmetry_multiplicity
 _atom_site_fract_x
 _atom_site_fract_y
 _atom_site_fract_z
 _atom_site_occupancy
  V  V0  1  0.74674745  0.49387533  0.73541382  1
  V  V1  1  0.63112944  0.48979637  0.12580905  1
  V  V2  1  0.62501600  0.12499998  -0.00117262  1
  V  V3  1  0.50610280  0.24799925  0.25772034  1
  V  V4  1  0.00002059  0.87343734  0.87202062  1
  V  V5  1  0.74836782  -0.00315124  0.75035035  1
  V  V6  1  0.25345071  0.12198800  0.37960447  1
  V  V7  1  0.87523684  0.12823660  0.25814705  1
  V  V8  1  0.24191227  0.87919993  0.12542552  1
  V  V9  1  0.24191289  0.00114001  0.25136990  1
  V  V10  1  0.24170271  -0.00042224  0.74724476  1
  V  V11  1  0.37388325  0.87600600  0.00012507  1
  V  V12  1  0.50457168  0.13331080  0.62733352  1
  V  V13  1  0.88096112  0.75388397  0.61819912  1
  V  V14  1  0.37806463  0.13606187  0.75011788  1
  V  V15  1  0.35335200  0.50835725  0.86365309  1
  V  V16  1  0.74952747  0.00407952  0.25627123  1
  V  V17  1  0.86548781  0.25426489  0.62626639  1
  V  V18  1  -0.00099411  0.62655826  0.12417093  1
  V  V19  1  0.11147088  0.25260017  0.37499963  1
  V  V20  1  -0.00170158  -0.00583806  0.50340714  1
  V  V21  1  0.37639617  0.75147015  0.12934825  1
  V  V22  1  0.12377047  0.12399960  0.50458031  1
  V  V23  1  0.63211321  0.12402270  0.48612757  1
  V  V24  1  0.75765529  0.75412809  -0.00462464  1
  V  V25  1  0.37585764  0.11861832  0.25599646  1
  V  V26  1  -0.00218005  -0.00728465  0.00656200  1
  V  V27  1  0.75566528  0.87567260  0.12086473  1
  V  V28  1  0.49406154  0.49849052  -0.00429015  1
  V  V29  1  0.37447674  0.00200697  0.87258292  1
  V  V30  1  0.48683531  0.87909337  0.38008048  1
  V  V31  1  0.74475513  0.25570054  0.48816053  1
  V  V32  1  0.00552599  0.61375724  0.62046316  1
  V  V33  1  0.13831269  0.62417878  0.00242227  1
  V  V34  1  0.75205314  0.75128724  0.49920008  1
  V  V35  1  0.61779358  0.74728056  0.87114248  1
  V  V36  1  0.74770740  0.25522385  0.00460868  1
  V  V37  1  0.13356907  0.75230097  0.87707597  1
  V  V38  1  0.48484104  0.73096299  0.73086483  1
  V  V39  1  0.87175732  0.37560784  0.00361988  1
  V  V40  1  0.49809992  0.75076871  0.25304442  1
  V  V41  1  0.87297842  0.62586153  0.24881911  1
  V  V42  1  -0.00015035  0.37878235  0.87298677  1
  V  V43  1  0.24546614  0.36804337  0.13029766  1
  V  V44  1  0.12610337  0.38191957  0.74284188  1
  V  V45  1  0.12315129  0.25000873  0.87366432  1
  V  V46  1  0.87277373  -0.00677233  0.88182806  1
  V  V47  1  0.12242285  0.12076270  0.00555972  1
  V  V48  1  0.25488453  0.86660773  0.62931657  1
  V  V49  1  0.48739442  0.00147231  0.49877141  1
  V  V50  1  0.87344944  0.12565658  0.75066385  1
  V  V51  1  0.62360367  0.61973131  0.51177615  1
  V  V52  1  -0.00008932  0.50002980  -0.00065015  1
  V  V53  1  0.50143513  0.50153334  0.51329005  1
  V  V54  1  0.87665507  0.25111612  0.13004283  1
  V  V55  1  0.37433185  0.37510017  0.48832106  1
  V  V56  1  0.62431023  0.75051221  0.37705801  1
  V  V57  1  0.75077815  0.62134972  0.87192539  1
  V  V58  1  0.25043030  0.37765092  0.62386402  1
  V  V59  1  0.10868497  0.37200025  0.25640621  1
  V  V60  1  0.01129232  0.75378330  0.74579449  1
  V  V61  1  0.50072090  -0.00113200  -0.00057386  1
  V  V62  1  0.75365353  0.87451020  0.62034892  1
  V  V63  1  0.62512053  -0.00087504  0.12501268  1
  V  V64  1  0.74916558  0.12540573  0.87661534  1
  V  V65  1  0.37528851  0.24746919  0.12582678  1
  V  V66  1  0.87950885  0.62404555  0.74749066  1
  V  V67  1  0.50037819  0.62373077  0.13192139  1
  V  V68  1  0.87090257  -0.00156993  0.38292956  1
  V  V69  1  0.00075412  0.12184560  0.13227539  1
  V  V70  1  0.26390694  0.75584005  0.50067405  1
  V  V71  1  -0.00261322  0.87336296  0.37935536  1
  V  V72  1  0.61692803  0.37584520  0.73687636  1
  V  V73  1  0.62513017  0.87561164  0.25305715  1
  V  V74  1  0.26471972  0.62283863  0.36692778  1
  V  V75  1  0.12326864  0.49810432  0.13255926  1
  V  V76  1  0.88015647  0.37783638  0.49786360  1
  V  V77  1  0.50795269  0.38471224  0.36941204  1
  V  V78  1  0.74879305  0.62025618  0.37384140  1
  V  V79  1  0.24774322  0.12488031  0.87459041  1
  V  V80  1  0.00176135  0.75218575  0.24921466  1
  V  V81  1  0.62420690  0.62509977  0.00003877  1
  V  V82  1  0.61719084  0.87256311  0.74485557  1
  V  V83  1  0.13029967  0.62197701  0.49555792  1
  V  V84  1  0.61717102  0.25590666  0.87148707  1
  Zn  Zn85  1  0.12033459  0.88172847  0.24781993  1
  Zn  Zn86  1  0.18674165  0.54936908  0.66913931  1
  Zn  Zn87  1  0.50105835  0.12528944  0.12784959  1
  Zn  Zn88  1  0.37837514  0.25522489  0.62566088  1
  Zn  Zn89  1  0.63990725  0.36158478  0.25010412  1
  Zn  Zn90  1  0.24918727  0.24677293  0.00208218  1
  Zn  Zn91  1  0.87756048  0.75470238  0.11841656  1
  Zn  Zn92  1  0.01314020  0.48936570  0.49263282  1
  Zn  Zn93  1  0.12813960  0.75278569  0.37584461  1
  Zn  Zn94  1  0.37129848  0.37404752  -0.00230502  1
  Zn  Zn95  1  0.26819144  0.49508920  0.25827066  1
  Zn  Zn96  1  0.62448065  0.00217501  0.62368713  1
  Zn  Zn97  1  0.88064200  0.49265052  0.37005019  1
  Zn  Zn98  1  -0.00286878  0.25022836  0.74679077  1
  Zn  Zn99  1  0.49294540  0.37580517  0.87014437  1
  Zn  Zn100  1  0.25591673  0.74484768  -0.00055419  1
  Zn  Zn101  1  0.87348388  0.49753342  0.87220314  1
  Zn  Zn102  1  0.12164420  -0.00658266  0.62908326  1
  Zn  Zn103  1  0.75298243  0.49133812  0.24566640  1
  Zn  Zn104  1  0.25152520  0.24983294  0.49912068  1
  Zn  Zn105  1  0.49608137  0.87175320  0.86855031  1
  Zn  Zn106  1  -0.00258696  0.12329840  0.62653626  1
  Zn  Zn107  1  0.18372330  0.18637139  0.19367042  1
  Zn  Zn108  1  0.18974603  0.19350253  0.68635058  1
  Zn  Zn109  1  0.18754494  0.69026370  0.18765846  1
  Zn  Zn110  1  0.30388437  0.66449400  0.70969727  1
  Zn  Zn111  1  0.69043053  0.18489663  0.18632602  1
  Zn  Zn112  1  0.68652753  0.19129664  0.68562063  1
  Zn  Zn113  1  0.68663035  0.68806645  0.18616636  1
  Zn  Zn114  1  0.68828760  0.68893864  0.68883959  1
  Zn  Zn115  1  0.31155031  0.30662962  0.31345230  1
  Zn  Zn116  1  0.30839867  0.31976171  0.81418851  1
  Zn  Zn117  1  0.31061256  0.81164963  0.31272397  1
  Zn  Zn118  1  0.31254791  0.81750587  0.81130802  1
  Zn  Zn119  1  0.81303215  0.31307616  0.31490639  1
  Zn  Zn120  1  0.80745978  0.31380061  0.81554477  1
  Zn  Zn121  1  0.81461638  0.81332497  0.31274108  1
  Zn  Zn122  1  0.81481790  0.81069254  0.80741391  1
  Zn  Zn123  1  0.19220381  0.43985949  0.43443753  1
  Zn  Zn124  1  0.18627012  0.43452501  0.94339396  1
  Zn  Zn125  1  0.18647664  0.93681679  0.43842436  1
  Zn  Zn126  1  0.18480532  0.93828570  0.93790933  1
  Zn  Zn127  1  0.68779792  0.43706011  0.43692399  1
  Zn  Zn128  1  0.68485293  0.43757849  0.93622129  1
  Zn  Zn129  1  0.68297907  0.93810301  0.43943180  1
  Zn  Zn130  1  0.68455031  0.93311932  0.93450683  1
  Zn  Zn131  1  0.31078832  0.06235311  0.06564842  1
  Zn  Zn132  1  0.31201696  0.06363519  0.56846460  1
  Zn  Zn133  1  0.32622751  0.54877679  0.09305007  1
  Zn  Zn134  1  0.32578622  0.56419925  0.55652617  1
  Zn  Zn135  1  0.81322850  0.06422493  0.06470739  1
  Zn  Zn136  1  0.80929261  0.06446977  0.56355277  1
  Zn  Zn137  1  0.81258974  0.56521146  0.06010609  1
  Zn  Zn138  1  0.81393391  0.56492991  0.56158197  1
  Zn  Zn139  1  0.43875186  0.43519227  0.18891604  1
  Zn  Zn140  1  0.42996437  0.44327211  0.68694184  1
  Zn  Zn141  1  0.43529186  0.93793968  0.19016442  1
  Zn  Zn142  1  0.43344377  0.94159694  0.68325394  1
  Zn  Zn143  1  0.93426266  0.43749642  0.18729042  1
  Zn  Zn144  1  0.93413293  0.43456352  0.68518788  1
  Zn  Zn145  1  0.93444601  0.93912559  0.19100086  1
  Zn  Zn146  1  0.93633467  0.93758254  0.68978863  1
  Zn  Zn147  1  0.06184419  0.06429980  0.31759926  1
  Zn  Zn148  1  0.05872540  0.06243326  0.81547442  1
  Zn  Zn149  1  0.06324628  0.56192209  0.31642325  1
  Zn  Zn150  1  0.10587144  0.58916983  0.79444158  1
  Zn  Zn151  1  0.56047077  0.06108277  0.31512809  1
  Zn  Zn152  1  0.56154005  0.06280693  0.81154471  1
  Zn  Zn153  1  0.56425450  0.56188347  0.31159580  1
  Zn  Zn154  1  0.56145051  0.55815757  0.80876071  1
  Zn  Zn155  1  0.44047664  0.19025466  0.43726659  1
  Zn  Zn156  1  0.43698719  0.18730745  0.93962957  1
  Zn  Zn157  1  0.43930044  0.68415957  0.44162732  1
  Zn  Zn158  1  0.43556336  0.68266383  0.93628129  1
  Zn  Zn159  1  0.93409832  0.18526458  0.44223500  1
  Zn  Zn160  1  0.93820756  0.18656838  0.93961095  1
  Zn  Zn161  1  0.93899039  0.68253905  0.43608730  1
  Zn  Zn162  1  0.94083209  0.68494913  0.93467643  1
  Zn  Zn163  1  0.05907973  0.30843539  0.06396337  1
  Zn  Zn164  1  0.05890784  0.30594430  0.56578926  1
  Zn  Zn165  1  0.06320772  0.81286778  0.06019390  1
  Zn  Zn166  1  0.07403729  0.81059197  0.56277033  1
  Zn  Zn167  1  0.55708574  0.31288453  0.06186731  1
  Zn  Zn168  1  0.56284589  0.31170063  0.55667361  1
  Zn  Zn169  1  0.56575533  0.81301452  0.06157274  1
  Zn  Zn170  1  0.56019873  0.81349864  0.56078565  1
  O  O171  1  0.11308467  0.13065308  0.11886520  1
  O  O172  1  0.12288124  0.12698183  0.61354599  1
  O  O173  1  0.11864474  0.61675026  0.12299999  1
  O  O174  1  0.11739655  0.62286255  0.60797128  1
  O  O175  1  0.62398869  0.11640475  0.11625251  1
  O  O176  1  0.61855170  0.12315605  0.62085245  1
  O  O177  1  0.61736556  0.62191231  0.11824969  1
  O  O178  1  0.63186400  0.62855749  0.61052983  1
  O  O179  1  0.38417277  0.37154628  0.38056542  1
  O  O180  1  0.37428176  0.38775772  0.87880652  1
  O  O181  1  0.38803693  0.87400404  0.37163864  1
  O  O182  1  0.37634758  0.88319720  0.88352611  1
  O  O183  1  0.87473203  0.37254652  0.39307388  1
  O  O184  1  0.88206534  0.37281562  0.88587234  1
  O  O185  1  0.88667416  0.88430516  0.37161394  1
  O  O186  1  0.88190894  0.88326093  0.87198661  1
  O  O187  1  0.24553424  0.01214977  0.36921035  1
  O  O188  1  0.25410283  0.00526928  0.86958818  1
  O  O189  1  0.25289256  0.51618162  0.37204883  1
  O  O190  1  0.25398185  0.49735189  0.87812500  1
  O  O191  1  0.75779174  -0.00831037  0.36754655  1
  O  O192  1  0.75570963  0.00190989  0.87146893  1
  O  O193  1  0.75394160  0.51063434  0.37195399  1
  O  O194  1  0.75035399  0.51237092  0.87178576  1
  O  O195  1  0.22983395  0.48680275  0.12058857  1
  O  O196  1  0.25295592  0.48334351  0.60856518  1
  O  O197  1  0.25577406  0.99040693  0.13604548  1
  O  O198  1  0.24500652  0.99743897  0.63392238  1
  O  O199  1  0.73386808  0.50749185  0.12150477  1
  O  O200  1  0.74992810  0.50415273  0.63730818  1
  O  O201  1  0.74524996  0.99365789  0.13081398  1
  O  O202  1  0.74967796  0.99072722  0.63215007  1
  O  O203  1  0.00915095  0.37530919  0.24837016  1
  O  O204  1  0.00254042  0.37080491  0.75736473  1
  O  O205  1  -0.00074590  0.86876689  0.25581661  1
  O  O206  1  -0.00452201  0.86795693  0.76057295  1
  O  O207  1  0.50131242  0.36788755  0.25779158  1
  O  O208  1  0.51329177  0.38349702  0.75100703  1
  O  O209  1  0.50659946  0.87317766  0.25823424  1
  O  O210  1  0.50529023  0.87063632  0.74704042  1
  O  O211  1  0.49276433  0.12940793  0.25138604  1
  O  O212  1  0.49128952  0.11861549  0.73999514  1
  O  O213  1  0.50583137  0.63209902  0.23815355  1
  O  O214  1  0.50573199  0.63440415  0.74531023  1
  O  O215  1  0.99144500  0.11648530  0.24034559  1
  O  O216  1  0.98441278  0.12638021  0.75337511  1
  O  O217  1  0.99360934  0.63326705  0.24408091  1
  O  O218  1  1.00236497  0.63266123  0.73823858  1
  O  O219  1  0.37131753  0.24976531  0.01026196  1
  O  O220  1  0.37613119  0.26163419  0.50099348  1
  O  O221  1  0.37695255  0.76411971  0.00207304  1
  O  O222  1  0.36291735  0.74858215  0.49804975  1
  O  O223  1  0.86748787  0.25543019  0.00525627  1
  O  O224  1  0.86519761  0.25514485  0.50563754  1
  O  O225  1  0.86125430  0.74641725  -0.00333067  1
  O  O226  1  0.87075936  0.74491881  0.51173613  1
  O  O227  1  0.12518491  0.24260628  0.49107068  1
  O  O228  1  0.12220616  0.23710102  0.99356189  1
  O  O229  1  0.13715098  0.73858325  0.49721315  1
  O  O230  1  0.12929825  0.74241715  0.99662475  1
  O  O231  1  0.63684908  0.24033685  0.50222859  1
  O  O232  1  0.63095165  0.24659165  0.99689385  1
  O  O233  1  0.62893585  0.74268097  0.49377440  1
  O  O234  1  0.63152967  0.74630267  0.98834607  1
  O  O235  1  0.49031887  0.24738877  0.13202668  1
  O  O236  1  0.49892691  0.23736225  0.61927365  1
  O  O237  1  0.49789479  0.74724077  0.13143883  1
  O  O238  1  0.49866641  0.75071219  0.63403338  1
  O  O239  1  0.98449987  0.23750681  0.11891719  1
  O  O240  1  0.98292377  0.24229745  0.62716015  1
  O  O241  1  0.99734195  0.74757154  0.13101173  1
  O  O242  1  0.99695348  0.74849757  0.62921399  1
  O  O243  1  0.01276262  0.24342828  0.37894344  1
  O  O244  1  0.00769115  0.25906058  0.87739448  1
  O  O245  1  -0.00213425  0.75798579  0.36767441  1
  O  O246  1  0.00164994  0.75839155  0.86906433  1
  O  O247  1  0.49793001  0.26203129  0.36552479  1
  O  O248  1  0.51372397  0.25072927  0.88063492  1
  O  O249  1  0.50505260  0.75621422  0.37303146  1
  O  O250  1  0.50853915  0.74860405  0.86905130  1
  O  O251  1  0.24223699  0.12379679  0.49537169  1
  O  O252  1  0.23997610  0.12287793  0.99447763  1
  O  O253  1  0.24579751  0.63244938  0.49003925  1
  O  O254  1  0.23906086  0.62368184  1.01423957  1
  O  O255  1  0.73739946  0.13085314  0.50181997  1
  O  O256  1  0.74446008  0.13118424  0.99494230  1
  O  O257  1  0.74469607  0.62956313  0.49134734  1
  O  O258  1  0.74449512  0.63270599  0.99027668  1
  O  O259  1  0.24582924  0.36710223  0.01733208  1
  O  O260  1  0.26028752  0.37217648  0.49925035  1
  O  O261  1  0.25888672  0.87841071  0.00822527  1
  O  O262  1  0.24839198  0.86145630  0.50144740  1
  O  O263  1  0.75901579  0.36741592  -0.00476705  1
  O  O264  1  0.75345773  0.36115272  0.49746502  1
  O  O265  1  0.74291322  0.86606806  0.00740940  1
  O  O266  1  0.74322385  0.86907580  0.51310837  1
  O  O267  1  0.12612460  0.49084636  0.24516577  1
  O  O268  1  0.11539747  0.48472579  0.74573175  1
  O  O269  1  0.13708189  1.00282826  0.25198882  1
  O  O270  1  0.13721296  1.00754723  0.75225144  1
  O  O271  1  0.62598135  0.50119393  0.23298412  1
  O  O272  1  0.63664614  0.48863476  0.75277738  1
  O  O273  1  0.63220020  0.99744485  0.24699301  1
  O  O274  1  0.63011881  0.98934889  0.75004472  1
  O  O275  1  0.36742521  0.01325835  0.24700901  1
  O  O276  1  0.36552522  0.00953256  0.75614901  1
  O  O277  1  0.36323423  0.51430597  0.20044167  1
  O  O278  1  0.37068365  0.50045202  0.76405484  1
  O  O279  1  0.86738731  0.00602281  0.26072372  1
  O  O280  1  0.86842691  0.00624183  0.76082874  1
  O  O281  1  0.87310527  0.51433126  0.24738993  1
  O  O282  1  0.86377222  0.50424387  0.75059377  1
  O  O283  1  0.12978241  0.36086733  0.37157669  1
  O  O284  1  0.11873585  0.36755640  0.87064187  1
  O  O285  1  0.11096481  0.87428249  0.37142953  1
  O  O286  1  0.10963129  0.86734008  0.88434116  1
  O  O287  1  0.61213644  0.37657797  0.36956060  1
  O  O288  1  0.62226171  0.36867352  0.86766355  1
  O  O289  1  0.61896559  0.86836135  0.37044335  1
  O  O290  1  0.62271375  0.86414719  0.86250437  1
  O  O291  1  0.37531660  0.13361420  0.13294569  1
  O  O292  1  0.38258497  0.12884181  0.63454173  1
  O  O293  1  0.38843324  0.64650952  0.11083816  1
  O  O294  1  0.37162253  0.62809637  0.63160232  1
  O  O295  1  0.88040047  0.12989771  0.13498348  1
  O  O296  1  0.87305605  0.12841919  0.63659141  1
  O  O297  1  0.87965775  0.62971426  0.13093855  1
  O  O298  1  0.88359785  0.63329166  0.62790651  1
  O  O299  1  0.25444615  0.25220257  0.12828232  1
  O  O300  1  0.25509743  0.26087138  0.61919540  1
  O  O301  1  0.25991840  0.75935611  0.12483343  1
  O  O302  1  0.25243667  0.76141548  0.61391029  1
  O  O303  1  0.76061563  0.24304765  0.11207650  1
  O  O304  1  0.76054975  0.24253136  0.61320528  1
  O  O305  1  0.74881502  0.75763581  0.11342946  1
  O  O306  1  0.75926712  0.75562225  0.62103636  1
  O  O307  1  0.24157098  0.23553284  0.37655775  1
  O  O308  1  0.23702141  0.24550322  0.87776181  1
  O  O309  1  0.24985954  0.74459403  0.38406738  1
  O  O310  1  0.23703087  0.76070289  0.87944368  1
  O  O311  1  0.75483406  0.24369945  0.39035934  1
  O  O312  1  0.74127656  0.24577751  0.88703556  1
  O  O313  1  0.74549989  0.74574674  0.38049387  1
  O  O314  1  0.74240681  0.74206654  0.87566924  1
  O  O315  1  0.00322924  0.11513800  0.00827907  1
  O  O316  1  0.00542190  0.11228183  0.50091270  1
  O  O317  1  0.00319554  0.61909516  0.00866410  1
  O  O318  1  0.01256542  0.62903788  0.50583455  1
  O  O319  1  0.50462910  0.11256689  0.00154398  1
  O  O320  1  0.51049158  0.11884519  0.50371449  1
  O  O321  1  0.50718037  0.62027864  0.00849429  1
  O  O322  1  0.50854284  0.60950571  0.49334735  1
  O  O323  1  0.49940933  0.38280846  0.48739167  1
  O  O324  1  0.49597567  0.38479817  0.99674249  1
  O  O325  1  0.50547191  0.89203270  0.49533588  1
  O  O326  1  0.49502315  0.88471511  0.99835764  1
  O  O327  1  0.98489356  0.37409726  0.50664745  1
  O  O328  1  0.99411402  0.37934260  0.99451477  1
  O  O329  1  1.00403671  0.88534321  0.49489036  1
  O  O330  1  0.99959676  0.88705794  0.99639991  1
  O  O331  1  0.49883256  0.48719264  0.37083591  1
  O  O332  1  0.49982524  0.50169226  0.88796881  1
  O  O333  1  0.50388003  0.99337871  0.38885236  1
  O  O334  1  0.49410688  0.99756704  0.88291673  1
  O  O335  1  0.99121921  0.51061400  0.38316789  1
  O  O336  1  0.99778784  0.48530157  0.88013231  1
  O  O337  1  0.99222349  0.99338429  0.38227266  1
  O  O338  1  0.99173371  0.99233078  0.88151813  1
  O  O339  1  -0.00880038  0.00723813  0.11707886  1
  O  O340  1  0.00070682  0.00134480  0.61864736  1
  O  O341  1  0.00834293  0.50361904  0.12124813  1
  O  O342  1  -0.00736070  0.51161054  0.61759425  1
  O  O343  1  0.50631045  -0.00030168  0.11770044  1
  O  O344  1  0.50169194  0.00903984  0.61287972  1
  O  O345  1  0.51081697  0.50817695  0.11589986  1
  O  O346  1  0.50315142  0.49424790  0.61126215  1
  O  O347  1  0.24319173  0.37502189  0.24237437  1
  O  O348  1  0.23877126  0.37183558  0.73816193  1
  O  O349  1  0.24832990  0.88389435  0.24484136  1
  O  O350  1  0.25185448  0.88342624  0.73920857  1
  O  O351  1  0.75130975  0.37760987  0.24957225  1
  O  O352  1  0.74419372  0.38954625  0.75439254  1
  O  O353  1  0.74537764  0.88332207  0.24394071  1
  O  O354  1  0.74088505  0.87523830  0.74085355  1
  O  O355  1  0.25571113  0.11894518  0.25741206  1
  O  O356  1  0.25617425  0.12055020  0.75554796  1
  O  O357  1  0.24475448  0.62868768  0.26511105  1
  O  O358  1  0.21221947  0.62131174  0.75150422  1
  O  O359  1  0.75861186  0.11168872  0.24593632  1
  O  O360  1  0.75631454  0.11930131  0.75650148  1
  O  O361  1  0.75715455  0.62659134  0.25587398  1
  O  O362  1  0.75365380  0.61637581  0.75519412  1
  O  O363  1  0.36680437  0.13015515  0.36790120  1
  O  O364  1  0.36939732  0.12088069  0.87042353  1
  O  O365  1  0.36381764  0.62987428  0.37238035  1
  O  O366  1  0.37179539  0.60711388  0.88267420  1
  O  O367  1  0.88057642  0.11639906  0.36470218  1
  O  O368  1  0.86858208  0.11869778  0.87073291  1
  O  O369  1  0.86323516  0.62849091  0.36597494  1
  O  O370  1  0.86785889  0.62383413  0.86599183  1
  O  O371  1  0.12590110  0.37546779  0.13481399  1
  O  O372  1  0.13174128  0.36643972  0.63214524  1
  O  O373  1  0.13820460  0.87257440  0.12586537  1
  O  O374  1  0.14479189  0.88002638  0.61910411  1
  O  O375  1  0.62110454  0.38757832  0.12510614  1
  O  O376  1  0.62343609  0.36839847  0.63821118  1
  O  O377  1  0.63388352  0.88007202  0.13183328  1
  O  O378  1  0.63152440  0.87551253  0.63295473  1
  O  O379  1  0.12456268  0.25526343  0.26583121  1
  O  O380  1  0.11965102  0.25568260  0.75931319  1
  O  O381  1  0.11126337  0.75289830  0.25126582  1
  O  O382  1  0.11124217  0.75367511  0.76260947  1
  O  O383  1  0.61100405  0.24675173  0.23994402  1
  O  O384  1  0.63539483  0.26617874  0.75893045  1
  O  O385  1  0.61892012  0.75577656  0.25633205  1
  O  O386  1  0.61608585  0.75483238  0.75401169  1
  O  O387  1  0.38283761  0.23916936  0.24480815  1
  O  O388  1  0.37138191  0.23885708  0.75394510  1
  O  O389  1  0.38510353  0.75782569  0.24017371  1
  O  O390  1  0.38208966  0.74528979  0.75575662  1
  O  O391  1  0.86983031  0.23966930  0.24220463  1
  O  O392  1  0.86920151  0.24298914  0.74583762  1
  O  O393  1  0.88364353  0.74194634  0.24713928  1
  O  O394  1  0.88357374  0.74253779  0.73928323  1
  O  O395  1  0.39313718  0.49038042  0.49584082  1
  O  O396  1  0.38303360  0.49624632  1.00370574  1
  O  O397  1  0.38924710  1.01088395  0.49882425  1
  O  O398  1  0.38162460  0.99333525  0.99726898  1
  O  O399  1  0.86773234  0.48257166  0.50242943  1
  O  O400  1  0.87983629  0.49216822  0.99889639  1
  O  O401  1  0.87951423  1.00594963  0.48987814  1
  O  O402  1  0.88092335  1.00612960  0.98907615  1
  O  O403  1  0.11352087  0.01236094  -0.00432457  1
  O  O404  1  0.11547371  0.00819859  0.49975274  1
  O  O405  1  0.11684347  0.50605357  0.00729488  1
  O  O406  1  0.12841762  0.51505556  0.49465239  1
  O  O407  1  0.61787456  0.00246628  0.00188696  1
  O  O408  1  0.62184228  0.01374654  0.50241040  1
  O  O409  1  0.61938259  0.50492238  0.00815964  1
  O  O410  1  0.61312268  0.50615063  0.49297018  1
  O  O411  1  0.36494188  0.35920381  0.12698138  1
  O  O412  1  0.36941907  0.37379945  0.61571248  1
  O  O413  1  0.37086535  0.86884880  0.11812082  1
  O  O414  1  0.35433644  0.88837598  0.62021128  1
  O  O415  1  0.88108796  0.36568596  0.11305702  1
  O  O416  1  0.87246712  0.36496544  0.61530787  1
  O  O417  1  0.85975968  0.87416561  0.12907139  1
  O  O418  1  0.86578255  0.86613871  0.63097605  1
  O  O419  1  0.12928017  0.13296307  0.38475833  1
  O  O420  1  0.12566926  0.13257043  0.88190272  1
  O  O421  1  0.13139617  0.63135733  0.38392820  1
  O  O422  1  0.11292519  0.64119611  0.89307646  1
  O  O423  1  0.62391869  0.12512634  0.38754644  1
  O  O424  1  0.63029937  0.13170441  0.87872262  1
  O  O425  1  0.63402037  0.63111671  0.37776096  1
  O  O426  1  0.63161931  0.63114741  0.87677011  1
