# generated using pymatgen
data_V85Zn86O256
_symmetry_space_group_name_H-M   'P 1'
_cell_length_a   16.96145637
_cell_length_b   16.96745040
_cell_length_c   16.95956974
_cell_angle_alpha   89.97238997
_cell_angle_beta   89.96210593
_cell_angle_gamma   89.94038504
_symmetry_Int_Tables_number   1
_chemical_formula_structural   V85Zn86O256
_chemical_formula_sum   'V85 Zn86 O256'
_cell_volume   4880.83557822
_cell_formula_units_Z   1
loop_
 _symmetry_equiv_pos_site_id
 _symmetry_equiv_pos_as_xyz
  1  'x, y, z'
loop_
 _atom_site_type_symbol
 _atom_site_label
 _atom_site_symmetry_multiplicity
 _atom_site_fract_x
 _atom_site_fract_y
 _atom_site_fract_z
 _atom_site_occupancy
  V  V0  1  0.86813160  0.50895453  0.87880156  1
  V  V1  1  -0.00064888  0.00530983  0.00870962  1
  V  V2  1  0.74831947  0.12422144  0.87602354  1
  V  V3  1  0.25485465  0.38004287  0.63138100  1
  V  V4  1  0.48777094  0.00151768  0.50246138  1
  V  V5  1  0.37328400  0.00002206  0.87151286  1
  V  V6  1  0.62748641  0.49915126  0.12600646  1
  V  V7  1  0.62841588  0.62417774  -0.00321244  1
  V  V8  1  0.24720461  0.13135624  0.87182071  1
  V  V9  1  0.62579452  0.51874698  0.62108907  1
  V  V10  1  0.87545735  0.37491600  -0.00305657  1
  V  V11  1  0.61613355  0.00569520  0.62522461  1
  V  V12  1  0.87574201  0.25084171  0.62431903  1
  V  V13  1  0.00843674  0.62810331  0.12234221  1
  V  V14  1  0.75098800  0.37313752  0.12485385  1
  V  V15  1  0.00097761  0.87287423  0.87720712  1
  V  V16  1  0.11728463  -0.06299021  0.56496189  1
  V  V17  1  0.11883639  0.13841503  -0.00281771  1
  V  V18  1  0.79840418  -0.04823901  0.30390667  1
  V  V19  1  0.37234128  0.13300870  0.24650144  1
  V  V20  1  0.87449937  0.63212871  0.74071347  1
  V  V21  1  0.50205202  0.62495039  0.12556697  1
  V  V22  1  0.63033181  0.37295145  0.73660051  1
  V  V23  1  0.62126096  0.00607196  0.12508804  1
  V  V24  1  0.15483716  0.73792661  0.38415322  1
  V  V25  1  0.13873573  0.13773857  0.51282926  1
  V  V26  1  0.37724450  0.87743105  0.00084658  1
  V  V27  1  0.74508335  0.50383237  0.75457641  1
  V  V28  1  0.74776210  0.24266809  0.00193917  1
  V  V29  1  0.50219374  0.74746891  0.73867944  1
  V  V30  1  0.62595635  0.74678102  0.87395343  1
  V  V31  1  0.62001453  0.74564837  0.38629288  1
  V  V32  1  0.50039778  0.24201591  0.74232674  1
  V  V33  1  0.74980759  0.49955639  0.25013431  1
  V  V34  1  0.12201602  0.74530241  0.88414638  1
  V  V35  1  0.75694005  0.87722504  0.61410200  1
  V  V36  1  0.13554750  0.25379896  0.37523871  1
  V  V37  1  0.25010644  0.74519616  0.00160558  1
  V  V38  1  0.37718194  0.49937080  0.87387615  1
  V  V39  1  0.75077835  -0.00088374  0.74962293  1
  V  V40  1  0.74713345  0.88229357  0.12425513  1
  V  V41  1  0.37825890  0.62397661  0.74095695  1
  V  V42  1  0.12537968  0.37642913  0.24755687  1
  V  V43  1  0.87909792  0.49866317  0.37640065  1
  V  V44  1  0.87922135  0.12416859  0.74882493  1
  V  V45  1  0.00643454  0.74891680  0.26431521  1
  V  V46  1  0.13005153  0.00501539  0.11800710  1
  V  V47  1  0.00803247  0.50429268  -0.00015460  1
  V  V48  1  0.37199298  0.62522250  0.25561576  1
  V  V49  1  0.13498023  0.61159906  0.52033247  1
  V  V50  1  0.74889379  0.74598338  0.00067568  1
  V  V51  1  0.37481302  0.50231126  0.37829413  1
  V  V52  1  0.25916267  0.25130763  0.00237932  1
  V  V53  1  0.23825125  -0.00441119  0.74365323  1
  V  V54  1  0.87521437  0.62483541  0.25146864  1
  V  V55  1  0.37448737  0.24004619  0.61819561  1
  V  V56  1  0.50285799  0.49904195  -0.00039101  1
  V  V57  1  0.37275647  0.37463266  0.50066838  1
  V  V58  1  0.25074796  0.50200308  0.24993234  1
  V  V59  1  0.87414104  0.87529519  0.00357896  1
  V  V60  1  0.07510320  0.43128933  0.69137068  1
  V  V61  1  0.62611700  0.24693647  0.87633798  1
  V  V62  1  0.74482241  0.13191819  0.36792394  1
  V  V63  1  0.50685574  0.25090379  0.25861245  1
  V  V64  1  0.35995829  0.76419695  0.62341593  1
  V  V65  1  0.00969446  0.37449478  0.87406885  1
  V  V66  1  0.74470962  0.25294489  0.49910674  1
  V  V67  1  0.11996541  0.88508488  0.26048027  1
  V  V68  1  0.88044260  0.12622944  0.25389960  1
  V  V69  1  0.87177378  0.37531190  0.50157424  1
  V  V70  1  0.50314007  0.37353208  0.87202616  1
  V  V71  1  0.50168199  0.51340255  0.50535683  1
  V  V72  1  0.61554655  0.12911628  0.49462513  1
  V  V73  1  0.74216664  0.62072227  0.38485582  1
  V  V74  1  0.87470439  -0.00053155  0.87583729  1
  V  V75  1  0.50068251  0.75169914  0.25289275  1
  V  V76  1  0.49884998  0.13544726  0.11433679  1
  V  V77  1  0.37666467  0.75069508  0.12370477  1
  V  V78  1  0.88511345  0.24519299  0.12495670  1
  V  V79  1  0.87483655  0.75400832  0.13250708  1
  V  V80  1  0.62535712  0.87580994  0.74949253  1
  V  V81  1  0.48894492  0.87509596  0.38257986  1
  V  V82  1  0.24868412  0.62373811  0.87810371  1
  V  V83  1  0.01317828  0.24503259  0.74941258  1
  V  V84  1  -0.03665823  0.06581237  0.56787066  1
  Zn  Zn85  1  0.50687166  0.37347745  0.38203821  1
  Zn  Zn86  1  0.62955815  0.36827937  0.25762632  1
  Zn  Zn87  1  0.00337029  0.37533689  0.37643917  1
  Zn  Zn88  1  0.50417893  0.00513863  -0.00455450  1
  Zn  Zn89  1  0.88134701  0.75429464  0.59800875  1
  Zn  Zn90  1  0.25326013  0.12842684  0.37936913  1
  Zn  Zn91  1  0.00492691  0.74392884  0.74237059  1
  Zn  Zn92  1  0.29631856  0.83619954  0.47390996  1
  Zn  Zn93  1  0.13009300  0.50252728  0.12122914  1
  Zn  Zn94  1  0.25469805  0.00415454  0.24445151  1
  Zn  Zn95  1  0.24454649  0.49756215  0.75127487  1
  Zn  Zn96  1  0.37687615  0.11995872  0.74257379  1
  Zn  Zn97  1  0.00459509  0.24835821  0.24878389  1
  Zn  Zn98  1  0.74593166  0.74334028  0.50344870  1
  Zn  Zn99  1  0.36728262  -0.00154937  0.37202659  1
  Zn  Zn100  1  0.00547502  0.49866332  0.51253644  1
  Zn  Zn101  1  0.50087754  0.87606126  0.87407676  1
  Zn  Zn102  1  0.62034134  0.88033704  0.25293812  1
  Zn  Zn103  1  0.24741662  0.87627704  0.12468216  1
  Zn  Zn104  1  0.25642703  0.37250472  0.12544522  1
  Zn  Zn105  1  0.38144692  0.36915193  0.00195484  1
  Zn  Zn106  1  0.12925744  0.87043099  0.75533511  1
  Zn  Zn107  1  0.18511494  0.18993673  0.18014821  1
  Zn  Zn108  1  0.19733196  0.19166263  0.68817843  1
  Zn  Zn109  1  0.18851218  0.68769056  0.18791658  1
  Zn  Zn110  1  0.18910681  0.68654244  0.69685035  1
  Zn  Zn111  1  0.68617784  0.18401032  0.18580788  1
  Zn  Zn112  1  0.68886053  0.18512080  0.68349851  1
  Zn  Zn113  1  0.68686772  0.68877962  0.19215096  1
  Zn  Zn114  1  0.69707189  0.69016744  0.68962350  1
  Zn  Zn115  1  0.31676166  0.31482838  0.31007507  1
  Zn  Zn116  1  0.31420403  0.31232847  0.80950601  1
  Zn  Zn117  1  0.31096572  0.81798141  0.30348658  1
  Zn  Zn118  1  0.31417281  0.81248127  0.81267075  1
  Zn  Zn119  1  0.81152568  0.31136970  0.31375125  1
  Zn  Zn120  1  0.81363800  0.31569845  0.81182373  1
  Zn  Zn121  1  0.84437343  0.78041146  0.36558485  1
  Zn  Zn122  1  0.80811721  0.81366527  0.81501369  1
  Zn  Zn123  1  0.19282677  0.44029233  0.43812013  1
  Zn  Zn124  1  0.18764923  0.43615874  0.93367747  1
  Zn  Zn125  1  0.15946169  0.95494987  0.41131118  1
  Zn  Zn126  1  0.18968413  0.93812501  0.93646557  1
  Zn  Zn127  1  0.68552985  0.43565689  0.43993376  1
  Zn  Zn128  1  0.68777770  0.43200203  0.93544727  1
  Zn  Zn129  1  0.67048719  0.93545369  0.44031094  1
  Zn  Zn130  1  0.68421526  0.93656385  0.93982239  1
  Zn  Zn131  1  0.31523749  0.06700846  0.05990575  1
  Zn  Zn132  1  0.27985024  0.01969206  0.54136672  1
  Zn  Zn133  1  0.31725148  0.55998720  0.06408599  1
  Zn  Zn134  1  0.31036183  0.56274715  0.56446514  1
  Zn  Zn135  1  0.81364927  0.06321315  0.06686715  1
  Zn  Zn136  1  0.79806806  0.06312968  0.55720829  1
  Zn  Zn137  1  0.81736287  0.56486717  0.06456913  1
  Zn  Zn138  1  0.80830930  0.55752044  0.56557851  1
  Zn  Zn139  1  0.43632561  0.43253525  0.18542691  1
  Zn  Zn140  1  0.44255948  0.43592314  0.68629965  1
  Zn  Zn141  1  0.43827662  0.94307502  0.18640148  1
  Zn  Zn142  1  0.43574174  0.93623339  0.68987604  1
  Zn  Zn143  1  0.93860788  0.43699777  0.18592059  1
  Zn  Zn144  1  0.91085915  0.43164468  0.69036359  1
  Zn  Zn145  1  0.95927706  0.93460880  0.31744122  1
  Zn  Zn146  1  0.94356745  0.92974925  0.68819434  1
  Zn  Zn147  1  0.07401155  0.07454174  0.30729222  1
  Zn  Zn148  1  0.06105262  0.06430886  0.81907296  1
  Zn  Zn149  1  0.06465996  0.56367870  0.31463150  1
  Zn  Zn150  1  0.05664422  0.56997704  0.82029148  1
  Zn  Zn151  1  0.55932452  0.06215589  0.31060718  1
  Zn  Zn152  1  0.56200588  0.06389740  0.81320750  1
  Zn  Zn153  1  0.56052658  0.55808493  0.31455255  1
  Zn  Zn154  1  0.56271072  0.56533919  0.81130816  1
  Zn  Zn155  1  0.43357829  0.18629762  0.43548467  1
  Zn  Zn156  1  0.43627888  0.18550130  0.92969627  1
  Zn  Zn157  1  0.42729553  0.68912982  0.44251083  1
  Zn  Zn158  1  0.43982777  0.68707680  0.93356717  1
  Zn  Zn159  1  0.93780681  0.19398338  0.42724052  1
  Zn  Zn160  1  0.93693933  0.18978640  0.93241863  1
  Zn  Zn161  1  0.94434508  0.67372228  0.44819145  1
  Zn  Zn162  1  0.93310493  0.68621462  0.93918402  1
  Zn  Zn163  1  0.06660939  0.31743102  0.06193909  1
  Zn  Zn164  1  0.05640665  0.30556815  0.55736459  1
  Zn  Zn165  1  0.06236798  0.81648403  0.06766496  1
  Zn  Zn166  1  0.06763775  0.78381066  0.56442243  1
  Zn  Zn167  1  0.56471162  0.31215276  0.06301349  1
  Zn  Zn168  1  0.55783314  0.31529889  0.55974931  1
  Zn  Zn169  1  0.56260448  0.81612894  0.06310520  1
  Zn  Zn170  1  0.56032337  0.81652060  0.56471732  1
  O  O171  1  0.12677094  0.11907023  0.10929841  1
  O  O172  1  0.12548042  0.14566926  0.61133099  1
  O  O173  1  0.11197239  0.62424563  0.12798011  1
  O  O174  1  0.13054338  0.62588881  0.61977349  1
  O  O175  1  0.61188656  0.11930931  0.12535680  1
  O  O176  1  0.63096583  0.11164511  0.61446652  1
  O  O177  1  0.62132411  0.62064908  0.11841558  1
  O  O178  1  0.62719448  0.61710368  0.63027917  1
  O  O179  1  0.37992129  0.38202170  0.38336415  1
  O  O180  1  0.38374110  0.38371564  0.87606012  1
  O  O181  1  0.37365285  0.87553566  0.38422637  1
  O  O182  1  0.37666168  0.88363778  0.88162831  1
  O  O183  1  0.87551120  0.38289866  0.38109567  1
  O  O184  1  0.88089082  0.38684879  0.87847953  1
  O  O185  1  0.86215350  0.89453670  0.36387605  1
  O  O186  1  0.87899328  0.87856395  0.88373558  1
  O  O187  1  0.24912450  0.01046987  0.36425861  1
  O  O188  1  0.25875683  0.01071832  0.87407376  1
  O  O189  1  0.26535549  0.49574316  0.36225257  1
  O  O190  1  0.25922536  0.50660618  0.87573744  1
  O  O191  1  0.74003744  0.00424974  0.37036266  1
  O  O192  1  0.75350283  0.00370466  0.87121513  1
  O  O193  1  0.75820986  0.50444119  0.37021576  1
  O  O194  1  0.75575204  0.49719520  0.86926909  1
  O  O195  1  0.24913511  0.50488529  0.13775891  1
  O  O196  1  0.25704491  0.48611824  0.63233175  1
  O  O197  1  0.24368891  0.99780214  0.11737951  1
  O  O198  1  0.22939938  1.00372215  0.64350603  1
  O  O199  1  0.74776032  0.49407928  0.12852688  1
  O  O200  1  0.73416263  0.50120132  0.63473138  1
  O  O201  1  0.74215955  0.98918910  0.11942192  1
  O  O202  1  0.74122232  0.99226112  0.62862561  1
  O  O203  1  0.01568075  0.37764587  0.24850431  1
  O  O204  1  0.00429732  0.37375632  0.75054140  1
  O  O205  1  0.00831875  0.85625736  0.24485715  1
  O  O206  1  -0.00064114  0.86976275  0.76891704  1
  O  O207  1  0.50009800  0.35841071  0.24682125  1
  O  O208  1  0.51021434  0.36542326  0.75488343  1
  O  O209  1  0.49255436  0.86691705  0.26231932  1
  O  O210  1  0.50776990  0.86617716  0.75193809  1
  O  O211  1  0.49343225  0.13552044  0.24255945  1
  O  O212  1  0.50012046  0.13823166  0.75015488  1
  O  O213  1  0.49171226  0.63161817  0.24578792  1
  O  O214  1  0.49049341  0.63638996  0.75685736  1
  O  O215  1  0.98515379  0.12645681  0.25656149  1
  O  O216  1  0.99187865  0.13372103  0.75903196  1
  O  O217  1  0.99708804  0.63330874  0.24330887  1
  O  O218  1  0.97921910  0.62598867  0.75661725  1
  O  O219  1  0.36271354  0.24933054  -0.00718546  1
  O  O220  1  0.38262584  0.25817715  0.51107561  1
  O  O221  1  0.37148006  0.75610399  0.00292320  1
  O  O222  1  0.36862433  0.75399076  0.51684976  1
  O  O223  1  0.86891295  0.25375205  0.00613763  1
  O  O224  1  0.87000525  0.25630937  0.50382147  1
  O  O225  1  0.86526446  0.75470794  0.00712006  1
  O  O226  1  0.86575006  0.74920705  0.48063381  1
  O  O227  1  0.12571804  0.24615706  0.48985044  1
  O  O228  1  0.13107602  0.24215981  0.99967111  1
  O  O229  1  0.13124559  0.72996291  0.48703755  1
  O  O230  1  0.13586963  0.75442382  0.99433655  1
  O  O231  1  0.63212981  0.24151396  0.50943666  1
  O  O232  1  0.63584857  0.25588385  0.98852895  1
  O  O233  1  0.62279859  0.75194189  0.48950253  1
  O  O234  1  0.62946399  0.74631642  0.99436285  1
  O  O235  1  0.50459994  0.23904346  0.13045968  1
  O  O236  1  0.48737016  0.25601417  0.63169592  1
  O  O237  1  0.49645759  0.74653173  0.13391185  1
  O  O238  1  0.49344515  0.75369087  0.63555922  1
  O  O239  1  0.98791189  0.25518889  0.12423735  1
  O  O240  1  0.98531835  0.25551916  0.63518882  1
  O  O241  1  0.99367738  0.74384872  0.13066676  1
  O  O242  1  0.98660902  0.75793721  0.63192069  1
  O  O243  1  0.01411241  0.25698694  0.36849217  1
  O  O244  1  -0.01324878  0.26442654  0.85965687  1
  O  O245  1  0.00101593  0.74429363  0.36485832  1
  O  O246  1  0.00785194  0.75450527  0.88303063  1
  O  O247  1  0.49865788  0.25069693  0.36145286  1
  O  O248  1  0.50865596  0.25337913  0.86730246  1
  O  O249  1  0.50019805  0.75428527  0.37223263  1
  O  O250  1  0.51224478  0.75252316  0.86794897  1
  O  O251  1  0.24175072  0.12515210  0.50237139  1
  O  O252  1  0.24516052  0.13649501  0.99269192  1
  O  O253  1  0.23490100  0.61433008  0.49786130  1
  O  O254  1  0.25973389  0.63735058  0.99420258  1
  O  O255  1  0.73862847  0.12973990  0.48714729  1
  O  O256  1  0.75471029  0.13653199  0.99507096  1
  O  O257  1  0.74861600  0.62103714  0.48814265  1
  O  O258  1  0.74588775  0.63916293  1.00933683  1
  O  O259  1  0.24830967  0.35751160  -0.00950907  1
  O  O260  1  0.26607767  0.38188958  0.50899103  1
  O  O261  1  0.26195388  0.86399970  -0.00138596  1
  O  O262  1  0.21887666  0.91559045  0.51121116  1
  O  O263  1  0.75662370  0.36461514  0.00415607  1
  O  O264  1  0.76007895  0.36532881  0.49608099  1
  O  O265  1  0.75123910  0.86482067  0.00782393  1
  O  O266  1  0.74194139  0.87841914  0.51254954  1
  O  O267  1  0.13578882  0.49562001  0.25079936  1
  O  O268  1  0.12193516  0.49974604  0.75154006  1
  O  O269  1  0.13291435  1.00750708  0.22659627  1
  O  O270  1  0.13641337  0.99513721  0.76696274  1
  O  O271  1  0.63236772  0.50241851  0.23942744  1
  O  O272  1  0.62807497  0.49530190  0.74352592  1
  O  O273  1  0.61660383  0.99690126  0.23373409  1
  O  O274  1  0.62883586  0.99767177  0.74259796  1
  O  O275  1  0.37624657  0.01656147  0.24943480  1
  O  O276  1  0.36394256  0.00110271  0.75508753  1
  O  O277  1  0.37375020  0.50724357  0.25713779  1
  O  O278  1  0.38242671  0.50768616  0.76093520  1
  O  O279  1  0.87175743  0.00513416  0.25510419  1
  O  O280  1  0.87207035  0.00368157  0.75530324  1
  O  O281  1  0.86910112  0.50306314  0.25635202  1
  O  O282  1  0.86413415  0.50883663  0.75781105  1
  O  O283  1  0.12691173  0.37172268  0.36768920  1
  O  O284  1  0.10914555  0.37774635  0.87437952  1
  O  O285  1  0.13686639  0.84534084  0.36424415  1
  O  O286  1  0.11610361  0.86530410  0.88079637  1
  O  O287  1  0.61892149  0.38441760  0.36901956  1
  O  O288  1  0.62297147  0.36336172  0.86408591  1
  O  O289  1  0.61190890  0.86428514  0.37085555  1
  O  O290  1  0.62392267  0.86806311  0.86686154  1
  O  O291  1  0.39016558  0.12397994  0.13187981  1
  O  O292  1  0.37006251  0.14109045  0.62341646  1
  O  O293  1  0.38460848  0.63125937  0.13152221  1
  O  O294  1  0.37042141  0.63239231  0.63837613  1
  O  O295  1  0.86668411  0.13538705  0.13764887  1
  O  O296  1  0.88839104  0.12228707  0.62481874  1
  O  O297  1  0.88253842  0.63341974  0.13434541  1
  O  O298  1  0.86697829  0.62884779  0.63730417  1
  O  O299  1  0.25017292  0.25097645  0.10548620  1
  O  O300  1  0.26837824  0.26247625  0.63075961  1
  O  O301  1  0.25726443  0.75106761  0.11718560  1
  O  O302  1  0.26180585  0.75295099  0.63585938  1
  O  O303  1  0.75438766  0.25411838  0.11739250  1
  O  O304  1  0.76439313  0.23410766  0.60980448  1
  O  O305  1  0.75231167  0.76019454  0.12331942  1
  O  O306  1  0.75423125  0.76402826  0.62071637  1
  O  O307  1  0.24015948  0.25087479  0.36880386  1
  O  O308  1  0.25588066  0.23693559  0.87819329  1
  O  O309  1  0.25680409  0.75247332  0.38656316  1
  O  O310  1  0.24601213  0.74251343  0.88218074  1
  O  O311  1  0.75075360  0.24327038  0.38757143  1
  O  O312  1  0.74548364  0.24641105  0.88100629  1
  O  O313  1  0.73607390  0.73745216  0.37373739  1
  O  O314  1  0.73598860  0.75515304  0.88638768  1
  O  O315  1  0.00869944  0.11883245  -0.01170348  1
  O  O316  1  0.00542049  0.13427438  0.50418427  1
  O  O317  1  -0.00804302  0.61595036  0.01011729  1
  O  O318  1  0.02319950  0.61346345  0.49624123  1
  O  O319  1  0.49595229  0.12818264  0.01097046  1
  O  O320  1  0.50862781  0.11897820  0.49335062  1
  O  O321  1  0.50738502  0.61956396  0.00522974  1
  O  O322  1  0.49318063  0.61258233  0.49917050  1
  O  O323  1  0.48862101  0.38702828  0.50216863  1
  O  O324  1  0.50388957  0.38127652  0.99078604  1
  O  O325  1  0.50332978  0.88475951  0.48990972  1
  O  O326  1  0.48712377  0.87457403  0.99733000  1
  O  O327  1  0.98604942  0.37889260  0.49843119  1
  O  O328  1  0.99384443  0.38110031  0.99270332  1
  O  O329  1  1.05439390  0.88735682  0.50683414  1
  O  O330  1  0.99372373  0.88145297  0.99441419  1
  O  O331  1  0.48919739  0.49915815  0.38287021  1
  O  O332  1  0.49713942  0.49452205  0.87882065  1
  O  O333  1  0.49551629  0.99061103  0.38192703  1
  O  O334  1  0.48928691  0.99978793  0.87520135  1
  O  O335  1  0.98656285  0.49883433  0.37132318  1
  O  O336  1  0.99083707  0.49569471  0.88300219  1
  O  O337  1  1.06030685  0.96745784  0.34554534  1
  O  O338  1  0.99281270  0.99062698  0.88372170  1
  O  O339  1  0.00886129  0.00094935  0.10815341  1
  O  O340  1  0.02013284  -0.00479461  0.62342246  1
  O  O341  1  -0.00090603  0.50932583  0.11664207  1
  O  O342  1  0.00579683  0.48232844  0.63679967  1
  O  O343  1  0.50486581  0.01291562  0.11988729  1
  O  O344  1  0.50625268  -0.00573675  0.61808520  1
  O  O345  1  0.50898770  0.50526204  0.12035632  1
  O  O346  1  0.51548635  0.49948802  0.62116416  1
  O  O347  1  0.24322111  0.38373503  0.24782145  1
  O  O348  1  0.25184871  0.37939816  0.74240066  1
  O  O349  1  0.23539243  0.87993441  0.24436785  1
  O  O350  1  0.24865008  0.89194804  0.76208866  1
  O  O351  1  0.75112215  0.38091128  0.24189214  1
  O  O352  1  0.74249158  0.38889934  0.75423226  1
  O  O353  1  0.74839124  0.88323114  0.24538173  1
  O  O354  1  0.74426796  0.88136199  0.74215658  1
  O  O355  1  0.26647685  0.13182999  0.23940690  1
  O  O356  1  0.25107825  0.11532888  0.75730175  1
  O  O357  1  0.26494035  0.62052442  0.24491088  1
  O  O358  1  0.25987492  0.61943900  0.76149114  1
  O  O359  1  0.75566932  0.13044610  0.26161947  1
  O  O360  1  0.75712966  0.11712985  0.75394261  1
  O  O361  1  0.75573325  0.61825517  0.25663189  1
  O  O362  1  0.75860691  0.61379879  0.75219180  1
  O  O363  1  0.37241244  0.12557034  0.35991512  1
  O  O364  1  0.36830907  0.11521969  0.86906987  1
  O  O365  1  0.37915292  0.61735945  0.36561950  1
  O  O366  1  0.36725056  0.62054547  0.86801478  1
  O  O367  1  0.86260138  0.12864048  0.36664115  1
  O  O368  1  0.86669726  0.11833649  0.87008086  1
  O  O369  1  0.86727933  0.61526532  0.37006818  1
  O  O370  1  0.87318545  0.61269434  0.87231301  1
  O  O371  1  0.13306577  0.38065207  0.13183085  1
  O  O372  1  0.13088330  0.37186106  0.62709185  1
  O  O373  1  0.12467709  0.88712507  0.13362766  1
  O  O374  1  0.12638929  0.86598006  0.63980518  1
  O  O375  1  0.63545234  0.38128137  0.12695256  1
  O  O376  1  0.62391914  0.37779769  0.63541091  1
  O  O377  1  0.63192086  0.87817417  0.13143474  1
  O  O378  1  0.63249319  0.88444230  0.63054537  1
  O  O379  1  0.12579799  0.25875181  0.25255149  1
  O  O380  1  0.11219210  0.24458834  0.74790234  1
  O  O381  1  0.11816743  0.75423112  0.25321608  1
  O  O382  1  0.12292021  0.74809807  0.77023102  1
  O  O383  1  0.61085412  0.24833040  0.24646283  1
  O  O384  1  0.62321734  0.25574788  0.75092506  1
  O  O385  1  0.60962146  0.75067935  0.25699154  1
  O  O386  1  0.62149655  0.75256009  0.75556803  1
  O  O387  1  0.38705848  0.24080427  0.24890433  1
  O  O388  1  0.38538056  0.24805540  0.74023413  1
  O  O389  1  0.38299634  0.74388565  0.24614328  1
  O  O390  1  0.38301396  0.74521640  0.74479748  1
  O  O391  1  0.87726001  0.24417704  0.24225965  1
  O  O392  1  0.87307412  0.24287435  0.73952989  1
  O  O393  1  0.88733321  0.74464959  0.25522673  1
  O  O394  1  0.86801169  0.73386298  0.75854120  1
  O  O395  1  0.38093974  0.49666687  0.49517678  1
  O  O396  1  0.38467848  0.50507408  0.98545480  1
  O  O397  1  0.38471935  1.00783978  0.49848013  1
  O  O398  1  0.37632219  0.99291299  0.99114519  1
  O  O399  1  0.87592980  0.49330345  0.49518106  1
  O  O400  1  0.88025416  0.49501111  0.99479974  1
  O  O401  1  0.89748927  1.01480582  0.51411928  1
  O  O402  1  0.88079595  0.99647409  0.99666757  1
  O  O403  1  0.11960305  0.00710214  0.00208834  1
  O  O404  1  0.11742010  0.03094298  0.50341282  1
  O  O405  1  0.11183796  0.49693665  -0.00002517  1
  O  O406  1  0.12399866  0.50571235  0.50158128  1
  O  O407  1  0.61977262  -0.00880497  0.01590806  1
  O  O408  1  0.61119964  0.00848492  0.50701925  1
  O  O409  1  0.62381224  0.50419456  0.00555199  1
  O  O410  1  0.61989162  0.49949601  0.51531117  1
  O  O411  1  0.36774027  0.38779129  0.11188998  1
  O  O412  1  0.37163115  0.37048131  0.62001018  1
  O  O413  1  0.37448147  0.86946605  0.11798779  1
  O  O414  1  0.37054242  0.86400494  0.62864440  1
  O  O415  1  0.86838449  0.36742819  0.11891400  1
  O  O416  1  0.86639236  0.36254351  0.61546753  1
  O  O417  1  0.86195538  0.86828804  0.11811695  1
  O  O418  1  0.85950962  0.87966545  0.62639067  1
  O  O419  1  0.12987826  0.13971112  0.38275157  1
  O  O420  1  0.13564595  0.12179198  0.88592169  1
  O  O421  1  0.13561207  0.64050262  0.36144787  1
  O  O422  1  0.13897936  0.62912887  0.87751925  1
  O  O423  1  0.63067895  0.12149914  0.38251804  1
  O  O424  1  0.63197920  0.13866096  0.86880917  1
  O  O425  1  0.63120974  0.63179811  0.36869651  1
  O  O426  1  0.62299809  0.63322553  0.88493393  1
