# generated using pymatgen
data_V85Zn86O256
_symmetry_space_group_name_H-M   'P 1'
_cell_length_a   16.96842552
_cell_length_b   16.94936882
_cell_length_c   16.97496857
_cell_angle_alpha   89.98784631
_cell_angle_beta   90.06137924
_cell_angle_gamma   89.95948145
_symmetry_Int_Tables_number   1
_chemical_formula_structural   V85Zn86O256
_chemical_formula_sum   'V85 Zn86 O256'
_cell_volume   4882.06646678
_cell_formula_units_Z   1
loop_
 _symmetry_equiv_pos_site_id
 _symmetry_equiv_pos_as_xyz
  1  'x, y, z'
loop_
 _atom_site_type_symbol
 _atom_site_label
 _atom_site_symmetry_multiplicity
 _atom_site_fract_x
 _atom_site_fract_y
 _atom_site_fract_z
 _atom_site_occupancy
  V  V0  1  0.25271833  0.11841716  0.37659503  1
  V  V1  1  0.37523214  0.12148245  0.25263599  1
  V  V2  1  0.49878213  0.49799122  0.49865998  1
  V  V3  1  0.11455495  0.49817919  0.62436693  1
  V  V4  1  0.50126510  0.36701658  0.37420158  1
  V  V5  1  0.87089345  0.63434839  0.74410749  1
  V  V6  1  0.11788023  -0.00074390  0.62609540  1
  V  V7  1  0.92020942  0.68355161  0.29723792  1
  V  V8  1  0.74785603  -0.00122479  0.75013557  1
  V  V9  1  0.00521080  0.37910400  0.87521146  1
  V  V10  1  0.49614008  0.12226280  0.12398620  1
  V  V11  1  0.87841443  0.24545963  0.12385481  1
  V  V12  1  0.12039608  0.86905302  0.76335136  1
  V  V13  1  0.12660414  0.50816512  0.12884592  1
  V  V14  1  -0.00557554  0.63533677  0.62423229  1
  V  V15  1  0.74542550  0.62386167  0.36927683  1
  V  V16  1  0.00316466  0.37733998  0.37628893  1
  V  V17  1  0.36932532  0.49876452  0.37058907  1
  V  V18  1  0.62338217  0.75299295  0.37683751  1
  V  V19  1  0.85450850  0.74629939  0.11908322  1
  V  V20  1  0.24808766  -0.00148258  0.25271276  1
  V  V21  1  0.49749638  0.74805528  0.75173126  1
  V  V22  1  0.12145940  0.62291665  0.49865798  1
  V  V23  1  0.49874193  0.75350967  0.24813253  1
  V  V24  1  0.25072629  0.24922651  0.50041565  1
  V  V25  1  0.62523513  0.37480498  0.77276318  1
  V  V26  1  0.87831438  0.50008973  0.37297036  1
  V  V27  1  0.68663734  0.19051233  0.32378426  1
  V  V28  1  0.23672996  0.74689240  -0.00297569  1
  V  V29  1  0.87495185  0.50870795  0.87486188  1
  V  V30  1  0.63898215  -0.00662364  0.12436267  1
  V  V31  1  0.37382536  0.37435037  0.49950449  1
  V  V32  1  0.50549047  0.25402897  0.76671309  1
  V  V33  1  0.75363614  0.75264379  0.50655216  1
  V  V34  1  0.12513292  0.37424992  0.75050540  1
  V  V35  1  0.24578679  0.13280728  0.87651020  1
  V  V36  1  0.50373909  0.12773711  0.62740445  1
  V  V37  1  0.37695659  0.48509540  0.87849661  1
  V  V38  1  0.37673428  0.25131088  0.62697642  1
  V  V39  1  0.11947050  0.12042354  0.50106531  1
  V  V40  1  0.24481327  0.62529510  0.88032042  1
  V  V41  1  0.63265052  0.74057263  0.87817434  1
  V  V42  1  0.24731606  0.87679813  0.12505078  1
  V  V43  1  0.62773374  0.37612357  0.25652072  1
  V  V44  1  0.87208507  0.01951525  0.34546381  1
  V  V45  1  0.62235450  0.62282298  0.49972997  1
  V  V46  1  0.11665394  0.86294258  0.25716315  1
  V  V47  1  -0.00366915  0.63447502  0.12298187  1
  V  V48  1  0.75334239  0.37674531  0.12608842  1
  V  V49  1  0.37588485  0.12511083  0.75274641  1
  V  V50  1  0.62341553  0.12742231  -0.00690445  1
  V  V51  1  0.87942428  0.37412317  0.49978764  1
  V  V52  1  0.00176731  0.24961680  0.75561784  1
  V  V53  1  0.13376657  0.37924854  0.25071982  1
  V  V54  1  0.62287635  0.49900253  0.12548830  1
  V  V55  1  -0.00067113  0.24393904  0.24971800  1
  V  V56  1  0.75208252  0.50274362  0.74910568  1
  V  V57  1  0.00305224  -0.02018029  -0.00460942  1
  V  V58  1  0.49273005  0.47682800  0.00012731  1
  V  V59  1  0.49760581  0.62405614  0.11635615  1
  V  V60  1  0.49928228  -0.00154665  0.00020096  1
  V  V61  1  0.37234740  0.74965543  0.62439227  1
  V  V62  1  0.62477040  0.49434295  0.62633003  1
  V  V63  1  0.37247471  0.62323978  0.25075913  1
  V  V64  1  0.64392894  0.87539235  0.24659284  1
  V  V65  1  0.74816737  0.25783108  -0.01072990  1
  V  V66  1  0.37395713  0.88137107  0.49245385  1
  V  V67  1  0.49662627  0.62145091  0.62516474  1
  V  V68  1  0.37365225  0.87420598  0.00017643  1
  V  V69  1  0.24657902  0.74791297  0.49543239  1
  V  V70  1  0.74411679  0.24381595  0.50305188  1
  V  V71  1  0.37368716  0.74977880  0.12356074  1
  V  V72  1  0.75196258  0.12645061  0.87484240  1
  V  V73  1  0.49878483  0.87230792  0.87341095  1
  V  V74  1  0.11856917  0.13747635  -0.00201401  1
  V  V75  1  0.37297800  0.62144751  0.75289384  1
  V  V76  1  0.85264295  0.86835034  -0.00395172  1
  V  V77  1  0.24874919  0.49914809  0.74946368  1
  V  V78  1  0.87461854  0.24763191  0.62771577  1
  V  V79  1  0.00491231  0.50771727  0.00120719  1
  V  V80  1  0.25335401  0.37851659  0.11795185  1
  V  V81  1  0.62180541  -0.00542900  0.61689754  1
  V  V82  1  0.12492835  0.24962085  0.37515238  1
  V  V83  1  0.24843232  -0.00048360  0.75188654  1
  V  V84  1  0.24351676  0.62416693  0.36862819  1
  Zn  Zn85  1  0.74981461  0.37409821  0.62482235  1
  Zn  Zn86  1  0.24978364  0.87548656  0.62659912  1
  Zn  Zn87  1  -0.00472503  0.11821167  0.12479990  1
  Zn  Zn88  1  0.49224562  0.00788124  0.49171655  1
  Zn  Zn89  1  0.87677722  0.12464062  0.75468253  1
  Zn  Zn90  1  -0.00145622  0.12421717  0.62808968  1
  Zn  Zn91  1  0.62574885  0.87145440  0.74732445  1
  Zn  Zn92  1  0.76543376  0.86946164  0.62447915  1
  Zn  Zn93  1  0.24844350  0.37626365  0.62376023  1
  Zn  Zn94  1  0.50124420  0.24406847  0.25238412  1
  Zn  Zn95  1  0.87760013  -0.00871209  0.87298890  1
  Zn  Zn96  1  0.90843135  0.92466165  0.50364125  1
  Zn  Zn97  1  0.49821428  0.88193863  0.37173723  1
  Zn  Zn98  1  0.37374621  0.25251619  0.12184174  1
  Zn  Zn99  1  0.75593285  0.50239046  0.24967046  1
  Zn  Zn100  1  0.87871048  0.37778983  -0.00025702  1
  Zn  Zn101  1  0.25178196  0.25850168  -0.00611525  1
  Zn  Zn102  1  0.37524064  0.00059923  0.87493780  1
  Zn  Zn103  1  0.64160442  0.63250427  0.00360545  1
  Zn  Zn104  1  0.62157413  0.12840320  0.49225495  1
  Zn  Zn105  1  0.12055050  0.00096815  0.12545655  1
  Zn  Zn106  1  -0.00739523  0.76165248  0.76035874  1
  Zn  Zn107  1  0.18454175  0.18903410  0.18486981  1
  Zn  Zn108  1  0.18689994  0.18901310  0.68821607  1
  Zn  Zn109  1  0.18648262  0.68837844  0.18633336  1
  Zn  Zn110  1  0.18592819  0.68631584  0.68803640  1
  Zn  Zn111  1  0.68574669  0.18828742  0.16149936  1
  Zn  Zn112  1  0.68518417  0.19029873  0.69085562  1
  Zn  Zn113  1  0.68306304  0.68621065  0.18924390  1
  Zn  Zn114  1  0.68316286  0.68552365  0.68893759  1
  Zn  Zn115  1  0.31242594  0.30713665  0.30850678  1
  Zn  Zn116  1  0.31163486  0.31059484  0.81061837  1
  Zn  Zn117  1  0.30762664  0.80964726  0.31246101  1
  Zn  Zn118  1  0.30874861  0.81182573  0.81407768  1
  Zn  Zn119  1  0.82056808  0.31202972  0.31090729  1
  Zn  Zn120  1  0.81503922  0.32027827  0.81181286  1
  Zn  Zn121  1  0.99107041  0.88278978  0.36945254  1
  Zn  Zn122  1  0.80885550  0.81411259  0.81245918  1
  Zn  Zn123  1  0.18751348  0.44091009  0.43998293  1
  Zn  Zn124  1  0.18343258  0.44666120  0.93750920  1
  Zn  Zn125  1  0.18372622  0.93624384  0.43748582  1
  Zn  Zn126  1  0.18746627  0.94261951  0.93830906  1
  Zn  Zn127  1  0.69156922  0.43418658  0.43904548  1
  Zn  Zn128  1  0.69689079  0.46604052  0.94788268  1
  Zn  Zn129  1  0.75754344  0.90309986  0.39136212  1
  Zn  Zn130  1  0.68112579  0.93823419  0.93173425  1
  Zn  Zn131  1  0.31018486  0.06395105  0.06076065  1
  Zn  Zn132  1  0.30901541  0.06343552  0.56784548  1
  Zn  Zn133  1  0.31097283  0.55943478  0.06222698  1
  Zn  Zn134  1  0.30815285  0.56053618  0.56138649  1
  Zn  Zn135  1  0.81756611  0.06078107  0.05818558  1
  Zn  Zn136  1  0.80689441  0.05929629  0.56485280  1
  Zn  Zn137  1  0.81473955  0.56351929  0.06064429  1
  Zn  Zn138  1  0.81328781  0.56207048  0.55709122  1
  Zn  Zn139  1  0.43765444  0.43638819  0.19109077  1
  Zn  Zn140  1  0.43981994  0.43295605  0.69195554  1
  Zn  Zn141  1  0.43586278  0.94028045  0.18839779  1
  Zn  Zn142  1  0.43574732  0.93676510  0.68567280  1
  Zn  Zn143  1  0.94134778  0.43619798  0.18943695  1
  Zn  Zn144  1  0.93878018  0.44004422  0.68539643  1
  Zn  Zn145  1  0.93285123  0.92955729  0.18079081  1
  Zn  Zn146  1  0.93622373  0.93755774  0.68975582  1
  Zn  Zn147  1  0.06043815  0.05975342  0.31221638  1
  Zn  Zn148  1  0.06200283  0.06023965  0.81718417  1
  Zn  Zn149  1  0.06290948  0.56055576  0.31328098  1
  Zn  Zn150  1  0.04244533  0.60481684  0.83504925  1
  Zn  Zn151  1  0.56002820  0.04831131  0.31017027  1
  Zn  Zn152  1  0.56427628  0.06097091  0.81176840  1
  Zn  Zn153  1  0.55842277  0.56079896  0.31057518  1
  Zn  Zn154  1  0.55904847  0.55807914  0.81652749  1
  Zn  Zn155  1  0.43636413  0.18486104  0.43728859  1
  Zn  Zn156  1  0.43009239  0.19093788  0.94150435  1
  Zn  Zn157  1  0.43558438  0.68889858  0.43663554  1
  Zn  Zn158  1  0.43128675  0.68578852  0.93675688  1
  Zn  Zn159  1  0.91632007  0.14681492  0.45484364  1
  Zn  Zn160  1  0.93616476  0.19121473  0.93682392  1
  Zn  Zn161  1  0.96016831  0.73729465  0.47054992  1
  Zn  Zn162  1  0.93437732  0.69427298  0.93741369  1
  Zn  Zn163  1  0.06463929  0.31707774  0.06329536  1
  Zn  Zn164  1  0.06051190  0.30810939  0.56344867  1
  Zn  Zn165  1  0.06294827  0.81156983  0.06935632  1
  Zn  Zn166  1  0.06826156  0.81687683  0.56828622  1
  Zn  Zn167  1  0.56463979  0.30834167  0.06585434  1
  Zn  Zn168  1  0.56153428  0.31177374  0.56584393  1
  Zn  Zn169  1  0.56683973  0.81212174  0.06107130  1
  Zn  Zn170  1  0.55960679  0.81328883  0.56081420  1
  O  O171  1  0.12551351  0.12180759  0.10910143  1
  O  O172  1  0.12820158  0.11826712  0.61784319  1
  O  O173  1  0.11411256  0.61606272  0.13457242  1
  O  O174  1  0.11494291  0.61816154  0.62201419  1
  O  O175  1  0.61621769  0.11392525  0.11278307  1
  O  O176  1  0.61270988  0.11934209  0.62943931  1
  O  O177  1  0.61453723  0.61745915  0.12327833  1
  O  O178  1  0.61565264  0.61238316  0.62200162  1
  O  O179  1  0.37970379  0.38068402  0.37638977  1
  O  O180  1  0.37289753  0.38565369  0.87078255  1
  O  O181  1  0.37196978  0.86739531  0.39029304  1
  O  O182  1  0.38396460  0.87541678  0.88033619  1
  O  O183  1  0.88395473  0.37908133  0.38139644  1
  O  O184  1  0.88943618  0.38980144  0.87134679  1
  O  O185  1  0.87436205  0.90358553  0.39029814  1
  O  O186  1  0.87064757  0.87136315  0.89081762  1
  O  O187  1  0.24623766  0.01059530  0.36850694  1
  O  O188  1  0.25093099  0.00946428  0.86506136  1
  O  O189  1  0.25987769  0.50908170  0.37968465  1
  O  O190  1  0.26061297  0.50203161  0.87024431  1
  O  O191  1  0.76991353  0.01284025  0.36720762  1
  O  O192  1  0.74841255  0.00799584  0.86708058  1
  O  O193  1  0.75725435  0.50749704  0.37568892  1
  O  O194  1  0.76308735  0.48959338  0.85513537  1
  O  O195  1  0.23892205  0.49242108  0.12333619  1
  O  O196  1  0.24034059  0.49980236  0.63271721  1
  O  O197  1  0.24877643  0.98836813  0.12988195  1
  O  O198  1  0.24202086  1.00209677  0.63998828  1
  O  O199  1  0.74621910  0.48787301  0.13144030  1
  O  O200  1  0.74188271  0.49722814  0.63019677  1
  O  O201  1  0.73717879  1.00617635  0.11788779  1
  O  O202  1  0.73378415  1.00347809  0.63187860  1
  O  O203  1  0.01234158  0.36813460  0.25599240  1
  O  O204  1  0.00680933  0.37269098  0.75518677  1
  O  O205  1  0.01397604  0.87590164  0.24670637  1
  O  O206  1  0.01386743  0.87640774  0.75129636  1
  O  O207  1  0.50877530  0.36928982  0.25599409  1
  O  O208  1  0.51351665  0.36766747  0.75194004  1
  O  O209  1  0.49643768  0.86127406  0.24918217  1
  O  O210  1  0.49796833  0.86785632  0.75769599  1
  O  O211  1  0.49141617  0.12069777  0.24230517  1
  O  O212  1  0.49679153  0.13155362  0.74603882  1
  O  O213  1  0.49519481  0.63508449  0.24116422  1
  O  O214  1  0.49161378  0.62654143  0.74493268  1
  O  O215  1  1.01780218  0.14181061  0.24035950  1
  O  O216  1  0.99968648  0.13587711  0.75357614  1
  O  O217  1  0.98872532  0.62365154  0.24610499  1
  O  O218  1  0.98635991  0.61443571  0.73269903  1
  O  O219  1  0.36323749  0.24400702  0.00977897  1
  O  O220  1  0.36946662  0.25469140  0.50544556  1
  O  O221  1  0.36940302  0.75759586  0.00747473  1
  O  O222  1  0.36694335  0.75407360  0.50706171  1
  O  O223  1  0.86706581  0.25842900  0.00425230  1
  O  O224  1  0.86528588  0.24946558  0.50838813  1
  O  O225  1  0.86874147  0.75772409  0.00491381  1
  O  O226  1  0.85104077  0.73901509  0.50253696  1
  O  O227  1  0.13518678  0.24584220  0.49537551  1
  O  O228  1  0.12850511  0.24010744  1.00092689  1
  O  O229  1  0.13991064  0.73784545  0.51088523  1
  O  O230  1  0.13835248  0.75211282  1.00646261  1
  O  O231  1  0.63872197  0.25381596  0.50363442  1
  O  O232  1  0.63614215  0.23963100  1.00737416  1
  O  O233  1  0.61998888  0.74116907  0.49173701  1
  O  O234  1  0.62051248  0.74635869  0.98495268  1
  O  O235  1  0.50256203  0.23298014  0.12965723  1
  O  O236  1  0.49584788  0.24371604  0.63393231  1
  O  O237  1  0.49532157  0.74286730  0.12968984  1
  O  O238  1  0.48916319  0.74356253  0.62949468  1
  O  O239  1  0.99307279  0.25466084  0.13045062  1
  O  O240  1  0.99235760  0.24988097  0.63845378  1
  O  O241  1  0.99428839  0.73726454  0.12298980  1
  O  O242  1  1.00523199  0.73702581  0.63634613  1
  O  O243  1  0.00891956  0.26278935  0.36516894  1
  O  O244  1  -0.00541472  0.26339397  0.86380993  1
  O  O245  1  -0.02454098  0.74394152  0.35501889  1
  O  O246  1  0.00990868  0.71255404  0.86015951  1
  O  O247  1  0.49503131  0.26312601  0.37363579  1
  O  O248  1  0.49842895  0.24344916  0.86522373  1
  O  O249  1  0.50818747  0.74970750  0.36642120  1
  O  O250  1  0.49904129  0.75555935  0.86912136  1
  O  O251  1  0.24591461  0.12927129  0.49313024  1
  O  O252  1  0.23683761  0.12119403  0.99146375  1
  O  O253  1  0.24444540  0.62982174  0.49145384  1
  O  O254  1  0.25828462  0.63505181  0.99323208  1
  O  O255  1  0.74135341  0.14056597  0.50582977  1
  O  O256  1  0.74387557  0.13317563  0.99328629  1
  O  O257  1  0.73880419  0.62755804  0.49218585  1
  O  O258  1  0.73338472  0.57168828  0.98758210  1
  O  O259  1  0.24130454  0.37837635  0.01428981  1
  O  O260  1  0.25679842  0.36824131  0.50032753  1
  O  O261  1  0.25330136  0.87130325  0.00691884  1
  O  O262  1  0.25658747  0.86566466  0.50146978  1
  O  O263  1  0.74937132  0.37243859  0.00832145  1
  O  O264  1  0.76215421  0.36388870  0.50024441  1
  O  O265  1  0.75498824  0.87845488  -0.00113467  1
  O  O266  1  0.73850215  0.85526802  0.49625559  1
  O  O267  1  0.11932367  0.49170842  0.24056809  1
  O  O268  1  0.12966696  0.48693550  0.73926220  1
  O  O269  1  0.13740907  0.99650847  0.24546121  1
  O  O270  1  0.13099272  0.99384284  0.74675057  1
  O  O271  1  0.62406747  0.49117844  0.24267236  1
  O  O272  1  0.62987335  0.49502039  0.74509567  1
  O  O273  1  0.62331049  0.98257206  0.23959464  1
  O  O274  1  0.63304619  0.99786079  0.74239025  1
  O  O275  1  0.36021879  0.00961895  0.24535076  1
  O  O276  1  0.36658707  0.00662404  0.74990569  1
  O  O277  1  0.38145390  0.50677934  0.26373707  1
  O  O278  1  0.37125016  0.50270021  0.75672695  1
  O  O279  1  0.87586040  0.00147871  0.24512154  1
  O  O280  1  0.86141674  0.00378708  0.75409164  1
  O  O281  1  0.87337189  0.48939675  0.26698785  1
  O  O282  1  0.86784993  0.50565101  0.75085330  1
  O  O283  1  0.12099539  0.37439694  0.37087297  1
  O  O284  1  0.11350147  0.38447985  0.86580222  1
  O  O285  1  0.12248079  0.87832498  0.36037562  1
  O  O286  1  0.13062986  0.87891108  0.86148658  1
  O  O287  1  0.61751852  0.38158643  0.36452631  1
  O  O288  1  0.63314849  0.38844306  0.86959707  1
  O  O289  1  0.62399746  0.86505634  0.36024444  1
  O  O290  1  0.61138268  0.86433238  0.87284083  1
  O  O291  1  0.38183357  0.12109322  0.13210938  1
  O  O292  1  0.38529993  0.12910210  0.63190493  1
  O  O293  1  0.37888689  0.62789858  0.13228773  1
  O  O294  1  0.37852522  0.62865996  0.62967760  1
  O  O295  1  0.87684462  0.14107626  0.11534237  1
  O  O296  1  0.87523507  0.13873973  0.63267733  1
  O  O297  1  0.87917491  0.63598178  0.11967891  1
  O  O298  1  0.88745608  0.61905511  0.62601616  1
  O  O299  1  0.24481164  0.26906711  0.12582376  1
  O  O300  1  0.25882709  0.25059779  0.61889263  1
  O  O301  1  0.25501936  0.75905006  0.12022714  1
  O  O302  1  0.26163910  0.74590226  0.61865598  1
  O  O303  1  0.75820731  0.26123936  0.11391313  1
  O  O304  1  0.75565675  0.25341626  0.61903725  1
  O  O305  1  0.75559190  0.73815520  0.11775021  1
  O  O306  1  0.73460544  0.75233553  0.61102474  1
  O  O307  1  0.24475985  0.23987329  0.37941993  1
  O  O308  1  0.24947081  0.23717087  0.87324671  1
  O  O309  1  0.25392018  0.73784384  0.38538102  1
  O  O310  1  0.25585948  0.73903054  0.88523238  1
  O  O311  1  0.75069074  0.24949182  0.38284634  1
  O  O312  1  0.75528868  0.24738317  0.88396339  1
  O  O313  1  0.73268405  0.73898456  0.38635197  1
  O  O314  1  0.73043574  0.75009026  0.86826503  1
  O  O315  1  0.01076021  0.12690210  0.00023808  1
  O  O316  1  0.01908778  0.14075644  0.50720423  1
  O  O317  1  -0.00509046  0.61729990  0.01049835  1
  O  O318  1  0.00849010  0.63753529  0.51169132  1
  O  O319  1  0.50577983  0.11946534  0.00404492  1
  O  O320  1  0.50188316  0.12709679  0.51147601  1
  O  O321  1  0.49602430  0.62405260  0.01276839  1
  O  O322  1  0.50232709  0.61761195  0.50448936  1
  O  O323  1  0.49454896  0.37818687  0.49263554  1
  O  O324  1  0.49277275  0.37860793  1.00939261  1
  O  O325  1  0.48198565  0.87233777  0.49885191  1
  O  O326  1  0.49456625  0.87822829  0.99331646  1
  O  O327  1  0.98811216  0.36461244  0.49109566  1
  O  O328  1  1.00178171  0.38333830  0.99053086  1
  O  O329  1  0.99809858  0.84615825  0.48584390  1
  O  O330  1  1.00112534  0.87906809  0.99825368  1
  O  O331  1  0.49234178  0.49003675  0.38030585  1
  O  O332  1  0.49264585  0.49937912  0.89248189  1
  O  O333  1  0.49460324  0.99454832  0.37981524  1
  O  O334  1  0.49983738  0.99000356  0.88010952  1
  O  O335  1  0.99477931  0.48686022  0.37370927  1
  O  O336  1  0.99628656  0.50254928  0.88298517  1
  O  O337  1  0.98636905  1.00035406  0.36770174  1
  O  O338  1  0.99387122  1.00469843  0.89290058  1
  O  O339  1  -0.00095734  0.00028272  0.10844048  1
  O  O340  1  0.01463481  0.00668276  0.63320860  1
  O  O341  1  0.00355290  0.50815927  0.12005428  1
  O  O342  1  0.01062930  0.50694613  0.62197417  1
  O  O343  1  0.50553786  0.00715528  0.11976503  1
  O  O344  1  0.50810447  0.00806870  0.62627655  1
  O  O345  1  0.49826446  0.50468757  0.11763040  1
  O  O346  1  0.50466559  0.50200332  0.61918798  1
  O  O347  1  0.23813268  0.37394921  0.24657139  1
  O  O348  1  0.24137873  0.37893435  0.74752111  1
  O  O349  1  0.24579781  0.88104968  0.24455589  1
  O  O350  1  0.24467815  0.88426538  0.74971280  1
  O  O351  1  0.74293675  0.37340512  0.24526158  1
  O  O352  1  0.73990119  0.38061718  0.74469055  1
  O  O353  1  0.73932528  0.86900085  0.25634317  1
  O  O354  1  0.74608598  0.88344047  0.74395413  1
  O  O355  1  0.25304178  0.11899117  0.25579315  1
  O  O356  1  0.25268621  0.12001781  0.75722542  1
  O  O357  1  0.25370207  0.62990097  0.26191347  1
  O  O358  1  0.25592127  0.61893517  0.75555447  1
  O  O359  1  0.73674950  0.14112999  0.25523386  1
  O  O360  1  0.74762462  0.12078097  0.76025865  1
  O  O361  1  0.74088695  0.62169479  0.26457313  1
  O  O362  1  0.75794694  0.61449810  0.73962357  1
  O  O363  1  0.36450819  0.12921566  0.36592756  1
  O  O364  1  0.36569396  0.12123735  0.86846505  1
  O  O365  1  0.36850587  0.61736416  0.37112084  1
  O  O366  1  0.36862110  0.61463711  0.86830288  1
  O  O367  1  0.88479086  0.12268237  0.35107150  1
  O  O368  1  0.86153881  0.12232028  0.87783261  1
  O  O369  1  0.86576949  0.61995768  0.36686510  1
  O  O370  1  0.87388617  0.61351063  0.86200947  1
  O  O371  1  0.13104253  0.38535629  0.13335196  1
  O  O372  1  0.12419546  0.38213620  0.62800215  1
  O  O373  1  0.13335619  0.87718074  0.13554594  1
  O  O374  1  0.13140754  0.88524787  0.63321240  1
  O  O375  1  0.63173657  0.37591072  0.13754796  1
  O  O376  1  0.62367704  0.38747768  0.62843191  1
  O  O377  1  0.62342667  0.87810827  0.13644994  1
  O  O378  1  0.61967674  0.88783603  0.62620815  1
  O  O379  1  0.12246403  0.25932558  0.25679392  1
  O  O380  1  0.11710709  0.26461106  0.74390995  1
  O  O381  1  0.13004128  0.76476844  0.25031822  1
  O  O382  1  0.13068052  0.76781274  0.74612965  1
  O  O383  1  0.62819740  0.25213783  0.25685090  1
  O  O384  1  0.61864446  0.26370312  0.75083022  1
  O  O385  1  0.61697094  0.75721024  0.25367175  1
  O  O386  1  0.61360382  0.74961299  0.75789223  1
  O  O387  1  0.37595272  0.23529836  0.24274868  1
  O  O388  1  0.38320618  0.24523667  0.74507454  1
  O  O389  1  0.38002963  0.74397333  0.24440441  1
  O  O390  1  0.37737356  0.74353649  0.74243389  1
  O  O391  1  0.88834576  0.25783446  0.23763226  1
  O  O392  1  0.88217270  0.25284974  0.74416090  1
  O  O393  1  0.86815682  0.74241806  0.23397017  1
  O  O394  1  0.87185113  0.73820781  0.75100917  1
  O  O395  1  0.37890336  0.49444557  0.49109211  1
  O  O396  1  0.38594685  0.50067259  0.99427759  1
  O  O397  1  0.37065008  0.98382170  0.50947542  1
  O  O398  1  0.38090003  0.99239003  0.99852955  1
  O  O399  1  0.87038998  0.48711635  0.48733842  1
  O  O400  1  0.88685001  0.49698771  0.99041242  1
  O  O401  1  0.88543805  1.03810151  0.49142985  1
  O  O402  1  0.88267146  0.98169043  1.00107903  1
  O  O403  1  0.11202438  0.00398409  0.00152205  1
  O  O404  1  0.13283628  0.00876066  0.51166892  1
  O  O405  1  0.11281597  0.49899209  0.01289458  1
  O  O406  1  0.13061296  0.51424734  0.50966115  1
  O  O407  1  0.61705495  0.00369897  0.00493540  1
  O  O408  1  0.61980798  0.00708307  0.51620077  1
  O  O409  1  0.60085588  0.49254067  0.01146624  1
  O  O410  1  0.62012301  0.50186407  0.50720927  1
  O  O411  1  0.35565321  0.37858917  0.13548697  1
  O  O412  1  0.37485881  0.36928589  0.61820649  1
  O  O413  1  0.36672177  0.87026677  0.12118305  1
  O  O414  1  0.37102578  0.86451726  0.61765544  1
  O  O415  1  0.86755280  0.36992335  0.12365460  1
  O  O416  1  0.87620850  0.36605466  0.61701091  1
  O  O417  1  0.87617998  0.85488097  0.11099266  1
  O  O418  1  0.87296647  0.89761555  0.60805536  1
  O  O419  1  0.13245700  0.12844791  0.38281666  1
  O  O420  1  0.13111103  0.12111143  0.88877062  1
  O  O421  1  0.13159639  0.61888095  0.38467895  1
  O  O422  1  0.14761987  0.60474620  0.87554268  1
  O  O423  1  0.62124782  0.12811413  0.37277340  1
  O  O424  1  0.63328164  0.12035173  0.88707677  1
  O  O425  1  0.62667743  0.62773230  0.37936204  1
  O  O426  1  0.61551534  0.63801879  0.87593848  1
