# generated using pymatgen
data_V85Zn86O256
_symmetry_space_group_name_H-M   'P 1'
_cell_length_a   16.96992997
_cell_length_b   16.96187244
_cell_length_c   16.98290134
_cell_angle_alpha   90.00728967
_cell_angle_beta   90.07035602
_cell_angle_gamma   89.96671844
_symmetry_Int_Tables_number   1
_chemical_formula_structural   V85Zn86O256
_chemical_formula_sum   'V85 Zn86 O256'
_cell_volume   4888.38412666
_cell_formula_units_Z   1
loop_
 _symmetry_equiv_pos_site_id
 _symmetry_equiv_pos_as_xyz
  1  'x, y, z'
loop_
 _atom_site_type_symbol
 _atom_site_label
 _atom_site_symmetry_multiplicity
 _atom_site_fract_x
 _atom_site_fract_y
 _atom_site_fract_z
 _atom_site_occupancy
  V  V0  1  0.25201310  0.50245446  0.25124422  1
  V  V1  1  0.74556772  0.25084302  -0.00001855  1
  V  V2  1  0.24940405  0.37616443  0.62240587  1
  V  V3  1  0.62311777  0.50374937  0.12918448  1
  V  V4  1  0.37859956  0.73867431  0.12969282  1
  V  V5  1  0.12494433  0.88090620  0.74240846  1
  V  V6  1  0.01043259  0.11253048  0.62813028  1
  V  V7  1  0.25035408  0.24664131  -0.00661115  1
  V  V8  1  0.62513270  0.49574551  0.62238784  1
  V  V9  1  0.00615438  -0.00072749  0.48637561  1
  V  V10  1  0.38821020  0.87906883  -0.00178632  1
  V  V11  1  0.49279813  0.24235129  0.24796460  1
  V  V12  1  0.38134121  0.63316023  0.74654524  1
  V  V13  1  0.50046844  0.37515418  0.87753442  1
  V  V14  1  0.76367880  0.12165218  0.37695089  1
  V  V15  1  0.25128009  0.63507303  0.37183309  1
  V  V16  1  0.75111514  0.50650163  0.25658453  1
  V  V17  1  0.52412840  0.87159700  0.84791927  1
  V  V18  1  -0.00031183  0.36744217  0.87243450  1
  V  V19  1  0.50024657  0.73150821  0.25144347  1
  V  V20  1  0.87468011  0.48664495  0.38081276  1
  V  V21  1  0.87196062  0.51041948  0.87697120  1
  V  V22  1  0.87422234  0.87036418  0.00301987  1
  V  V23  1  0.63137656  0.12317396  0.50216197  1
  V  V24  1  0.00047109  0.74762353  0.73163009  1
  V  V25  1  0.75684355  0.37047329  0.62014053  1
  V  V26  1  0.12429002  0.62632858  -0.00218084  1
  V  V27  1  0.24865884  0.00494984  0.75954880  1
  V  V28  1  0.12427714  0.50125350  0.12422500  1
  V  V29  1  0.12329461  0.36883129  0.75178207  1
  V  V30  1  0.62944662  0.37347580  0.25105833  1
  V  V31  1  0.25362674  0.75460472  0.50230236  1
  V  V32  1  0.00027852  0.50100873  -0.00142792  1
  V  V33  1  0.75187744  0.86966217  0.62457489  1
  V  V34  1  0.87568980  0.12051864  0.24706565  1
  V  V35  1  0.74545517  0.12386677  0.87457872  1
  V  V36  1  0.63129351  0.24449487  0.37273777  1
  V  V37  1  0.01941147  0.35680048  0.41072649  1
  V  V38  1  0.87262841  0.37702443  0.00003073  1
  V  V39  1  0.12410638  0.00095094  0.13431806  1
  V  V40  1  0.49646258  0.11376115  0.11875327  1
  V  V41  1  0.62533122  0.37400902  0.75028847  1
  V  V42  1  0.75184602  0.49939153  0.75284540  1
  V  V43  1  0.36872823  0.37349612  0.49811582  1
  V  V44  1  0.50055490  0.37338556  0.37400276  1
  V  V45  1  0.57293318  0.92980962  0.30629023  1
  V  V46  1  0.38089661  0.88987779  0.48929878  1
  V  V47  1  0.49961702  0.25045983  0.74999680  1
  V  V48  1  0.87372359  0.00020139  0.87290698  1
  V  V49  1  0.37030618  0.24753631  0.62179207  1
  V  V50  1  0.37402279  0.50560194  0.36892628  1
  V  V51  1  0.49927137  0.50215289  0.50012068  1
  V  V52  1  0.24656737  0.87619789  0.12655870  1
  V  V53  1  0.00056054  0.87472088  0.87198215  1
  V  V54  1  0.11882254  0.50846707  0.62664471  1
  V  V55  1  -0.00074845  -0.00078940  -0.00048092  1
  V  V56  1  0.88262140  0.62908157  0.73997522  1
  V  V57  1  0.25299871  0.88689394  0.62347240  1
  V  V58  1  0.62268902  0.74402776  0.37345496  1
  V  V59  1  0.12203195  0.37342276  0.25158454  1
  V  V60  1  0.88432943  0.24933699  0.61630285  1
  V  V61  1  0.12116060  0.85961436  0.25808420  1
  V  V62  1  0.25175348  0.37426390  0.12579838  1
  V  V63  1  0.69423741  0.67840885  0.82717193  1
  V  V64  1  -0.00191732  0.25642122  0.24669996  1
  V  V65  1  0.75759273  -0.00885707  0.25471711  1
  V  V66  1  -0.00632883  0.85969721  0.37165577  1
  V  V67  1  0.87922037  0.13491428  0.75158074  1
  V  V68  1  0.74295165  -0.00362583  0.74632374  1
  V  V69  1  0.49853618  0.51048756  0.00656489  1
  V  V70  1  -0.00641518  0.50705664  0.50550466  1
  V  V71  1  0.37590335  0.37552860  0.00252207  1
  V  V72  1  0.24967150  0.50324913  0.74963618  1
  V  V73  1  0.12971646  0.12260063  -0.00527072  1
  V  V74  1  0.37253837  0.12478391  0.76003487  1
  V  V75  1  0.50089184  0.12100992  0.62469654  1
  V  V76  1  0.88666432  0.62537163  0.25856815  1
  V  V77  1  0.12363520  0.75020537  0.87102374  1
  V  V78  1  0.12509223  0.63092778  0.49902316  1
  V  V79  1  0.63161666  0.62863398  0.00490762  1
  V  V80  1  0.75840575  0.74426812  0.49237767  1
  V  V81  1  0.37421570  0.50226411  0.87539406  1
  V  V82  1  -0.00419208  0.12544297  0.12387564  1
  V  V83  1  0.25158266  0.75292928  -0.00089388  1
  V  V84  1  0.74523812  0.86965721  0.12810994  1
  Zn  Zn85  1  0.62286588  -0.00685110  0.62402196  1
  Zn  Zn86  1  0.15882565  0.20653794  0.44763619  1
  Zn  Zn87  1  0.88054371  0.74999335  0.13570370  1
  Zn  Zn88  1  0.75010777  0.37362758  0.12774988  1
  Zn  Zn89  1  0.50460258  0.63158760  0.62724273  1
  Zn  Zn90  1  0.61952741  0.11799849  -0.00127853  1
  Zn  Zn91  1  0.26854522  0.00251542  0.26364204  1
  Zn  Zn92  1  0.25132772  0.62775454  0.87277365  1
  Zn  Zn93  1  0.62304344  0.24915198  0.87533891  1
  Zn  Zn94  1  0.87015369  0.24891486  0.12225103  1
  Zn  Zn95  1  0.87856309  0.87537591  0.50250828  1
  Zn  Zn96  1  0.12468095  0.24226798  0.87005933  1
  Zn  Zn97  1  0.75296573  0.74352961  0.00058678  1
  Zn  Zn98  1  0.75891733  0.25095764  0.49724089  1
  Zn  Zn99  1  0.37227409  0.24452485  0.12817061  1
  Zn  Zn100  1  0.00317155  0.63115931  0.13227574  1
  Zn  Zn101  1  0.62776209  0.62314347  0.49428645  1
  Zn  Zn102  1  0.38219664  0.00009561  0.88143746  1
  Zn  Zn103  1  0.62486329  -0.00462855  0.12336075  1
  Zn  Zn104  1  0.49793523  0.00459848  0.48114594  1
  Zn  Zn105  1  0.27575891  0.12564411  0.39002242  1
  Zn  Zn106  1  0.38761341  0.76091333  0.62604143  1
  Zn  Zn107  1  0.18842332  0.19044723  0.18680771  1
  Zn  Zn108  1  0.19160515  0.18650591  0.68303978  1
  Zn  Zn109  1  0.19049461  0.68582636  0.18663697  1
  Zn  Zn110  1  0.19290038  0.69230761  0.68269682  1
  Zn  Zn111  1  0.68535802  0.18263968  0.18696272  1
  Zn  Zn112  1  0.68975107  0.18778376  0.68850742  1
  Zn  Zn113  1  0.69052989  0.68714890  0.19057159  1
  Zn  Zn114  1  0.68546827  0.68879628  0.66416591  1
  Zn  Zn115  1  0.30597789  0.30500299  0.32031714  1
  Zn  Zn116  1  0.31208954  0.31397417  0.81255993  1
  Zn  Zn117  1  0.31614256  0.81763788  0.30961130  1
  Zn  Zn118  1  0.31248849  0.81538764  0.81384592  1
  Zn  Zn119  1  0.81923865  0.31318700  0.31373190  1
  Zn  Zn120  1  0.81161466  0.31368682  0.81372207  1
  Zn  Zn121  1  0.81350643  0.80894052  0.31729464  1
  Zn  Zn122  1  0.81700363  0.81612230  0.80628683  1
  Zn  Zn123  1  0.18719660  0.44073113  0.43882578  1
  Zn  Zn124  1  0.18849443  0.43570806  0.93629984  1
  Zn  Zn125  1  0.18206761  0.94225276  0.44100174  1
  Zn  Zn126  1  0.18790179  0.93804189  0.93623295  1
  Zn  Zn127  1  0.68976594  0.43384906  0.43806099  1
  Zn  Zn128  1  0.68656487  0.44121774  0.93838165  1
  Zn  Zn129  1  0.69466788  0.93898975  0.44308021  1
  Zn  Zn130  1  0.68555087  0.93454623  0.94021509  1
  Zn  Zn131  1  0.31335412  0.06103531  0.06853667  1
  Zn  Zn132  1  0.29965773  0.06848202  0.55822866  1
  Zn  Zn133  1  0.30952087  0.56384263  0.06149630  1
  Zn  Zn134  1  0.31198911  0.56366234  0.56197030  1
  Zn  Zn135  1  0.80206846  0.05558710  0.06015658  1
  Zn  Zn136  1  0.82257404  0.05802046  0.56193407  1
  Zn  Zn137  1  0.81018184  0.56383998  0.07109142  1
  Zn  Zn138  1  0.80980821  0.56381485  0.56234703  1
  Zn  Zn139  1  0.43999104  0.43535108  0.18892606  1
  Zn  Zn140  1  0.43665592  0.43926283  0.68705225  1
  Zn  Zn141  1  0.43849555  0.92566858  0.17569269  1
  Zn  Zn142  1  0.43601731  0.93975779  0.68736751  1
  Zn  Zn143  1  0.93607828  0.44266379  0.18455925  1
  Zn  Zn144  1  0.93840447  0.43799520  0.68916747  1
  Zn  Zn145  1  0.93934039  0.93516659  0.19051743  1
  Zn  Zn146  1  0.93006069  0.93719021  0.68643327  1
  Zn  Zn147  1  0.12927292  0.07183768  0.31842274  1
  Zn  Zn148  1  0.06065679  0.06204534  0.80981985  1
  Zn  Zn149  1  0.06407099  0.55543104  0.32208656  1
  Zn  Zn150  1  0.05956133  0.56268395  0.81284864  1
  Zn  Zn151  1  0.43507649  0.05989917  0.30174028  1
  Zn  Zn152  1  0.55947016  0.05642809  0.81565665  1
  Zn  Zn153  1  0.56252403  0.56346674  0.31436322  1
  Zn  Zn154  1  0.55828762  0.55644985  0.81245689  1
  Zn  Zn155  1  0.44379344  0.19134018  0.44160833  1
  Zn  Zn156  1  0.43715625  0.19019562  0.94030757  1
  Zn  Zn157  1  0.43701578  0.69246315  0.43805912  1
  Zn  Zn158  1  0.44131806  0.69483012  0.93133854  1
  Zn  Zn159  1  0.97483025  0.16111204  0.41508786  1
  Zn  Zn160  1  0.93479357  0.18861859  0.93855249  1
  Zn  Zn161  1  0.93757649  0.68203164  0.43439041  1
  Zn  Zn162  1  0.94061546  0.68898192  0.93684000  1
  Zn  Zn163  1  0.06302530  0.31143281  0.06144616  1
  Zn  Zn164  1  0.05273989  0.31828567  0.57852618  1
  Zn  Zn165  1  0.05946789  0.81008226  0.06483478  1
  Zn  Zn166  1  0.06870667  0.81871893  0.55569561  1
  Zn  Zn167  1  0.56348223  0.31368593  0.06517055  1
  Zn  Zn168  1  0.56195204  0.30999903  0.56031008  1
  Zn  Zn169  1  0.56246080  0.80595782  0.06857627  1
  Zn  Zn170  1  0.56337678  0.81455306  0.56014991  1
  O  O171  1  0.11395474  0.11702634  0.11347735  1
  O  O172  1  0.10793029  0.13196347  0.63089701  1
  O  O173  1  0.12705498  0.61385272  0.11897754  1
  O  O174  1  0.13464156  0.61792611  0.61339570  1
  O  O175  1  0.60941856  0.12500254  0.12444336  1
  O  O176  1  0.61942849  0.12821067  0.61705110  1
  O  O177  1  0.62987843  0.61130633  0.12088611  1
  O  O178  1  0.62312185  0.60708143  0.61771483  1
  O  O179  1  0.37834584  0.38047306  0.38293473  1
  O  O180  1  0.38000913  0.38248222  0.88165073  1
  O  O181  1  0.36604178  0.88001771  0.39143216  1
  O  O182  1  0.37167338  0.87372595  0.89282399  1
  O  O183  1  0.88947715  0.38346910  0.37638017  1
  O  O184  1  0.88118115  0.38215363  0.88275884  1
  O  O185  1  0.89097544  0.87362416  0.37275631  1
  O  O186  1  0.88104302  0.88143035  0.87974530  1
  O  O187  1  0.22517335  0.01678655  0.37102696  1
  O  O188  1  0.25593641  -0.00389313  0.86298394  1
  O  O189  1  0.25757691  0.50726508  0.37106230  1
  O  O190  1  0.25564641  0.50254844  0.86692647  1
  O  O191  1  0.74935898  0.00894263  0.36494065  1
  O  O192  1  0.75607071  0.00688613  0.86738618  1
  O  O193  1  0.76078666  0.49082258  0.36967482  1
  O  O194  1  0.76101458  0.49304060  0.86616085  1
  O  O195  1  0.24392529  0.49491082  0.12978977  1
  O  O196  1  0.24184611  0.49571466  0.63147675  1
  O  O197  1  0.23975976  0.98655466  0.12147085  1
  O  O198  1  0.25305249  0.99136019  0.63622533  1
  O  O199  1  0.74135330  0.49442164  0.13690665  1
  O  O200  1  0.74496771  0.49133233  0.63072846  1
  O  O201  1  0.75290814  0.99102564  0.14165677  1
  O  O202  1  0.75117994  0.99267591  0.63079728  1
  O  O203  1  0.00710626  0.36921839  0.23903364  1
  O  O204  1  0.01141074  0.38156052  0.75986444  1
  O  O205  1  0.00865278  0.87387806  0.26118525  1
  O  O206  1  0.00701834  0.87009958  0.75338568  1
  O  O207  1  0.51082760  0.36807068  0.25633044  1
  O  O208  1  0.50396602  0.37157184  0.75618812  1
  O  O209  1  0.51408942  0.87157074  0.24713393  1
  O  O210  1  0.50632452  0.87366353  0.74842342  1
  O  O211  1  0.50102498  0.13848607  0.23812048  1
  O  O212  1  0.49435421  0.13104009  0.74403202  1
  O  O213  1  0.49441859  0.63277921  0.25131181  1
  O  O214  1  0.48449313  0.61688743  0.74884344  1
  O  O215  1  0.99288423  0.13498288  0.23418524  1
  O  O216  1  0.99046592  0.12290424  0.74205446  1
  O  O217  1  0.99058977  0.61254932  0.25295239  1
  O  O218  1  0.99470686  0.63474300  0.75046686  1
  O  O219  1  0.36714984  0.25739527  0.00353129  1
  O  O220  1  0.38676130  0.26504084  0.51066235  1
  O  O221  1  0.36772161  0.75600496  0.00491777  1
  O  O222  1  0.36529361  0.76166018  0.49953756  1
  O  O223  1  0.86413037  0.26018235  -0.00127039  1
  O  O224  1  0.87859473  0.24583556  0.51696260  1
  O  O225  1  0.87568864  0.76267267  -0.00469342  1
  O  O226  1  0.86132728  0.74915896  0.49001007  1
  O  O227  1  0.08517726  0.29245640  0.47405076  1
  O  O228  1  0.13230269  0.24108850  0.99929347  1
  O  O229  1  0.14122378  0.74337786  0.50340312  1
  O  O230  1  0.13153295  0.74715298  0.99114473  1
  O  O231  1  0.62902306  0.24066704  0.49256680  1
  O  O232  1  0.63650199  0.25069435  0.99757988  1
  O  O233  1  0.63211146  0.74947367  0.48789293  1
  O  O234  1  0.62546416  0.73183907  1.00687405  1
  O  O235  1  0.49960034  0.24845798  0.13727313  1
  O  O236  1  0.49232779  0.24278896  0.63006378  1
  O  O237  1  0.49224492  0.74972075  0.13962867  1
  O  O238  1  0.49858361  0.74315230  0.61532341  1
  O  O239  1  0.99514878  0.24325893  0.12786484  1
  O  O240  1  0.98814400  0.24024009  0.63075094  1
  O  O241  1  0.99278397  0.74308346  0.12061751  1
  O  O242  1  1.00660529  0.75594998  0.63323602  1
  O  O243  1  -0.01420946  0.26583112  0.35442553  1
  O  O244  1  0.00195729  0.26386224  0.88047193  1
  O  O245  1  0.00160572  0.76080837  0.37813631  1
  O  O246  1  0.01258144  0.75584320  0.86984063  1
  O  O247  1  0.51167879  0.25380897  0.36453210  1
  O  O248  1  0.50036708  0.25968629  0.87019588  1
  O  O249  1  0.50509261  0.74863387  0.36160672  1
  O  O250  1  0.49744928  0.77665941  0.87827641  1
  O  O251  1  0.23989927  0.14082958  0.50218461  1
  O  O252  1  0.24131194  0.13332995  1.00787659  1
  O  O253  1  0.24773970  0.63452884  0.49512550  1
  O  O254  1  0.24403380  0.63775608  0.99715101  1
  O  O255  1  0.75016694  0.12432920  0.49368262  1
  O  O256  1  0.75711238  0.13562840  0.98659937  1
  O  O257  1  0.74668350  0.64030590  0.50446405  1
  O  O258  1  0.74174367  0.62359394  1.00120289  1
  O  O259  1  0.25490786  0.37028781  0.00694087  1
  O  O260  1  0.25977768  0.38099138  0.50597119  1
  O  O261  1  0.24835029  0.86414048  0.00685553  1
  O  O262  1  0.25331215  0.87309536  0.50710428  1
  O  O263  1  0.75678464  0.36908732  -0.00121489  1
  O  O264  1  0.74907905  0.37186433  0.51657493  1
  O  O265  1  0.75983745  0.86842522  0.00854633  1
  O  O266  1  0.75795672  0.86688994  0.50511517  1
  O  O267  1  0.12826492  0.49345228  0.24058930  1
  O  O268  1  0.13225933  0.49782461  0.74510383  1
  O  O269  1  0.11216274  0.98644136  0.23518114  1
  O  O270  1  0.13349350  0.99091620  0.75598935  1
  O  O271  1  0.63077573  0.49584708  0.24758898  1
  O  O272  1  0.63019946  0.49476790  0.74146075  1
  O  O273  1  0.63663027  0.98776668  0.24791608  1
  O  O274  1  0.64077909  1.01130577  0.74489175  1
  O  O275  1  0.37580394  -0.01335625  0.24348170  1
  O  O276  1  0.36803209  0.01005380  0.75221106  1
  O  O277  1  0.37070523  0.49226155  0.26273392  1
  O  O278  1  0.36658758  0.50587873  0.75467054  1
  O  O279  1  0.87258735  0.01307008  0.24810711  1
  O  O280  1  0.86491915  0.01014839  0.75542276  1
  O  O281  1  0.86857850  0.50014658  0.25951413  1
  O  O282  1  0.87148059  0.50674775  0.75760061  1
  O  O283  1  0.11619271  0.38850155  0.36080466  1
  O  O284  1  0.11634056  0.37625445  0.86808910  1
  O  O285  1  0.11868866  0.87310192  0.36160165  1
  O  O286  1  0.12166326  0.86838714  0.86460798  1
  O  O287  1  0.62263158  0.36324196  0.37194628  1
  O  O288  1  0.61729434  0.37665426  0.86862880  1
  O  O289  1  0.62670534  0.87044975  0.37218525  1
  O  O290  1  0.62365746  0.87585257  0.86636220  1
  O  O291  1  0.38948194  0.12759267  0.12391617  1
  O  O292  1  0.38237522  0.13381578  0.63019133  1
  O  O293  1  0.36665522  0.63983667  0.12319502  1
  O  O294  1  0.37558781  0.62187541  0.63907397  1
  O  O295  1  0.87971251  0.12334851  0.12759069  1
  O  O296  1  0.87939510  0.13486774  0.63416758  1
  O  O297  1  0.87984788  0.61679626  0.14515962  1
  O  O298  1  0.86928146  0.62114713  0.64174231  1
  O  O299  1  0.25108705  0.25860482  0.11673965  1
  O  O300  1  0.26406974  0.25980300  0.63051146  1
  O  O301  1  0.25338504  0.75860405  0.11876285  1
  O  O302  1  0.25824098  0.76313667  0.61724993  1
  O  O303  1  0.74998744  0.25180240  0.11508685  1
  O  O304  1  0.76191637  0.25479321  0.62492253  1
  O  O305  1  0.76034968  0.75507173  0.12629327  1
  O  O306  1  0.74890597  0.75927707  0.60725451  1
  O  O307  1  0.23970569  0.23616027  0.37037178  1
  O  O308  1  0.24714599  0.25698071  0.88962348  1
  O  O309  1  0.25775623  0.73942992  0.37896018  1
  O  O310  1  0.23936805  0.75134927  0.88117816  1
  O  O311  1  0.74826519  0.24539119  0.37706585  1
  O  O312  1  0.74745908  0.24279191  0.88077825  1
  O  O313  1  0.73976106  0.75406506  0.38535820  1
  O  O314  1  0.75159236  0.74693381  0.87682531  1
  O  O315  1  0.00185047  0.12082922  0.00819348  1
  O  O316  1  -0.00657773  0.10819863  0.51840173  1
  O  O317  1  0.00871279  0.61652716  -0.00275698  1
  O  O318  1  0.01175096  0.61824278  0.49633471  1
  O  O319  1  0.50211657  0.13168698  0.01442267  1
  O  O320  1  0.51218835  0.12320395  0.50812962  1
  O  O321  1  0.50588801  0.61371000  -0.00863388  1
  O  O322  1  0.49809735  0.60908284  0.49790608  1
  O  O323  1  0.49437057  0.38370863  0.49354527  1
  O  O324  1  0.49537748  0.38304758  0.99612300  1
  O  O325  1  0.48518386  0.88472399  0.50086171  1
  O  O326  1  0.48726944  0.87362208  1.01040513  1
  O  O327  1  0.98983444  0.39407514  0.50989074  1
  O  O328  1  0.99334742  0.38101226  0.99381629  1
  O  O329  1  0.99831655  0.87553839  0.48682952  1
  O  O330  1  0.99554226  0.88139499  0.99219580  1
  O  O331  1  0.49332650  0.49330097  0.37978575  1
  O  O332  1  0.49326249  0.49240952  0.88416342  1
  O  O333  1  0.51655588  0.99491855  0.36244068  1
  O  O334  1  0.49771918  0.97803446  0.87045723  1
  O  O335  1  0.99856063  0.48594700  0.39178646  1
  O  O336  1  0.99267623  0.49079792  0.88067748  1
  O  O337  1  1.00677011  0.99005823  0.38645501  1
  O  O338  1  0.99320853  0.99457645  0.87963904  1
  O  O339  1  0.00432276  0.00599231  0.11818627  1
  O  O340  1  0.00053617  0.01094377  0.63446264  1
  O  O341  1  0.01022210  0.50266423  0.11608528  1
  O  O342  1  0.01103494  0.50139559  0.62332125  1
  O  O343  1  0.50366461  0.01114606  0.12653220  1
  O  O344  1  0.50305432  0.01519357  0.62715400  1
  O  O345  1  0.50779495  0.49667972  0.11703397  1
  O  O346  1  0.50857966  0.49738917  0.61643983  1
  O  O347  1  0.24120202  0.38090629  0.24457592  1
  O  O348  1  0.24543075  0.38786644  0.74637014  1
  O  O349  1  0.23672792  0.87630156  0.24324729  1
  O  O350  1  0.24487862  0.88206772  0.74417393  1
  O  O351  1  0.74472597  0.38126338  0.25067181  1
  O  O352  1  0.74483803  0.37891369  0.74115229  1
  O  O353  1  0.76387740  0.88136159  0.24308049  1
  O  O354  1  0.75369327  0.88278211  0.73765628  1
  O  O355  1  0.22016752  0.10698041  0.24828275  1
  O  O356  1  0.26008688  0.11787401  0.74559673  1
  O  O357  1  0.24386879  0.61638425  0.26083234  1
  O  O358  1  0.25690697  0.61562784  0.74966125  1
  O  O359  1  0.75851996  0.11813140  0.25582589  1
  O  O360  1  0.75696500  0.12201399  0.76056533  1
  O  O361  1  0.75901581  0.61016845  0.25057619  1
  O  O362  1  0.75492494  0.62280949  0.75720795  1
  O  O363  1  0.38710006  0.12628385  0.37486576  1
  O  O364  1  0.38276200  0.12353323  0.86343633  1
  O  O365  1  0.36608064  0.61347444  0.38353525  1
  O  O366  1  0.37394125  0.62124746  0.86465274  1
  O  O367  1  0.86978616  0.13131243  0.36559328  1
  O  O368  1  0.87009126  0.12047015  0.86905367  1
  O  O369  1  0.88228369  0.60618578  0.36452365  1
  O  O370  1  0.88162113  0.61322911  0.86930855  1
  O  O371  1  0.13115182  0.38588439  0.12669088  1
  O  O372  1  0.12935884  0.38487511  0.63527704  1
  O  O373  1  0.12958718  0.87953876  0.13040810  1
  O  O374  1  0.13502477  0.86911174  0.63808380  1
  O  O375  1  0.62629261  0.38602564  0.13286135  1
  O  O376  1  0.63148295  0.38025666  0.62868426  1
  O  O377  1  0.64201159  0.87137630  0.12049387  1
  O  O378  1  0.64388850  0.87915542  0.61468718  1
  O  O379  1  0.11351706  0.26651824  0.23738473  1
  O  O380  1  0.13564540  0.26520354  0.75265817  1
  O  O381  1  0.12565149  0.76179284  0.24435069  1
  O  O382  1  0.12185970  0.75496169  0.75539412  1
  O  O383  1  0.62026756  0.25339716  0.25690918  1
  O  O384  1  0.61777354  0.25699032  0.75073032  1
  O  O385  1  0.61154645  0.74214737  0.25531986  1
  O  O386  1  0.63778000  0.72680315  0.76223106  1
  O  O387  1  0.39165025  0.26296354  0.24948011  1
  O  O388  1  0.37949737  0.24540347  0.74379903  1
  O  O389  1  0.38925171  0.75855101  0.24274327  1
  O  O390  1  0.36689531  0.73535946  0.74908974  1
  O  O391  1  0.87927123  0.24084369  0.24201508  1
  O  O392  1  0.87040418  0.23820167  0.74820816  1
  O  O393  1  0.87217649  0.72744777  0.25835318  1
  O  O394  1  0.88947515  0.74091554  0.75682059  1
  O  O395  1  0.38068057  0.49143038  0.49448383  1
  O  O396  1  0.38142827  0.49800526  0.99684977  1
  O  O397  1  0.37525473  0.99372354  0.50333372  1
  O  O398  1  0.36873749  0.98273885  1.00154566  1
  O  O399  1  0.88277865  0.51078498  0.49358025  1
  O  O400  1  0.87748976  0.49566294  0.99402002  1
  O  O401  1  0.89724276  0.99112857  0.50901397  1
  O  O402  1  0.87728326  0.98883142  0.99381609  1
  O  O403  1  0.11996395  0.00418977  0.00681144  1
  O  O404  1  0.10312858  -0.01659018  0.51383731  1
  O  O405  1  0.12312913  0.50487711  0.00573538  1
  O  O406  1  0.11859165  0.50659420  0.51057526  1
  O  O407  1  0.65253151  0.01013714  0.01308740  1
  O  O408  1  0.62427897  0.01387492  0.50016104  1
  O  O409  1  0.61831882  0.50600437  0.00925295  1
  O  O410  1  0.61774904  0.49677273  0.50508013  1
  O  O411  1  0.36705703  0.37575560  0.11906790  1
  O  O412  1  0.37046265  0.37086186  0.61833703  1
  O  O413  1  0.36368967  0.86354645  0.11254621  1
  O  O414  1  0.36705253  0.87797339  0.61615101  1
  O  O415  1  0.87341281  0.37714769  0.10939182  1
  O  O416  1  0.87031644  0.35890425  0.63692025  1
  O  O417  1  0.86998705  0.87477745  0.11713209  1
  O  O418  1  0.85961008  0.87287891  0.62384754  1
  O  O419  1  0.08292392  0.14071484  0.38957196  1
  O  O420  1  0.11658800  0.12483784  0.89011830  1
  O  O421  1  0.13739347  0.61603154  0.39058410  1
  O  O422  1  0.12739922  0.63357018  0.87830244  1
  O  O423  1  0.64370355  0.13761480  0.38255369  1
  O  O424  1  0.63299695  0.12669926  0.87683372  1
  O  O425  1  0.62306332  0.63716350  0.37718441  1
  O  O426  1  0.63036648  0.61681066  0.88274343  1
