# generated using pymatgen
data_V85Zn86O256
_symmetry_space_group_name_H-M   'P 1'
_cell_length_a   16.92497054
_cell_length_b   16.92237642
_cell_length_c   16.91598140
_cell_angle_alpha   89.91205317
_cell_angle_beta   90.03717599
_cell_angle_gamma   90.02448237
_symmetry_Int_Tables_number   1
_chemical_formula_structural   V85Zn86O256
_chemical_formula_sum   'V85 Zn86 O256'
_cell_volume   4844.91128800
_cell_formula_units_Z   1
loop_
 _symmetry_equiv_pos_site_id
 _symmetry_equiv_pos_as_xyz
  1  'x, y, z'
loop_
 _atom_site_type_symbol
 _atom_site_label
 _atom_site_symmetry_multiplicity
 _atom_site_fract_x
 _atom_site_fract_y
 _atom_site_fract_z
 _atom_site_occupancy
  V  V0  1  0.50362536  0.37732452  0.38183784  1
  V  V1  1  0.74454325  0.74455987  0.48856493  1
  V  V2  1  0.49806669  0.37412549  0.87579457  1
  V  V3  1  -0.01125231  0.88027107  0.37286973  1
  V  V4  1  0.62881205  0.50107959  0.13058229  1
  V  V5  1  0.49952126  0.75509416  0.26064046  1
  V  V6  1  0.12654017  0.13736911  0.50035485  1
  V  V7  1  0.12297065  0.75066871  0.37449175  1
  V  V8  1  0.37841971  0.50093391  0.38222298  1
  V  V9  1  0.74905832  0.50043604  0.74946117  1
  V  V10  1  0.38414737  0.87438139  0.49802640  1
  V  V11  1  0.12374420  0.87259039  0.76265267  1
  V  V12  1  0.25013526  0.13206525  0.37964198  1
  V  V13  1  0.00350511  -0.00410371  -0.00455864  1
  V  V14  1  0.37583848  0.74809783  0.62614109  1
  V  V15  1  0.00295326  0.37273079  0.87624415  1
  V  V16  1  0.37266489  0.62526767  0.24935130  1
  V  V17  1  0.24379173  0.36768440  0.13393258  1
  V  V18  1  0.87785501  0.74815346  0.62160620  1
  V  V19  1  -0.00608476  0.00204220  0.49616782  1
  V  V20  1  0.87494225  0.49934023  0.87462408  1
  V  V21  1  0.62120758  -0.00004540  0.12395279  1
  V  V22  1  0.74732208  0.75281701  -0.00306297  1
  V  V23  1  0.50747426  0.00350909  0.49745922  1
  V  V24  1  0.87848168  0.11592195  0.25783274  1
  V  V25  1  0.12703591  0.50172439  0.62826424  1
  V  V26  1  0.25130529  0.87555396  0.12478115  1
  V  V27  1  0.00578582  0.50090661  0.00046802  1
  V  V28  1  -0.00444383  0.62959729  0.13032985  1
  V  V29  1  0.62289167  0.62856343  -0.00506850  1
  V  V30  1  0.37136071  0.36907573  0.49930259  1
  V  V31  1  0.25105293  0.00210255  0.25227564  1
  V  V32  1  0.87353147  0.37915824  0.49332607  1
  V  V33  1  0.24783164  0.37351878  0.62213174  1
  V  V34  1  0.74943826  0.37627618  0.62348387  1
  V  V35  1  0.25056694  0.75166446  0.49933520  1
  V  V36  1  0.62393367  0.11968606  -0.00044520  1
  V  V37  1  0.49748509  0.12479460  0.62888930  1
  V  V38  1  0.62617828  0.00380549  0.62687765  1
  V  V39  1  0.74717191  0.87105565  0.62636634  1
  V  V40  1  0.00195910  0.75196577  0.76620116  1
  V  V41  1  0.37801823  0.89041001  -0.00732224  1
  V  V42  1  0.37429105  0.37054104  0.01168132  1
  V  V43  1  0.49927115  0.62672653  0.12413437  1
  V  V44  1  0.87698413  0.37332709  0.00260736  1
  V  V45  1  0.37603315  0.75126084  0.11950254  1
  V  V46  1  0.61949155  0.62368201  0.48782992  1
  V  V47  1  0.62240512  0.37446406  0.74980723  1
  V  V48  1  0.37993049  -0.00193582  0.37521001  1
  V  V49  1  0.00788890  0.37157517  0.36716568  1
  V  V50  1  -0.00370655  0.12354586  0.63367903  1
  V  V51  1  0.49792075  0.49947272  0.00061282  1
  V  V52  1  0.24363296  0.63044101  0.87511883  1
  V  V53  1  0.62498178  0.24986024  0.87532993  1
  V  V54  1  0.87462534  0.24855771  0.63182388  1
  V  V55  1  0.49422084  0.12758289  0.12226282  1
  V  V56  1  0.24828142  0.62443519  0.37450606  1
  V  V57  1  0.74725914  0.87586028  0.12457609  1
  V  V58  1  0.24970768  0.24491004  0.00380219  1
  V  V59  1  0.12529833  0.23751699  0.87836602  1
  V  V60  1  0.61575631  0.50180117  0.62079139  1
  V  V61  1  0.75167735  0.37763345  0.13427252  1
  V  V62  1  -0.00392310  0.50261935  0.49860747  1
  V  V63  1  0.12549880  -0.00024723  0.62419801  1
  V  V64  1  0.74711285  0.24226407  0.50073186  1
  V  V65  1  0.62476497  0.23959516  0.37847626  1
  V  V66  1  0.74695892  0.62901908  0.87304044  1
  V  V67  1  0.75140821  0.24900442  0.00261419  1
  V  V68  1  0.50533209  0.88863648  0.87721132  1
  V  V69  1  0.12141292  0.87767055  0.25086104  1
  V  V70  1  0.26774457  0.12246931  0.87269449  1
  V  V71  1  0.13044187  0.37462765  0.75284720  1
  V  V72  1  0.50520917  0.74593137  0.76039445  1
  V  V73  1  0.61927769  0.87335350  0.26356251  1
  V  V74  1  0.80793044  0.56459408  0.31068697  1
  V  V75  1  0.12575456  0.50000265  0.13580726  1
  V  V76  1  0.26273899  0.00355858  0.75121362  1
  V  V77  1  0.36928792  0.61945092  0.74903634  1
  V  V78  1  0.24935642  0.87557961  0.62508542  1
  V  V79  1  0.00862568  0.12681856  0.12301196  1
  V  V80  1  0.76093762  0.12400369  0.86733233  1
  V  V81  1  0.49774762  0.25091263  0.24750559  1
  V  V82  1  0.36483791  0.49571351  0.87290229  1
  V  V83  1  0.36982197  0.24542688  0.62897056  1
  V  V84  1  0.87804267  0.24801911  0.13654190  1
  Zn  Zn85  1  0.37611292  0.12744732  0.24758591  1
  Zn  Zn86  1  0.75343446  0.11584939  0.38069042  1
  Zn  Zn87  1  -0.01067274  0.74363555  0.25698483  1
  Zn  Zn88  1  0.12421628  0.25392567  0.35263051  1
  Zn  Zn89  1  0.75870659  0.00188712  0.74599229  1
  Zn  Zn90  1  0.87652249  0.62471524  0.74863270  1
  Zn  Zn91  1  0.12744026  0.00411179  0.12181093  1
  Zn  Zn92  1  -0.00311250  0.24667055  0.75454582  1
  Zn  Zn93  1  0.24441948  0.75968213  -0.01042767  1
  Zn  Zn94  1  0.86714047  0.74534788  0.12928092  1
  Zn  Zn95  1  0.88607773  -0.00750721  0.86310220  1
  Zn  Zn96  1  0.62840203  0.37783022  0.25591413  1
  Zn  Zn97  1  0.00127326  0.62775997  0.62493871  1
  Zn  Zn98  1  0.12294213  0.62625592  0.50181728  1
  Zn  Zn99  1  0.86872409  0.87828417  0.49543770  1
  Zn  Zn100  1  0.12184564  0.63630784  -0.00294490  1
  Zn  Zn101  1  0.49437470  0.24265546  0.75345848  1
  Zn  Zn102  1  0.49856736  0.62360674  0.62275949  1
  Zn  Zn103  1  0.62815441  0.87158427  0.75502558  1
  Zn  Zn104  1  0.24814919  0.49523512  0.25424053  1
  Zn  Zn105  1  0.75137594  -0.00288675  0.25835633  1
  Zn  Zn106  1  0.87712126  0.87609530  -0.00403013  1
  Zn  Zn107  1  0.18778237  0.19030978  0.19215994  1
  Zn  Zn108  1  0.18763395  0.18835015  0.69068902  1
  Zn  Zn109  1  0.18354249  0.68857566  0.18582222  1
  Zn  Zn110  1  0.18644445  0.68766814  0.69122380  1
  Zn  Zn111  1  0.68845496  0.18719783  0.19209693  1
  Zn  Zn112  1  0.68262985  0.18760032  0.68597356  1
  Zn  Zn113  1  0.68604674  0.69016662  0.18995537  1
  Zn  Zn114  1  0.68658698  0.68595611  0.68375216  1
  Zn  Zn115  1  0.31463579  0.30984211  0.31250084  1
  Zn  Zn116  1  0.31035892  0.31117701  0.81165445  1
  Zn  Zn117  1  0.31434514  0.81393951  0.31219306  1
  Zn  Zn118  1  0.31565656  0.81442905  0.81006819  1
  Zn  Zn119  1  0.81411094  0.31216208  0.31595310  1
  Zn  Zn120  1  0.81129466  0.31266764  0.81334090  1
  Zn  Zn121  1  0.80956401  0.80819087  0.30720419  1
  Zn  Zn122  1  0.81771367  0.81317819  0.81155590  1
  Zn  Zn123  1  0.18658352  0.43803844  0.44154633  1
  Zn  Zn124  1  0.18750055  0.43544522  0.94190966  1
  Zn  Zn125  1  0.18656088  0.94062593  0.43834417  1
  Zn  Zn126  1  0.18767398  0.94598662  0.93958591  1
  Zn  Zn127  1  0.68842662  0.43960960  0.43685336  1
  Zn  Zn128  1  0.68779555  0.43884679  0.94188520  1
  Zn  Zn129  1  0.68953993  0.93698681  0.43822932  1
  Zn  Zn130  1  0.68881976  0.93987190  0.93481841  1
  Zn  Zn131  1  0.31187040  0.06416214  0.06087098  1
  Zn  Zn132  1  0.31372663  0.06320012  0.56137312  1
  Zn  Zn133  1  0.30863435  0.56027918  0.06027419  1
  Zn  Zn134  1  0.30965116  0.55910411  0.56140294  1
  Zn  Zn135  1  0.81490149  0.06073835  0.06267236  1
  Zn  Zn136  1  0.81470593  0.06202292  0.56602828  1
  Zn  Zn137  1  0.81349442  0.56115139  0.06357827  1
  Zn  Zn138  1  0.80879763  0.56441461  0.55902017  1
  Zn  Zn139  1  0.43811859  0.43849446  0.19321092  1
  Zn  Zn140  1  0.43558162  0.43470624  0.68832753  1
  Zn  Zn141  1  0.43978450  0.94049354  0.18467027  1
  Zn  Zn142  1  0.44155629  0.93296586  0.68649455  1
  Zn  Zn143  1  0.93378243  0.44486474  0.19036883  1
  Zn  Zn144  1  0.93984698  0.43570397  0.68669051  1
  Zn  Zn145  1  0.93620908  0.93808687  0.18124587  1
  Zn  Zn146  1  0.93515814  0.93283685  0.68939879  1
  Zn  Zn147  1  0.06204660  0.06672988  0.31111854  1
  Zn  Zn148  1  0.06828718  0.05926874  0.81166762  1
  Zn  Zn149  1  0.05729172  0.55999305  0.31595561  1
  Zn  Zn150  1  0.06091131  0.56226322  0.80813384  1
  Zn  Zn151  1  0.56363610  0.06097679  0.31013923  1
  Zn  Zn152  1  0.56855311  0.06198552  0.80863633  1
  Zn  Zn153  1  0.56006201  0.56245010  0.31033063  1
  Zn  Zn154  1  0.55915038  0.55986453  0.81223167  1
  Zn  Zn155  1  0.43849680  0.18597740  0.44138079  1
  Zn  Zn156  1  0.43841053  0.18918196  0.94145958  1
  Zn  Zn157  1  0.43903963  0.68553696  0.43898208  1
  Zn  Zn158  1  0.43120760  0.68857641  0.93677371  1
  Zn  Zn159  1  0.93989989  0.19293946  0.44190877  1
  Zn  Zn160  1  0.93931961  0.18556790  0.94532278  1
  Zn  Zn161  1  0.93279962  0.68593401  0.43541917  1
  Zn  Zn162  1  0.93153787  0.68588916  0.94265118  1
  Zn  Zn163  1  0.06711307  0.30825595  0.07117826  1
  Zn  Zn164  1  0.05898802  0.31372491  0.56152096  1
  Zn  Zn165  1  0.06607419  0.81336347  0.05858622  1
  Zn  Zn166  1  0.06069664  0.81569251  0.56159486  1
  Zn  Zn167  1  0.56505578  0.31108741  0.06372628  1
  Zn  Zn168  1  0.56052074  0.31013650  0.56103827  1
  Zn  Zn169  1  0.56269805  0.81294325  0.06004661  1
  Zn  Zn170  1  0.56378434  0.80954559  0.56545964  1
  O  O171  1  0.11179931  0.12412069  0.13007686  1
  O  O172  1  0.12145702  0.11884390  0.61924213  1
  O  O173  1  0.11805059  0.61624476  0.12038913  1
  O  O174  1  0.12650484  0.61525454  0.62393887  1
  O  O175  1  0.62149012  0.11957976  0.11932381  1
  O  O176  1  0.61949868  0.11143161  0.62466569  1
  O  O177  1  0.61980207  0.61866468  0.11624674  1
  O  O178  1  0.62182185  0.61552825  0.61908666  1
  O  O179  1  0.37894182  0.37985324  0.38250055  1
  O  O180  1  0.37661857  0.38042236  0.88157087  1
  O  O181  1  0.36891308  0.88822313  0.38379646  1
  O  O182  1  0.38152040  0.87272065  0.88720488  1
  O  O183  1  0.88273608  0.36989066  0.38886257  1
  O  O184  1  0.88120602  0.37871541  0.88163185  1
  O  O185  1  0.88622176  0.87304003  0.37474370  1
  O  O186  1  0.86224325  0.88197171  0.88394182  1
  O  O187  1  0.25561460  0.00763261  0.36857890  1
  O  O188  1  0.24936975  0.01514540  0.86855399  1
  O  O189  1  0.25510773  0.50687045  0.37482323  1
  O  O190  1  0.26060699  0.50523291  0.87943854  1
  O  O191  1  0.74826306  0.00315703  0.37298726  1
  O  O192  1  0.74813652  0.01766065  0.87385303  1
  O  O193  1  0.75635567  0.49956128  0.37152867  1
  O  O194  1  0.75412265  0.50712050  0.87149823  1
  O  O195  1  0.24111814  0.49269536  0.12602591  1
  O  O196  1  0.24139345  0.48589569  0.62189200  1
  O  O197  1  0.25124709  0.99233869  0.13235094  1
  O  O198  1  0.24312688  0.99738960  0.63002854  1
  O  O199  1  0.73978675  0.48990861  0.11447049  1
  O  O200  1  0.74079864  0.49504408  0.63056641  1
  O  O201  1  0.73804756  0.99527102  0.12810085  1
  O  O202  1  0.74243635  0.99115979  0.62093066  1
  O  O203  1  -0.00792601  0.38573553  0.26967255  1
  O  O204  1  0.01012566  0.37162165  0.75847983  1
  O  O205  1  0.00833993  0.87946515  0.25494038  1
  O  O206  1  0.00913094  0.86098324  0.74555896  1
  O  O207  1  0.50124130  0.36806474  0.26179972  1
  O  O208  1  0.50673510  0.37405211  0.75852763  1
  O  O209  1  0.51032818  0.86973812  0.24400311  1
  O  O210  1  0.49794620  0.86396264  0.76292254  1
  O  O211  1  0.50158086  0.13198903  0.24074805  1
  O  O212  1  0.50416787  0.12407094  0.73532166  1
  O  O213  1  0.49315009  0.63406265  0.24274157  1
  O  O214  1  0.49002359  0.63315607  0.75152295  1
  O  O215  1  0.98929018  0.12082175  0.23772620  1
  O  O216  1  1.00856792  0.12639235  0.73689280  1
  O  O217  1  1.00644060  0.62474917  0.23433373  1
  O  O218  1  0.99906227  0.63845210  0.74693835  1
  O  O219  1  0.36338377  0.26043821  -0.00544325  1
  O  O220  1  0.37830845  0.26157465  0.51000281  1
  O  O221  1  0.36913920  0.75708288  0.00998018  1
  O  O222  1  0.37142334  0.75666918  0.50438045  1
  O  O223  1  0.86937491  0.25480108  0.01110902  1
  O  O224  1  0.86840866  0.25888572  0.51066633  1
  O  O225  1  0.85910241  0.75011938  0.00704799  1
  O  O226  1  0.86194847  0.75043761  0.50451073  1
  O  O227  1  0.12285802  0.23834681  0.50085961  1
  O  O228  1  0.13929377  0.25605241  0.99112954  1
  O  O229  1  0.13110378  0.75322216  0.48847712  1
  O  O230  1  0.13334022  0.74929769  0.99970396  1
  O  O231  1  0.63525035  0.25484029  0.49232504  1
  O  O232  1  0.63305947  0.24324720  0.99492552  1
  O  O233  1  0.63459150  0.73802240  0.50592447  1
  O  O234  1  0.63187059  0.73743266  1.00186297  1
  O  O235  1  0.50774588  0.24208059  0.13552213  1
  O  O236  1  0.49264196  0.24090023  0.62525832  1
  O  O237  1  0.49131095  0.74566558  0.12778389  1
  O  O238  1  0.49110605  0.74982240  0.63775364  1
  O  O239  1  0.99105907  0.23711980  0.11771994  1
  O  O240  1  0.99154975  0.24212583  0.62578269  1
  O  O241  1  1.00236540  0.73517887  0.12338257  1
  O  O242  1  0.99050489  0.74884760  0.62332306  1
  O  O243  1  0.00381424  0.26669105  0.38110549  1
  O  O244  1  0.00834701  0.25286606  0.87824233  1
  O  O245  1  0.00802944  0.75977498  0.37654190  1
  O  O246  1  -0.00570574  0.74669827  0.86470631  1
  O  O247  1  0.50760766  0.25481261  0.37303511  1
  O  O248  1  0.50667226  0.25602724  0.87410499  1
  O  O249  1  0.48844959  0.75140251  0.35981843  1
  O  O250  1  0.49280371  0.75443152  0.86320977  1
  O  O251  1  0.23910362  0.11631969  0.49064715  1
  O  O252  1  0.25558127  0.13175408  0.98722373  1
  O  O253  1  0.24846647  0.63311754  0.49155507  1
  O  O254  1  0.25121773  0.62601588  0.98418373  1
  O  O255  1  0.75713953  0.13863910  0.50007357  1
  O  O256  1  0.74391406  0.13133128  0.99386605  1
  O  O257  1  0.73839800  0.63683256  0.50171635  1
  O  O258  1  0.74188384  0.62921818  0.99414662  1
  O  O259  1  0.25725852  0.36841495  0.00907693  1
  O  O260  1  0.25903956  0.37520921  0.50790082  1
  O  O261  1  0.26160803  0.87993377  0.00603589  1
  O  O262  1  0.25862196  0.87175198  0.50483772  1
  O  O263  1  0.75656806  0.36826978  0.00803843  1
  O  O264  1  0.75667581  0.36833411  0.50538705  1
  O  O265  1  0.74098323  0.86528856  0.00589430  1
  O  O266  1  0.74652612  0.86273276  0.50999265  1
  O  O267  1  0.12665420  0.50209253  0.23949294  1
  O  O268  1  0.11811038  0.49027499  0.73710369  1
  O  O269  1  0.13469419  0.99443748  0.24926659  1
  O  O270  1  0.13162910  0.99299268  0.73898381  1
  O  O271  1  0.61712416  0.49754173  0.23450006  1
  O  O272  1  0.62896588  0.49413045  0.74336267  1
  O  O273  1  0.62412038  0.98783150  0.24264236  1
  O  O274  1  0.63409303  0.99423046  0.74078360  1
  O  O275  1  0.36976829  0.00040093  0.25819752  1
  O  O276  1  0.36140055  -0.00678261  0.74264900  1
  O  O277  1  0.37294313  0.50832967  0.26164668  1
  O  O278  1  0.37991054  0.50791831  0.75931678  1
  O  O279  1  0.87362370  0.01284589  0.24662395  1
  O  O280  1  0.87269571  0.00163157  0.74906856  1
  O  O281  1  0.85886016  0.50880445  0.24168107  1
  O  O282  1  0.86874550  0.50006247  0.75574647  1
  O  O283  1  0.11223656  0.37412792  0.38224659  1
  O  O284  1  0.12326503  0.36863345  0.86927038  1
  O  O285  1  0.12213411  0.87063437  0.36560575  1
  O  O286  1  0.13263340  0.88140451  0.86142007  1
  O  O287  1  0.61728294  0.36912277  0.37594929  1
  O  O288  1  0.62061678  0.37009743  0.87271461  1
  O  O289  1  0.62109648  0.87604531  0.36170254  1
  O  O290  1  0.61019454  0.87596694  0.87544356  1
  O  O291  1  0.39025914  0.12010216  0.12457777  1
  O  O292  1  0.38059846  0.13500274  0.62093813  1
  O  O293  1  0.37673546  0.63276101  0.12701877  1
  O  O294  1  0.37516581  0.62650884  0.63242091  1
  O  O295  1  0.88143373  0.13183139  0.13317198  1
  O  O296  1  0.88514226  0.13504225  0.62072113  1
  O  O297  1  0.89216364  0.62359426  0.11830691  1
  O  O298  1  0.87280841  0.63674310  0.62693817  1
  O  O299  1  0.25037872  0.25442593  0.11438764  1
  O  O300  1  0.25545824  0.26116309  0.62871997  1
  O  O301  1  0.25745970  0.76432622  0.12908404  1
  O  O302  1  0.25576189  0.75430896  0.62019650  1
  O  O303  1  0.75660730  0.25615675  0.12098666  1
  O  O304  1  0.75393108  0.25489932  0.61984488  1
  O  O305  1  0.74437553  0.75808679  0.11548853  1
  O  O306  1  0.75543352  0.75428598  0.61882922  1
  O  O307  1  0.25059976  0.23561709  0.37186472  1
  O  O308  1  0.24579724  0.23992559  0.87888494  1
  O  O309  1  0.24405657  0.74591262  0.37825450  1
  O  O310  1  0.25795023  0.73420280  0.87222912  1
  O  O311  1  0.74250439  0.24889642  0.38379239  1
  O  O312  1  0.74528235  0.24254658  0.88127578  1
  O  O313  1  0.74759390  0.75763975  0.39062867  1
  O  O314  1  0.75098853  0.73596407  0.87972432  1
  O  O315  1  -0.00175645  0.11645736  0.01583197  1
  O  O316  1  0.00763851  0.11943380  0.50752065  1
  O  O317  1  0.00212585  0.61659209  0.00667964  1
  O  O318  1  0.00149639  0.61718565  0.50200056  1
  O  O319  1  0.51206615  0.13371186  0.00898421  1
  O  O320  1  0.49620736  0.11355692  0.51256729  1
  O  O321  1  0.50466789  0.62233977  0.00292410  1
  O  O322  1  0.51411497  0.63108320  0.50515187  1
  O  O323  1  0.49139816  0.37232439  0.48884832  1
  O  O324  1  0.49229003  0.37701231  0.99661048  1
  O  O325  1  0.48869986  0.87943291  0.50548419  1
  O  O326  1  0.49032249  0.86975799  0.98684703  1
  O  O327  1  0.99073229  0.38244770  0.49755335  1
  O  O328  1  0.99723179  0.38064733  0.99674168  1
  O  O329  1  1.00002667  0.88471125  0.48968812  1
  O  O330  1  0.99600234  0.89144009  1.01170199  1
  O  O331  1  0.49047634  0.49052016  0.37098384  1
  O  O332  1  0.48996394  0.49373630  0.88199585  1
  O  O333  1  0.49133907  1.00652681  0.38336909  1
  O  O334  1  0.49987182  0.98714532  0.86822536  1
  O  O335  1  1.00502106  0.49075743  0.39123190  1
  O  O336  1  0.99651981  0.49535296  0.88216213  1
  O  O337  1  1.00950519  0.99234835  0.38433968  1
  O  O338  1  1.00235550  1.00992357  0.89049382  1
  O  O339  1  0.00189144  0.01160892  0.11880812  1
  O  O340  1  0.00796525  0.00514748  0.61912114  1
  O  O341  1  0.00663311  0.50604923  0.11925512  1
  O  O342  1  0.00687683  0.50148256  0.61680010  1
  O  O343  1  0.51313367  0.00998246  0.12754169  1
  O  O344  1  0.50577161  0.00386318  0.61994081  1
  O  O345  1  0.50372723  0.50628535  0.11919139  1
  O  O346  1  0.51218088  0.49908615  0.62845409  1
  O  O347  1  0.26245082  0.37702577  0.23616347  1
  O  O348  1  0.23713801  0.37341161  0.74436267  1
  O  O349  1  0.24618521  0.88475704  0.24518639  1
  O  O350  1  0.24433147  0.87974517  0.74384715  1
  O  O351  1  0.74864022  0.36878835  0.23789053  1
  O  O352  1  0.74208885  0.38036699  0.74530515  1
  O  O353  1  0.73424783  0.87383660  0.24197202  1
  O  O354  1  0.74655280  0.86889752  0.73605306  1
  O  O355  1  0.25441916  0.11454124  0.25397712  1
  O  O356  1  0.24833543  0.11824707  0.76206572  1
  O  O357  1  0.25561308  0.62633706  0.25765973  1
  O  O358  1  0.26076781  0.62601577  0.75923247  1
  O  O359  1  0.76603593  0.12479298  0.25131285  1
  O  O360  1  0.74565790  0.12965954  0.76502095  1
  O  O361  1  0.74188381  0.62467896  0.25960840  1
  O  O362  1  0.74920040  0.61952166  0.75801964  1
  O  O363  1  0.36779720  0.11426908  0.37763272  1
  O  O364  1  0.36654021  0.13048197  0.87160771  1
  O  O365  1  0.36958464  0.61774422  0.37306800  1
  O  O366  1  0.36741999  0.61568405  0.86899816  1
  O  O367  1  0.88078189  0.13377180  0.36002949  1
  O  O368  1  0.86201838  0.12948343  0.87847658  1
  O  O369  1  0.87494574  0.61978164  0.36612034  1
  O  O370  1  0.86488721  0.61638673  0.87454844  1
  O  O371  1  0.13534252  0.38635923  0.11770254  1
  O  O372  1  0.13018756  0.37686755  0.63137224  1
  O  O373  1  0.13420406  0.87636627  0.13716625  1
  O  O374  1  0.13123284  0.88338751  0.62835830  1
  O  O375  1  0.63397759  0.38304250  0.12460820  1
  O  O376  1  0.62930405  0.38061409  0.62813991  1
  O  O377  1  0.62945383  0.88361461  0.12462145  1
  O  O378  1  0.62971080  0.88317704  0.62808111  1
  O  O379  1  0.12820385  0.26615774  0.24170871  1
  O  O380  1  0.12239103  0.25736623  0.76015281  1
  O  O381  1  0.12185814  0.75857310  0.26045578  1
  O  O382  1  0.11186144  0.75723717  0.74723812  1
  O  O383  1  0.61686603  0.25358366  0.25997673  1
  O  O384  1  0.62216759  0.25798018  0.75693020  1
  O  O385  1  0.61319032  0.76481189  0.24320126  1
  O  O386  1  0.60800061  0.74834664  0.74607308  1
  O  O387  1  0.39249410  0.24534971  0.25705089  1
  O  O388  1  0.37782139  0.25897721  0.73426834  1
  O  O389  1  0.37954337  0.74847159  0.23833868  1
  O  O390  1  0.38189806  0.74140680  0.74493308  1
  O  O391  1  0.87346907  0.24428133  0.23993007  1
  O  O392  1  0.87639370  0.25708020  0.73649087  1
  O  O393  1  0.87897142  0.75561967  0.24060534  1
  O  O394  1  0.88775575  0.74953768  0.74157063  1
  O  O395  1  0.37248662  0.49066236  0.48930067  1
  O  O396  1  0.37930527  0.49175295  0.99307936  1
  O  O397  1  0.38341768  0.99241901  0.49514214  1
  O  O398  1  0.37881688  0.98850416  1.00216687  1
  O  O399  1  0.88218985  0.49042271  0.50955055  1
  O  O400  1  0.88615149  0.49324362  0.99615574  1
  O  O401  1  0.88984148  0.99829547  0.50490392  1
  O  O402  1  0.88909310  1.00197668  0.99788913  1
  O  O403  1  0.11147138  -0.00126774  0.00544201  1
  O  O404  1  0.11843024  0.00555541  0.51071151  1
  O  O405  1  0.11425742  0.50156512  0.00547009  1
  O  O406  1  0.11702177  0.50026600  0.51297228  1
  O  O407  1  0.62848886  0.01294824  0.00606700  1
  O  O408  1  0.61155341  -0.00962581  0.50718399  1
  O  O409  1  0.61699973  0.50705531  0.00840833  1
  O  O410  1  0.63117818  0.51396513  0.50741979  1
  O  O411  1  0.37037610  0.38138268  0.11519061  1
  O  O412  1  0.36756889  0.37231307  0.61770871  1
  O  O413  1  0.37229130  0.87121942  0.11500145  1
  O  O414  1  0.36937314  0.86887762  0.61714001  1
  O  O415  1  0.87089483  0.36878939  0.12248223  1
  O  O416  1  0.86885880  0.36881315  0.61830050  1
  O  O417  1  0.85599611  0.87934923  0.12021023  1
  O  O418  1  0.86658257  0.86351842  0.61923284  1
  O  O419  1  0.13092591  0.12916722  0.38193758  1
  O  O420  1  0.13316300  0.13561702  0.87213398  1
  O  O421  1  0.12908729  0.63422737  0.37565149  1
  O  O422  1  0.14171951  0.61527114  0.87206820  1
  O  O423  1  0.62634804  0.13671933  0.37258895  1
  O  O424  1  0.62985571  0.13161897  0.88262622  1
  O  O425  1  0.61792060  0.62204961  0.38856411  1
  O  O426  1  0.63144670  0.61535445  0.88565246  1
