# generated using pymatgen
data_V85Zn86O256
_symmetry_space_group_name_H-M   'P 1'
_cell_length_a   16.91506843
_cell_length_b   16.92244621
_cell_length_c   16.92057237
_cell_angle_alpha   90.03625340
_cell_angle_beta   90.06621894
_cell_angle_gamma   89.96544331
_symmetry_Int_Tables_number   1
_chemical_formula_structural   V85Zn86O256
_chemical_formula_sum   'V85 Zn86 O256'
_cell_volume   4843.41291260
_cell_formula_units_Z   1
loop_
 _symmetry_equiv_pos_site_id
 _symmetry_equiv_pos_as_xyz
  1  'x, y, z'
loop_
 _atom_site_type_symbol
 _atom_site_label
 _atom_site_symmetry_multiplicity
 _atom_site_fract_x
 _atom_site_fract_y
 _atom_site_fract_z
 _atom_site_occupancy
  V  V0  1  -0.00126058  0.75130570  0.75359238  1
  V  V1  1  0.61495084  0.50061244  0.62634449  1
  V  V2  1  0.74419219  0.38209289  0.13439915  1
  V  V3  1  0.87076499  0.11691038  0.24677449  1
  V  V4  1  0.12490593  0.87675056  0.75402822  1
  V  V5  1  0.12754008  0.87194630  0.24727462  1
  V  V6  1  0.25310667  0.63143549  0.37321548  1
  V  V7  1  0.87222696  0.61000836  0.25509036  1
  V  V8  1  -0.00745513  0.00364245  -0.00529411  1
  V  V9  1  0.75093308  0.74873703  0.50061586  1
  V  V10  1  0.36263837  0.62634367  0.74818308  1
  V  V11  1  -0.00193156  0.62556226  0.62356359  1
  V  V12  1  0.25021078  0.00213226  0.75905851  1
  V  V13  1  -0.00050139  0.12618542  0.12146830  1
  V  V14  1  0.00051200  0.37294050  0.87541481  1
  V  V15  1  0.12527130  -0.00012321  0.12226735  1
  V  V16  1  0.75393725  0.73703177  0.00760103  1
  V  V17  1  0.12832846  0.50006798  0.62472276  1
  V  V18  1  0.50121773  0.12563110  0.62762023  1
  V  V19  1  0.00302553  0.87335807  0.37678884  1
  V  V20  1  0.12743676  0.00296513  0.62714642  1
  V  V21  1  0.49445503  0.74892509  0.74152623  1
  V  V22  1  0.87812267  0.87421784  0.50007701  1
  V  V23  1  0.49968987  0.38021761  0.38542999  1
  V  V24  1  0.74644299  0.50670404  0.75403658  1
  V  V25  1  0.50033257  0.38721745  0.88267219  1
  V  V26  1  0.12577887  0.49830592  0.13075852  1
  V  V27  1  0.49887986  -0.00003438  0.50226307  1
  V  V28  1  -0.00006313  -0.00131658  0.50039042  1
  V  V29  1  0.63591968  0.00243448  0.13176285  1
  V  V30  1  0.76397109  0.24731934  0.50183811  1
  V  V31  1  0.50292249  0.25820390  0.24853230  1
  V  V32  1  0.25294902  -0.00300404  0.24897726  1
  V  V33  1  0.38070552  0.74549219  0.11983804  1
  V  V34  1  0.37205399  0.12490681  0.76143653  1
  V  V35  1  0.62567025  0.25045438  0.37255809  1
  V  V36  1  0.87108390  0.50565795  0.87766229  1
  V  V37  1  0.49743824  -0.00289428  0.00304925  1
  V  V38  1  -0.00910861  0.75123376  0.24450513  1
  V  V39  1  -0.00117768  0.49504171  0.49881688  1
  V  V40  1  0.87027849  0.87307519  0.00454371  1
  V  V41  1  0.25100480  0.49444871  0.25383892  1
  V  V42  1  0.49260863  0.87318706  0.87893907  1
  V  V43  1  0.37261806  0.85971118  0.50443431  1
  V  V44  1  -0.00080485  0.62859488  0.12274625  1
  V  V45  1  0.12725797  0.37340480  0.74981946  1
  V  V46  1  0.12570452  0.12579369  0.49920194  1
  V  V47  1  0.83140803  0.43112492  0.44326611  1
  V  V48  1  0.62940747  0.74591146  0.87617881  1
  V  V49  1  0.25635354  0.87360706  0.11136704  1
  V  V50  1  0.87151901  0.37513360  -0.00088491  1
  V  V51  1  0.74865965  0.11708370  0.37228351  1
  V  V52  1  0.50334040  0.24953132  0.76100231  1
  V  V53  1  0.25038264  0.12516030  0.37478941  1
  V  V54  1  0.13838637  0.12784463  -0.00425946  1
  V  V55  1  -0.00361346  0.24830297  0.74221181  1
  V  V56  1  0.61455431  0.50176035  0.13501392  1
  V  V57  1  0.61928345  0.62239628  0.50058516  1
  V  V58  1  0.13767828  0.24680519  0.87691141  1
  V  V59  1  0.63173134  0.74667602  0.37113036  1
  V  V60  1  0.50397660  0.74183806  0.24320072  1
  V  V61  1  0.12677137  0.25614548  0.37319847  1
  V  V62  1  -0.00572959  0.87763298  0.87637989  1
  V  V63  1  0.75361594  0.00056036  0.77155848  1
  V  V64  1  0.37888988  0.12562323  0.24993448  1
  V  V65  1  0.00082307  0.37924882  0.36992131  1
  V  V66  1  0.12874012  0.62910809  0.49607459  1
  V  V67  1  0.62490277  0.37142143  0.75597297  1
  V  V68  1  0.87689782  0.75281230  0.62725951  1
  V  V69  1  0.86596348  0.13007928  0.75496865  1
  V  V70  1  0.36694862  0.37403010  -0.00201244  1
  V  V71  1  0.60571263  0.61691809  0.00030053  1
  V  V72  1  0.24635759  0.36643478  0.12699263  1
  V  V73  1  0.12619213  0.73706095  0.88038364  1
  V  V74  1  0.74517109  0.24936033  -0.01419886  1
  V  V75  1  0.74941435  0.88141850  0.62657405  1
  V  V76  1  0.00760225  0.50279415  -0.00035323  1
  V  V77  1  0.50208651  0.87419497  0.37160171  1
  V  V78  1  0.25082947  0.72984936  -0.00304979  1
  V  V79  1  0.87129804  0.62663262  0.75342091  1
  V  V80  1  0.87090374  0.24996190  0.12109613  1
  V  V81  1  0.00370408  0.25279547  0.24690803  1
  V  V82  1  0.62660987  0.12781151  -0.01361253  1
  V  V83  1  0.37463962  0.25116589  0.62355257  1
  V  V84  1  0.76053653  0.37322409  0.62653229  1
  Zn  Zn85  1  0.75496980  0.60672601  0.37458249  1
  Zn  Zn86  1  0.38025477  0.50536272  0.38317206  1
  Zn  Zn87  1  0.48713663  0.62423940  0.61677183  1
  Zn  Zn88  1  0.86838792  -0.00580103  0.36857515  1
  Zn  Zn89  1  -0.01033052  0.13117142  0.62015356  1
  Zn  Zn90  1  0.37003980  -0.00114286  0.88408580  1
  Zn  Zn91  1  0.62668865  0.12545781  0.50215434  1
  Zn  Zn92  1  0.37486967  0.24885798  0.12185968  1
  Zn  Zn93  1  0.24504399  0.50675844  0.76003680  1
  Zn  Zn94  1  0.37955670  0.62033642  0.24565107  1
  Zn  Zn95  1  0.25133878  0.37593714  0.62337930  1
  Zn  Zn96  1  0.37556833  0.38868598  0.50803244  1
  Zn  Zn97  1  0.63452484  0.87830554  0.25057506  1
  Zn  Zn98  1  0.36838592  0.51356118  0.88674328  1
  Zn  Zn99  1  0.26104729  0.86570070  0.62854229  1
  Zn  Zn100  1  0.62621447  0.00051415  0.62862636  1
  Zn  Zn101  1  0.50404840  0.12664378  0.12545680  1
  Zn  Zn102  1  0.12936983  0.75001317  0.37121779  1
  Zn  Zn103  1  0.25191175  0.25298793  0.50088830  1
  Zn  Zn104  1  0.62422336  0.87533566  0.75253026  1
  Zn  Zn105  1  0.75671359  0.87266560  0.13324450  1
  Zn  Zn106  1  0.37554775  -0.00219090  0.37630203  1
  Zn  Zn107  1  0.18580263  0.18458709  0.18883552  1
  Zn  Zn108  1  0.18849084  0.18635273  0.68886172  1
  Zn  Zn109  1  0.18584796  0.68423191  0.18559454  1
  Zn  Zn110  1  0.18759849  0.69360161  0.68385379  1
  Zn  Zn111  1  0.68699583  0.18899326  0.18358849  1
  Zn  Zn112  1  0.68887884  0.18847387  0.68874467  1
  Zn  Zn113  1  0.68979167  0.67989545  0.18548138  1
  Zn  Zn114  1  0.68434299  0.68952488  0.68713591  1
  Zn  Zn115  1  0.31645451  0.31383086  0.31259635  1
  Zn  Zn116  1  0.31438013  0.31624959  0.81133117  1
  Zn  Zn117  1  0.31773960  0.81081481  0.30853449  1
  Zn  Zn118  1  0.31175435  0.81133008  0.81649406  1
  Zn  Zn119  1  0.81165941  0.30118036  0.30690657  1
  Zn  Zn120  1  0.81401607  0.31577089  0.80982531  1
  Zn  Zn121  1  0.81313591  0.81132763  0.30948492  1
  Zn  Zn122  1  0.81043197  0.81425100  0.81883444  1
  Zn  Zn123  1  0.19198545  0.43815362  0.43895473  1
  Zn  Zn124  1  0.19019532  0.43969587  0.93789019  1
  Zn  Zn125  1  0.19013425  0.93725174  0.43701219  1
  Zn  Zn126  1  0.18107886  0.93728165  0.93654677  1
  Zn  Zn127  1  0.66658711  0.43324811  0.44078459  1
  Zn  Zn128  1  0.68616023  0.43975180  0.93985891  1
  Zn  Zn129  1  0.68469537  0.93699057  0.44040270  1
  Zn  Zn130  1  0.68023090  0.93123246  0.94433211  1
  Zn  Zn131  1  0.31572878  0.06273198  0.06579928  1
  Zn  Zn132  1  0.31401805  0.06045567  0.56596095  1
  Zn  Zn133  1  0.31800465  0.55636664  0.06633511  1
  Zn  Zn134  1  0.31372171  0.56643204  0.56256255  1
  Zn  Zn135  1  0.81057632  0.06433079  0.05363232  1
  Zn  Zn136  1  0.81655040  0.06496009  0.56391392  1
  Zn  Zn137  1  0.81624673  0.56281665  0.06805154  1
  Zn  Zn138  1  0.80390618  0.56694456  0.56990082  1
  Zn  Zn139  1  0.43352982  0.43465072  0.18968695  1
  Zn  Zn140  1  0.43499923  0.43936284  0.69309493  1
  Zn  Zn141  1  0.44110061  0.93367624  0.18526747  1
  Zn  Zn142  1  0.43636869  0.93638902  0.68896209  1
  Zn  Zn143  1  0.93677192  0.43552464  0.18499056  1
  Zn  Zn144  1  0.93905993  0.43892450  0.68880305  1
  Zn  Zn145  1  0.93866430  0.93686923  0.18380925  1
  Zn  Zn146  1  0.93517389  0.94443645  0.68889144  1
  Zn  Zn147  1  0.06250504  0.06235564  0.31087447  1
  Zn  Zn148  1  0.05813633  0.06725219  0.81374225  1
  Zn  Zn149  1  0.06402342  0.56124603  0.30944193  1
  Zn  Zn150  1  0.05973226  0.56142276  0.81168536  1
  Zn  Zn151  1  0.56235935  0.06425077  0.31317250  1
  Zn  Zn152  1  0.56263656  0.05753652  0.81236532  1
  Zn  Zn153  1  0.56724493  0.56100213  0.31072880  1
  Zn  Zn154  1  0.55846877  0.56723803  0.81323644  1
  Zn  Zn155  1  0.43858569  0.18813975  0.43802990  1
  Zn  Zn156  1  0.43922182  0.19106249  0.94201886  1
  Zn  Zn157  1  0.43963085  0.68658087  0.43129402  1
  Zn  Zn158  1  0.43465791  0.69167647  0.93341924  1
  Zn  Zn159  1  0.93803121  0.18585420  0.43222339  1
  Zn  Zn160  1  0.93749641  0.18793218  0.93125911  1
  Zn  Zn161  1  0.93987986  0.68689828  0.43433363  1
  Zn  Zn162  1  0.93698876  0.68737068  0.94007534  1
  Zn  Zn163  1  0.06494795  0.31382608  0.06025113  1
  Zn  Zn164  1  0.06089098  0.31448949  0.55930955  1
  Zn  Zn165  1  0.06541245  0.81136934  0.06052126  1
  Zn  Zn166  1  0.08942356  0.80362239  0.57411267  1
  Zn  Zn167  1  0.56316158  0.31404618  0.06156554  1
  Zn  Zn168  1  0.56908460  0.30817125  0.56563735  1
  Zn  Zn169  1  0.56783973  0.81379369  0.06198896  1
  Zn  Zn170  1  0.56498743  0.81455427  0.56082346  1
  O  O171  1  0.11851147  0.12030339  0.11740357  1
  O  O172  1  0.12138842  0.11602687  0.62004401  1
  O  O173  1  0.11196151  0.61184401  0.12874438  1
  O  O174  1  0.11621654  0.61749480  0.61740353  1
  O  O175  1  0.62527522  0.11454472  0.11771996  1
  O  O176  1  0.61272143  0.12483185  0.62545591  1
  O  O177  1  0.62903742  0.61218838  0.11204490  1
  O  O178  1  0.62571652  0.61752698  0.61753201  1
  O  O179  1  0.39037794  0.37179572  0.38131428  1
  O  O180  1  0.38059863  0.37487625  0.88506007  1
  O  O181  1  0.38846758  0.87336277  0.38138506  1
  O  O182  1  0.38805918  0.87641821  0.87402478  1
  O  O183  1  0.88204320  0.36874187  0.37383555  1
  O  O184  1  0.88087437  0.38622829  0.87769862  1
  O  O185  1  0.88497831  0.87561583  0.38152038  1
  O  O186  1  0.88677855  0.87073002  0.88634802  1
  O  O187  1  0.25184322  0.00761340  0.36699767  1
  O  O188  1  0.25074620  -0.00529415  0.86413633  1
  O  O189  1  0.24868113  0.50799326  0.36643154  1
  O  O190  1  0.25531446  0.49805175  0.87217699  1
  O  O191  1  0.74918643  0.01274232  0.38102932  1
  O  O192  1  0.74836288  -0.00705768  0.86934950  1
  O  O193  1  0.75902501  0.48761471  0.39105859  1
  O  O194  1  0.75875969  0.49453697  0.86535542  1
  O  O195  1  0.24292223  0.49318967  0.13256186  1
  O  O196  1  0.23507962  0.50297390  0.63026840  1
  O  O197  1  0.24726479  0.99148524  0.12977279  1
  O  O198  1  0.24142650  0.99446799  0.63379830  1
  O  O199  1  0.74733528  0.48571405  0.11945770  1
  O  O200  1  0.74146222  0.49273229  0.63584017  1
  O  O201  1  0.73844156  0.99968594  0.11787102  1
  O  O202  1  0.75038454  0.98851683  0.62412953  1
  O  O203  1  -0.00508330  0.36456105  0.25633740  1
  O  O204  1  0.00842933  0.36997776  0.75395666  1
  O  O205  1  0.00539711  0.87003019  0.25450852  1
  O  O206  1  0.00037713  0.87342303  0.75948365  1
  O  O207  1  0.49409953  0.36164124  0.26113811  1
  O  O208  1  0.50627323  0.36826450  0.75689029  1
  O  O209  1  0.50703021  0.86610592  0.25822475  1
  O  O210  1  0.50120978  0.86500415  0.75638599  1
  O  O211  1  0.49244981  0.13408481  0.25195861  1
  O  O212  1  0.49617586  0.13062436  0.74608420  1
  O  O213  1  0.50133979  0.63817804  0.25494734  1
  O  O214  1  0.49425561  0.63821725  0.74561736  1
  O  O215  1  0.99477787  0.13069494  0.24194068  1
  O  O216  1  0.99083217  0.13335366  0.74618563  1
  O  O217  1  0.99460674  0.63233126  0.24585436  1
  O  O218  1  0.99179759  0.62974717  0.74313010  1
  O  O219  1  0.37856928  0.26536946  0.00463656  1
  O  O220  1  0.37705274  0.24830243  0.51566696  1
  O  O221  1  0.36076510  0.74808860  0.00389423  1
  O  O222  1  0.38048780  0.76095653  0.49821389  1
  O  O223  1  0.86877851  0.25396514  0.00269657  1
  O  O224  1  0.86433692  0.24599740  0.49704330  1
  O  O225  1  0.86044970  0.75523011  -0.00607114  1
  O  O226  1  0.87203584  0.75473566  0.50546695  1
  O  O227  1  0.12387008  0.24278860  0.49093602  1
  O  O228  1  0.11829708  0.24000529  0.98931084  1
  O  O229  1  0.10389453  0.73009699  0.48701922  1
  O  O230  1  0.13967863  0.75235249  0.99409855  1
  O  O231  1  0.63456458  0.24821076  0.48839803  1
  O  O232  1  0.63037437  0.23633515  1.00321529  1
  O  O233  1  0.63185687  0.74485535  0.49278748  1
  O  O234  1  0.63260559  0.73667379  0.99701465  1
  O  O235  1  0.50218151  0.24861492  0.13545879  1
  O  O236  1  0.49588519  0.24363560  0.63488963  1
  O  O237  1  0.49395716  0.75722643  0.13094853  1
  O  O238  1  0.50798320  0.75090394  0.63995848  1
  O  O239  1  0.99485016  0.24728034  0.12995764  1
  O  O240  1  1.00377336  0.25160056  0.63756261  1
  O  O241  1  1.00616585  0.74043423  0.13034769  1
  O  O242  1  0.99639087  0.74587145  0.63317665  1
  O  O243  1  0.00542101  0.25804499  0.36776690  1
  O  O244  1  0.00450891  0.25742593  0.86267026  1
  O  O245  1  0.00111750  0.76225960  0.36580633  1
  O  O246  1  0.00526610  0.75693889  0.87401338  1
  O  O247  1  0.50806893  0.25426931  0.37156107  1
  O  O248  1  0.49661826  0.25802822  0.86349571  1
  O  O249  1  0.51312631  0.75530183  0.36790517  1
  O  O250  1  0.50863306  0.75576588  0.86888988  1
  O  O251  1  0.24472399  0.12529101  0.49280236  1
  O  O252  1  0.23764428  0.11972211  1.00416329  1
  O  O253  1  0.23827654  0.62160350  0.48926561  1
  O  O254  1  0.24982803  0.63178384  1.00338032  1
  O  O255  1  0.74966036  0.13120958  0.49371768  1
  O  O256  1  0.73747359  0.13370177  0.99906189  1
  O  O257  1  0.74241815  0.63323389  0.49788383  1
  O  O258  1  0.75203805  0.63522891  1.00150678  1
  O  O259  1  0.25887281  0.37428361  0.00924443  1
  O  O260  1  0.25440528  0.37071970  0.50489568  1
  O  O261  1  0.24740537  0.87658344  0.00990862  1
  O  O262  1  0.27105562  0.88044278  0.49487294  1
  O  O263  1  0.75438283  0.36867225  0.00506226  1
  O  O264  1  0.75652183  0.37189213  0.50409653  1
  O  O265  1  0.75645890  0.86478284  0.00247589  1
  O  O266  1  0.75590948  0.86929237  0.50768879  1
  O  O267  1  0.13220245  0.49825382  0.24032445  1
  O  O268  1  0.12115709  0.49211301  0.74212261  1
  O  O269  1  0.13025706  0.99354068  0.24206595  1
  O  O270  1  0.13126685  1.00155627  0.74647759  1
  O  O271  1  0.63357260  0.50848892  0.23365865  1
  O  O272  1  0.63142666  0.49711894  0.74729956  1
  O  O273  1  0.62141624  1.00237224  0.23491260  1
  O  O274  1  0.64085611  0.99923764  0.74896861  1
  O  O275  1  0.37244257  0.00622385  0.25185888  1
  O  O276  1  0.36742202  0.00723425  0.75209891  1
  O  O277  1  0.36638249  0.50196588  0.25564784  1
  O  O278  1  0.36898098  0.51687325  0.74763704  1
  O  O279  1  0.88261608  0.01265935  0.24969587  1
  O  O280  1  0.85965585  0.00754382  0.75140811  1
  O  O281  1  0.88165039  0.51096752  0.25237906  1
  O  O282  1  0.86798576  0.50504316  0.75733609  1
  O  O283  1  0.11769803  0.36266972  0.37922434  1
  O  O284  1  0.11889699  0.36852401  0.86848743  1
  O  O285  1  0.11986043  0.87372698  0.36791561  1
  O  O286  1  0.11305095  0.86801684  0.87099059  1
  O  O287  1  0.61245897  0.36402389  0.37195510  1
  O  O288  1  0.61684674  0.38271408  0.86421830  1
  O  O289  1  0.61694741  0.86629486  0.37647607  1
  O  O290  1  0.61504199  0.86442821  0.87402126  1
  O  O291  1  0.37764112  0.12821013  0.13795490  1
  O  O292  1  0.38555515  0.12957302  0.63442661  1
  O  O293  1  0.37058720  0.63980577  0.12723718  1
  O  O294  1  0.37351556  0.63204504  0.63938352  1
  O  O295  1  0.87803333  0.12995745  0.12759058  1
  O  O296  1  0.87581633  0.12058204  0.64365542  1
  O  O297  1  0.88912941  0.61967494  0.13856267  1
  O  O298  1  0.87885745  0.63272184  0.63185608  1
  O  O299  1  0.24780593  0.26324993  0.13400391  1
  O  O300  1  0.26055449  0.24939444  0.62494676  1
  O  O301  1  0.25302894  0.75442798  0.11327330  1
  O  O302  1  0.19911644  0.77401773  0.60979908  1
  O  O303  1  0.75307807  0.25988381  0.11532019  1
  O  O304  1  0.74134521  0.26104379  0.61350784  1
  O  O305  1  0.74484673  0.75099243  0.11002061  1
  O  O306  1  0.75667363  0.76110941  0.62308340  1
  O  O307  1  0.24169613  0.24439376  0.37330126  1
  O  O308  1  0.23684637  0.25215763  0.86831211  1
  O  O309  1  0.24828869  0.73645601  0.36536254  1
  O  O310  1  0.24268119  0.75291042  0.88962776  1
  O  O311  1  0.74452306  0.24180076  0.38123536  1
  O  O312  1  0.75205377  0.25785466  0.88637979  1
  O  O313  1  0.74048276  0.75057992  0.38101690  1
  O  O314  1  0.73568789  0.75405573  0.88502925  1
  O  O315  1  0.00126485  0.11856416  0.00374482  1
  O  O316  1  0.00606161  0.11668935  0.49772598  1
  O  O317  1  -0.00695431  0.61523911  0.01002495  1
  O  O318  1  0.00162948  0.61100912  0.50181947  1
  O  O319  1  0.51164007  0.12080441  0.00203067  1
  O  O320  1  0.50050765  0.11806034  0.50928554  1
  O  O321  1  0.50744633  0.62744106  0.00125541  1
  O  O322  1  0.51457101  0.63354500  0.50138277  1
  O  O323  1  0.50338684  0.36882301  0.48835975  1
  O  O324  1  0.49364976  0.37029988  0.98851162  1
  O  O325  1  0.49341190  0.87988874  0.49389496  1
  O  O326  1  0.50750659  0.88466927  0.99196240  1
  O  O327  1  0.99779116  0.38656578  0.49248925  1
  O  O328  1  0.99116547  0.38149747  0.99557347  1
  O  O329  1  1.00111493  0.88043454  0.49272636  1
  O  O330  1  0.99523034  0.88129728  0.99486648  1
  O  O331  1  0.50462075  0.48313161  0.36936571  1
  O  O332  1  0.49126912  0.48934757  0.86688566  1
  O  O333  1  0.50111188  0.99111671  0.38232772  1
  O  O334  1  0.50021549  0.99025194  0.88256983  1
  O  O335  1  1.00450067  0.48637972  0.37932367  1
  O  O336  1  0.99424358  0.49401528  0.88177688  1
  O  O337  1  1.00250486  0.99004012  0.38337265  1
  O  O338  1  1.00561886  0.99097360  0.88392160  1
  O  O339  1  0.00627311  0.00545345  0.11554741  1
  O  O340  1  0.00282561  0.00470705  0.61215888  1
  O  O341  1  0.00646671  0.50248883  0.11860027  1
  O  O342  1  0.00720356  0.50341675  0.61775947  1
  O  O343  1  0.50949665  0.00153445  0.11796619  1
  O  O344  1  0.50111182  0.00764582  0.62138020  1
  O  O345  1  0.51506582  0.49230266  0.13232745  1
  O  O346  1  0.51188666  0.50389405  0.63415686  1
  O  O347  1  0.25454259  0.38570572  0.24403489  1
  O  O348  1  0.23564324  0.37503584  0.74577258  1
  O  O349  1  0.24534710  0.87821821  0.24317733  1
  O  O350  1  0.24356753  0.88107982  0.74889071  1
  O  O351  1  0.75402545  0.36772750  0.23270105  1
  O  O352  1  0.74211424  0.38170898  0.74495175  1
  O  O353  1  0.74901869  0.87522688  0.24676658  1
  O  O354  1  0.75234791  0.88677724  0.74598314  1
  O  O355  1  0.25703811  0.11854857  0.25472563  1
  O  O356  1  0.26049511  0.11499805  0.74556718  1
  O  O357  1  0.24935764  0.61377275  0.25547079  1
  O  O358  1  0.25834138  0.63292445  0.74880205  1
  O  O359  1  0.75992136  0.13297060  0.25801074  1
  O  O360  1  0.75604521  0.11534406  0.75077775  1
  O  O361  1  0.76784923  0.62662391  0.25220640  1
  O  O362  1  0.75459694  0.61490977  0.74559247  1
  O  O363  1  0.36903933  0.12492885  0.36584082  1
  O  O364  1  0.38108985  0.12400374  0.86434167  1
  O  O365  1  0.36764985  0.62472064  0.36895883  1
  O  O366  1  0.38179747  0.62740538  0.85555204  1
  O  O367  1  0.86790516  0.12206797  0.36423727  1
  O  O368  1  0.88069120  0.12246529  0.85580805  1
  O  O369  1  0.87527930  0.62596894  0.36134689  1
  O  O370  1  0.88001519  0.61269289  0.87014435  1
  O  O371  1  0.13273030  0.38565350  0.11952103  1
  O  O372  1  0.12315383  0.38303679  0.63181622  1
  O  O373  1  0.13255488  0.88087472  0.12904585  1
  O  O374  1  0.10758936  0.89710471  0.64002274  1
  O  O375  1  0.63596498  0.38743076  0.11806303  1
  O  O376  1  0.63034357  0.38324481  0.63523409  1
  O  O377  1  0.62847534  0.89141462  0.12315951  1
  O  O378  1  0.63587331  0.87571502  0.63018460  1
  O  O379  1  0.11178212  0.24365896  0.25766987  1
  O  O380  1  0.11755176  0.25508341  0.75496638  1
  O  O381  1  0.11582221  0.75703276  0.24875548  1
  O  O382  1  0.11609122  0.75651538  0.76130689  1
  O  O383  1  0.61793443  0.24239523  0.26241003  1
  O  O384  1  0.61759733  0.26064932  0.74674544  1
  O  O385  1  0.62300998  0.74804502  0.25573750  1
  O  O386  1  0.61623707  0.74864525  0.75988019  1
  O  O387  1  0.38357426  0.24206601  0.24874125  1
  O  O388  1  0.38194569  0.24341303  0.74335246  1
  O  O389  1  0.38678909  0.74796898  0.24003722  1
  O  O390  1  0.38668204  0.74555102  0.75316490  1
  O  O391  1  0.88585781  0.23813443  0.24206064  1
  O  O392  1  0.87954722  0.24054404  0.75181977  1
  O  O393  1  0.88829542  0.74350635  0.25064582  1
  O  O394  1  0.87855515  0.74676271  0.74930734  1
  O  O395  1  0.37781746  0.50247299  0.49800535  1
  O  O396  1  0.37756701  0.48221760  1.00261717  1
  O  O397  1  0.38769024  0.99700013  0.49821549  1
  O  O398  1  0.39171137  1.00762785  1.00063158  1
  O  O399  1  0.88051407  0.50090906  0.50678405  1
  O  O400  1  0.88144286  0.49586526  0.99345751  1
  O  O401  1  0.88472880  0.99362445  0.49618625  1
  O  O402  1  0.88542002  0.99350908  1.00050581  1
  O  O403  1  0.11484831  0.00772382  0.00372624  1
  O  O404  1  0.12028036  0.00346717  0.50706147  1
  O  O405  1  0.11155830  0.49477604  0.00563974  1
  O  O406  1  0.11700367  0.50588509  0.50620035  1
  O  O407  1  0.61892751  0.01057838  0.00644680  1
  O  O408  1  0.61172532  0.00084254  0.50516372  1
  O  O409  1  0.62551268  0.51310460  0.00475151  1
  O  O410  1  0.62786912  0.50986219  0.51338828  1
  O  O411  1  0.36535354  0.37278722  0.11710029  1
  O  O412  1  0.37491517  0.36548288  0.62860034  1
  O  O413  1  0.36545963  0.86205505  0.12987282  1
  O  O414  1  0.37709885  0.87475110  0.61027348  1
  O  O415  1  0.86607929  0.37026640  0.11788183  1
  O  O416  1  0.86045426  0.37836319  0.63205246  1
  O  O417  1  0.87724870  0.87564419  0.10966076  1
  O  O418  1  0.87091948  0.87149794  0.62030086  1
  O  O419  1  0.12940206  0.13371669  0.37816615  1
  O  O420  1  0.12028888  0.13459428  0.88379681  1
  O  O421  1  0.13207014  0.62315838  0.38016212  1
  O  O422  1  0.11651468  0.63781842  0.87397801  1
  O  O423  1  0.63245594  0.13053332  0.37818055  1
  O  O424  1  0.62239032  0.12277882  0.88749324  1
  O  O425  1  0.63291616  0.62872538  0.38157248  1
  O  O426  1  0.62010874  0.63031673  0.88950875  1
