# generated using pymatgen
data_V85Zn86O256
_symmetry_space_group_name_H-M   'P 1'
_cell_length_a   16.97448097
_cell_length_b   16.96742849
_cell_length_c   16.95541108
_cell_angle_alpha   89.99391734
_cell_angle_beta   90.02744005
_cell_angle_gamma   89.95359451
_symmetry_Int_Tables_number   1
_chemical_formula_structural   V85Zn86O256
_chemical_formula_sum   'V85 Zn86 O256'
_cell_volume   4883.38157091
_cell_formula_units_Z   1
loop_
 _symmetry_equiv_pos_site_id
 _symmetry_equiv_pos_as_xyz
  1  'x, y, z'
loop_
 _atom_site_type_symbol
 _atom_site_label
 _atom_site_symmetry_multiplicity
 _atom_site_fract_x
 _atom_site_fract_y
 _atom_site_fract_z
 _atom_site_occupancy
  V  V0  1  0.74266835  0.50107067  0.74486267  1
  V  V1  1  0.12243049  0.11996600  -0.00832492  1
  V  V2  1  -0.06113675  0.32792748  0.93137958  1
  V  V3  1  0.75262868  0.75008377  0.49771036  1
  V  V4  1  0.50635975  0.86951499  0.36677391  1
  V  V5  1  0.87796746  0.49819824  0.37097997  1
  V  V6  1  -0.00312679  0.73324685  0.24257081  1
  V  V7  1  0.62603758  0.37193721  0.25045017  1
  V  V8  1  0.24880737  0.87227228  0.62964047  1
  V  V9  1  0.75215989  0.87304133  0.62781738  1
  V  V10  1  -0.00032010  0.62207919  0.62385216  1
  V  V11  1  0.62894066  0.61929143  0.50284374  1
  V  V12  1  0.87553630  0.50133289  0.87776848  1
  V  V13  1  0.36213951  0.50755046  0.36816576  1
  V  V14  1  0.62443046  0.87468552  0.74701529  1
  V  V15  1  0.24866432  0.74085152  0.49734787  1
  V  V16  1  0.25248402  0.38023453  0.12633401  1
  V  V17  1  0.87800650  0.11006908  0.24587290  1
  V  V18  1  0.00087339  0.37462078  0.37075510  1
  V  V19  1  0.12374720  0.88315704  0.24902015  1
  V  V20  1  0.37597596  0.24932368  0.63088602  1
  V  V21  1  0.49600523  0.50334695  0.00354830  1
  V  V22  1  0.37483932  0.75071792  0.62001280  1
  V  V23  1  0.12398897  0.49449985  0.62563736  1
  V  V24  1  0.12724521  0.00246604  0.62874054  1
  V  V25  1  0.62654043  0.74910842  0.36592960  1
  V  V26  1  0.50103168  0.49883521  0.50129364  1
  V  V27  1  0.87623178  0.00329401  0.87602037  1
  V  V28  1  0.62364374  0.49927296  0.12579200  1
  V  V29  1  0.49201208  0.12285789  0.62864890  1
  V  V30  1  0.49986747  0.74882988  0.74709457  1
  V  V31  1  0.61944885  0.75024466  0.87594144  1
  V  V32  1  -0.00440513  0.87872822  0.88062521  1
  V  V33  1  0.62794041  0.00087026  0.62296505  1
  V  V34  1  0.25064017  0.88584843  0.12744634  1
  V  V35  1  0.24884327  0.49748132  0.75009430  1
  V  V36  1  0.75846871  0.49762363  0.24585084  1
  V  V37  1  0.37565319  0.62443837  0.74824861  1
  V  V38  1  0.87129595  0.36650301  0.49714038  1
  V  V39  1  0.73567727  -0.00663343  0.24634378  1
  V  V40  1  0.00108851  0.49619401  0.49865634  1
  V  V41  1  0.87668610  0.74968359  0.62419188  1
  V  V42  1  0.75628263  0.36767378  0.11151882  1
  V  V43  1  -0.00091965  0.75049828  0.75040399  1
  V  V44  1  -0.00138341  0.12446567  0.63117732  1
  V  V45  1  0.62234854  0.62513397  0.00051978  1
  V  V46  1  0.50452473  0.37398249  0.87491540  1
  V  V47  1  0.50591492  0.62291612  0.62425380  1
  V  V48  1  0.24829594  0.25117773  -0.00639813  1
  V  V49  1  0.50200715  -0.00420354  0.49436637  1
  V  V50  1  0.51688071  0.11360982  0.13275243  1
  V  V51  1  -0.00429460  0.24720148  0.23738754  1
  V  V52  1  0.74327270  0.37640544  0.61811687  1
  V  V53  1  0.63348493  0.13273506  0.49767075  1
  V  V54  1  -0.01003454  0.87547334  0.37206772  1
  V  V55  1  0.13384231  0.37652673  0.24920862  1
  V  V56  1  0.12181999  0.37281000  0.76413652  1
  V  V57  1  0.26355590  0.00493158  0.75319480  1
  V  V58  1  0.37310492  0.37459125  0.49627746  1
  V  V59  1  0.27654570  0.12723872  0.87217432  1
  V  V60  1  -0.00522868  0.50838566  0.00086204  1
  V  V61  1  0.49576412  0.88755862  0.87025243  1
  V  V62  1  0.25027967  0.24045839  0.49976198  1
  V  V63  1  0.49582833  0.24698298  0.25376147  1
  V  V64  1  0.37311756  0.87541459  -0.00599578  1
  V  V65  1  0.36195911  0.88740072  0.48554334  1
  V  V66  1  0.75901925  0.62387339  0.37079000  1
  V  V67  1  0.74890739  0.13648899  0.88128534  1
  V  V68  1  0.87319720  0.62363452  0.74810631  1
  V  V69  1  0.49309541  0.62653678  0.14248463  1
  V  V70  1  0.37153961  0.23968288  0.12922980  1
  V  V71  1  0.37397772  0.50112004  0.87640695  1
  V  V72  1  0.24497476  0.62711717  0.87762516  1
  V  V73  1  0.87277945  0.73888378  0.11825655  1
  V  V74  1  0.62346050  0.36867486  0.74969174  1
  V  V75  1  0.12535402  0.74668945  0.37389424  1
  V  V76  1  0.12406317  0.87708650  0.75405469  1
  V  V77  1  0.12671632  0.24079075  0.37371288  1
  V  V78  1  0.37100467  0.74673674  0.14127452  1
  V  V79  1  0.74820047  0.63081213  0.88019018  1
  V  V80  1  0.00166417  0.25412817  0.74721175  1
  V  V81  1  0.86987880  0.24563253  0.62375408  1
  V  V82  1  0.12132515  0.50605930  0.12302129  1
  V  V83  1  -0.00582578  0.00078847  0.49624559  1
  V  V84  1  0.75921622  0.01065778  0.75009293  1
  Zn  Zn85  1  0.87215984  0.87884187  0.49510401  1
  Zn  Zn86  1  0.62751483  0.86715551  0.22468501  1
  Zn  Zn87  1  0.24993698  0.37100807  0.62719696  1
  Zn  Zn88  1  0.37566653  0.37459783  0.00324839  1
  Zn  Zn89  1  0.50071583  0.37682365  0.37450543  1
  Zn  Zn90  1  0.30189511  0.67626988  0.31416806  1
  Zn  Zn91  1  0.63111477  0.25200968  0.37675612  1
  Zn  Zn92  1  0.11849878  0.63078600  0.00157121  1
  Zn  Zn93  1  0.87518286  0.24954191  0.11253065  1
  Zn  Zn94  1  0.76158732  0.12508905  0.37546627  1
  Zn  Zn95  1  0.12966595  0.61846041  0.49919060  1
  Zn  Zn96  1  0.12214793  0.75069452  0.87832332  1
  Zn  Zn97  1  0.24646694  0.75348184  -0.00143720  1
  Zn  Zn98  1  0.12363566  0.01274876  0.13263376  1
  Zn  Zn99  1  0.86310061  0.88343431  0.01629663  1
  Zn  Zn100  1  0.31537711  0.06859548  0.23358588  1
  Zn  Zn101  1  0.50059437  0.23814941  0.75715381  1
  Zn  Zn102  1  0.50018047  0.00227339  0.00225623  1
  Zn  Zn103  1  0.71204545  0.79644003  0.04911861  1
  Zn  Zn104  1  -0.00162344  0.00345653  0.01349074  1
  Zn  Zn105  1  0.63226564  0.13439183  -0.00179392  1
  Zn  Zn106  1  0.12665234  0.12233695  0.49936463  1
  Zn  Zn107  1  0.18341294  0.19205033  0.18045759  1
  Zn  Zn108  1  0.18899834  0.18636468  0.69244131  1
  Zn  Zn109  1  0.18369688  0.69847430  0.18009971  1
  Zn  Zn110  1  0.18530762  0.68515445  0.68946367  1
  Zn  Zn111  1  0.69475321  0.18935252  0.19356671  1
  Zn  Zn112  1  0.68540891  0.18961278  0.68452128  1
  Zn  Zn113  1  0.68819672  0.67854079  0.18978495  1
  Zn  Zn114  1  0.68817215  0.68716937  0.68770425  1
  Zn  Zn115  1  0.31223014  0.21390003  0.31976987  1
  Zn  Zn116  1  0.31510571  0.31449285  0.81292851  1
  Zn  Zn117  1  0.31227933  0.90443906  0.31491277  1
  Zn  Zn118  1  0.31288430  0.81123464  0.81184634  1
  Zn  Zn119  1  0.80957159  0.30654718  0.31183259  1
  Zn  Zn120  1  0.81075717  0.31094254  0.79956582  1
  Zn  Zn121  1  0.81603858  0.81133867  0.30045379  1
  Zn  Zn122  1  0.76450628  0.85886812  0.86994147  1
  Zn  Zn123  1  0.19039108  0.42880968  0.43781534  1
  Zn  Zn124  1  0.18663965  0.43956460  0.94205485  1
  Zn  Zn125  1  0.17582591  0.92765229  0.44578231  1
  Zn  Zn126  1  0.19289582  0.94309806  0.93385918  1
  Zn  Zn127  1  0.68862882  0.43799601  0.43505878  1
  Zn  Zn128  1  0.68612435  0.44058124  0.93450363  1
  Zn  Zn129  1  0.69391810  0.94016088  0.43065603  1
  Zn  Zn130  1  0.67790689  0.95656447  1.05376260  1
  Zn  Zn131  1  0.31670529  0.06204469  0.05341840  1
  Zn  Zn132  1  0.31891720  0.06263336  0.43835860  1
  Zn  Zn133  1  0.30926472  0.56519315  0.06632778  1
  Zn  Zn134  1  0.31473095  0.55984069  0.56408201  1
  Zn  Zn135  1  0.81691335  0.06730175  0.06703137  1
  Zn  Zn136  1  0.81461649  0.06314871  0.56455547  1
  Zn  Zn137  1  0.81490605  0.56455837  0.06296119  1
  Zn  Zn138  1  0.81438163  0.55743483  0.55939159  1
  Zn  Zn139  1  0.43428177  0.43418950  0.19197018  1
  Zn  Zn140  1  0.43869617  0.43749419  0.68410324  1
  Zn  Zn141  1  0.44189582  0.93054229  0.18658971  1
  Zn  Zn142  1  0.43791922  0.93542799  0.67788608  1
  Zn  Zn143  1  0.93937121  0.43496435  0.18364582  1
  Zn  Zn144  1  0.93434586  0.43401179  0.68810185  1
  Zn  Zn145  1  0.94048648  0.92952565  0.18142247  1
  Zn  Zn146  1  0.93830598  0.93595265  0.68740580  1
  Zn  Zn147  1  0.05795978  0.06293882  0.31081664  1
  Zn  Zn148  1  0.06819194  0.06705726  0.81615600  1
  Zn  Zn149  1  0.12809339  0.58050869  0.29176011  1
  Zn  Zn150  1  0.05974642  0.55919746  0.81356420  1
  Zn  Zn151  1  0.55903907  0.06050035  0.31371802  1
  Zn  Zn152  1  0.57106905  0.06214387  0.81335081  1
  Zn  Zn153  1  0.56674382  0.55757529  0.31823460  1
  Zn  Zn154  1  0.56284259  0.55877546  0.81124361  1
  Zn  Zn155  1  0.44798353  0.19045444  0.44231490  1
  Zn  Zn156  1  0.46618178  0.20363836  0.95938067  1
  Zn  Zn157  1  0.44000534  0.68924944  0.43716411  1
  Zn  Zn158  1  0.43352190  0.68991777  0.94089714  1
  Zn  Zn159  1  0.93969795  0.18543814  0.43394059  1
  Zn  Zn160  1  0.93671465  0.16827340  0.92976516  1
  Zn  Zn161  1  0.94200119  0.68605072  0.43559317  1
  Zn  Zn162  1  0.93437509  0.69168536  0.93831588  1
  Zn  Zn163  1  0.07296194  0.31103938  0.06026639  1
  Zn  Zn164  1  0.06342283  0.31175789  0.56265607  1
  Zn  Zn165  1  0.06240763  0.81380409  0.06455239  1
  Zn  Zn166  1  0.06200530  0.81426627  0.56072601  1
  Zn  Zn167  1  0.56484821  0.30925604  0.06603699  1
  Zn  Zn168  1  0.56167882  0.31208787  0.56548500  1
  Zn  Zn169  1  0.54462957  0.80876712  0.06020025  1
  Zn  Zn170  1  0.56409009  0.81032389  0.55487565  1
  O  O171  1  0.13973891  0.12554959  0.09987050  1
  O  O172  1  0.11927940  0.11680563  0.62460121  1
  O  O173  1  0.12918881  0.60941682  0.12003354  1
  O  O174  1  0.11771933  0.61096154  0.62664074  1
  O  O175  1  0.61680207  0.13145205  0.12474734  1
  O  O176  1  0.62167228  0.11779004  0.61525532  1
  O  O177  1  0.61503519  0.61914619  0.11980327  1
  O  O178  1  0.61921437  0.62912634  0.61490210  1
  O  O179  1  0.37996184  0.38795665  0.39202025  1
  O  O180  1  0.37907509  0.39123947  0.87582020  1
  O  O181  1  0.39185812  0.85704366  0.38766123  1
  O  O182  1  0.38457914  0.86752541  0.88041309  1
  O  O183  1  0.88070008  0.37491275  0.38048796  1
  O  O184  1  0.86893422  0.38194669  0.87554581  1
  O  O185  1  0.88637395  0.86819623  0.37545207  1
  O  O186  1  0.88089031  0.88926570  0.87502162  1
  O  O187  1  0.27804098  -0.03948960  0.41105983  1
  O  O188  1  0.25571008  0.01407608  0.86563249  1
  O  O189  1  0.26257321  0.49927778  0.38253425  1
  O  O190  1  0.25711921  0.50583742  0.87065608  1
  O  O191  1  0.74944954  0.00711993  0.35613118  1
  O  O192  1  0.75840153  0.00649378  0.85833477  1
  O  O193  1  0.75776030  0.50419849  0.36694168  1
  O  O194  1  0.75754870  0.50816533  0.86745522  1
  O  O195  1  0.24127650  0.48680030  0.11581589  1
  O  O196  1  0.24104297  0.49875377  0.63234150  1
  O  O197  1  0.25086025  0.99028214  0.12493009  1
  O  O198  1  0.23384639  0.99073318  0.63309465  1
  O  O199  1  0.74585490  0.49443140  0.13061635  1
  O  O200  1  0.75719165  0.48984177  0.63373090  1
  O  O201  1  0.75100349  1.00192475  0.13704442  1
  O  O202  1  0.74717521  0.99310635  0.63153615  1
  O  O203  1  0.00494729  0.36523664  0.25550190  1
  O  O204  1  0.00923626  0.36769673  0.74523345  1
  O  O205  1  0.00664648  0.86740178  0.25903641  1
  O  O206  1  0.00621744  0.87177867  0.75831939  1
  O  O207  1  0.50997567  0.36755459  0.24979668  1
  O  O208  1  0.51082552  0.38438401  0.75635704  1
  O  O209  1  0.51201151  0.87455542  0.26343081  1
  O  O210  1  0.50336792  0.86858208  0.75036392  1
  O  O211  1  0.50258460  0.13208345  0.24226877  1
  O  O212  1  0.50995768  0.12290082  0.73332625  1
  O  O213  1  0.50543912  0.61754372  0.24056587  1
  O  O214  1  0.49663624  0.62728260  0.74276876  1
  O  O215  1  0.99409095  0.13919386  0.24997552  1
  O  O216  1  1.00687593  0.13385229  0.73864806  1
  O  O217  1  1.01414334  0.63794988  0.25502474  1
  O  O218  1  0.99300173  0.62826404  0.74394348  1
  O  O219  1  0.36774100  0.25312291  0.01290885  1
  O  O220  1  0.37041535  0.25716888  0.50859855  1
  O  O221  1  0.37181243  0.76102947  0.00588704  1
  O  O222  1  0.36613710  0.75502736  0.50409422  1
  O  O223  1  0.89124136  0.26019560  -0.00819240  1
  O  O224  1  0.88214655  0.26007509  0.50654140  1
  O  O225  1  0.87725623  0.75467785  0.01303635  1
  O  O226  1  0.87123571  0.74795138  0.51041488  1
  O  O227  1  0.13248417  0.25006373  0.49378537  1
  O  O228  1  0.14221992  0.24285217  0.99797835  1
  O  O229  1  0.13175728  0.74972714  0.49436973  1
  O  O230  1  0.12691375  0.74734346  0.99659881  1
  O  O231  1  0.62299109  0.23499308  0.50289771  1
  O  O232  1  0.57756321  0.23324364  0.98789416  1
  O  O233  1  0.63524286  0.73733213  0.49378762  1
  O  O234  1  0.61968146  0.74149993  0.99075247  1
  O  O235  1  0.48853098  0.23924215  0.13552221  1
  O  O236  1  0.49505793  0.23785480  0.62535732  1
  O  O237  1  0.48191677  0.74007132  0.12655597  1
  O  O238  1  0.49523389  0.74321208  0.62588385  1
  O  O239  1  1.00096155  0.25821206  0.13541405  1
  O  O240  1  0.99477708  0.24289295  0.62916480  1
  O  O241  1  0.99649073  0.74817397  0.13655515  1
  O  O242  1  0.99453686  0.74441748  0.62773311  1
  O  O243  1  0.00726307  0.26029476  0.36960182  1
  O  O244  1  -0.01340539  0.26049880  0.86783933  1
  O  O245  1  0.00382322  0.75688497  0.36812161  1
  O  O246  1  -0.00262814  0.75997023  0.86630139  1
  O  O247  1  0.50966648  0.25573493  0.36795995  1
  O  O248  1  0.48015016  0.27298016  0.86645447  1
  O  O249  1  0.51615642  0.75524359  0.38276042  1
  O  O250  1  0.50654741  0.74880508  0.86677347  1
  O  O251  1  0.24729956  0.13662897  0.49853200  1
  O  O252  1  0.25179659  0.13040042  0.98542667  1
  O  O253  1  0.24751412  0.63679189  0.51128750  1
  O  O254  1  0.24943094  0.62463431  0.98560817  1
  O  O255  1  0.73662544  0.11641054  0.49920952  1
  O  O256  1  0.75384411  0.12846022  0.98570138  1
  O  O257  1  0.74539707  0.62634211  0.49366482  1
  O  O258  1  0.74234091  0.61905039  0.98609021  1
  O  O259  1  0.25255756  0.36733069  0.00406685  1
  O  O260  1  0.25846745  0.36494864  0.50728832  1
  O  O261  1  0.25633198  0.87584097  0.00465392  1
  O  O262  1  0.25014228  0.85801864  0.51426945  1
  O  O263  1  0.74065588  0.37957317  0.01387115  1
  O  O264  1  0.75839298  0.38056628  0.50670471  1
  O  O265  1  0.75009585  0.88087793  -0.01554598  1
  O  O266  1  0.75317267  0.86833307  0.50609546  1
  O  O267  1  0.11118890  0.48500117  0.23635976  1
  O  O268  1  0.12757825  0.49266841  0.74372337  1
  O  O269  1  0.12559506  0.98790420  0.25496381  1
  O  O270  1  0.13057338  0.99404118  0.74629635  1
  O  O271  1  0.63266054  0.49203583  0.24367568  1
  O  O272  1  0.63807505  0.49439329  0.75125921  1
  O  O273  1  0.63357039  0.99663196  0.24831944  1
  O  O274  1  0.63381784  0.99693610  0.73622924  1
  O  O275  1  0.37225100  -0.01888026  0.25762412  1
  O  O276  1  0.36094880  -0.00673393  0.73846294  1
  O  O277  1  0.37727030  0.49548065  0.27020708  1
  O  O278  1  0.37030779  0.50546166  0.75563459  1
  O  O279  1  0.87814091  0.00963411  0.24541015  1
  O  O280  1  0.86314622  -0.00406748  0.75070046  1
  O  O281  1  0.86711279  0.49143635  0.25511378  1
  O  O282  1  0.86533319  0.50383842  0.75571971  1
  O  O283  1  0.11739306  0.37032462  0.36654255  1
  O  O284  1  0.12780356  0.38015242  0.86305653  1
  O  O285  1  0.11449916  0.86411092  0.37008614  1
  O  O286  1  0.11833372  0.87815845  0.86514532  1
  O  O287  1  0.62463438  0.37764767  0.36116105  1
  O  O288  1  0.61555390  0.38281341  0.86462539  1
  O  O289  1  0.62039162  0.86147752  0.38442708  1
  O  O290  1  0.61261669  0.86251126  0.86341446  1
  O  O291  1  0.35687562  0.13605954  0.13638874  1
  O  O292  1  0.39222935  0.13165752  0.62041712  1
  O  O293  1  0.37835051  0.63680381  0.12334789  1
  O  O294  1  0.38348174  0.63044306  0.63023643  1
  O  O295  1  0.87530508  0.13547000  0.13983060  1
  O  O296  1  0.88320875  0.13643226  0.62108962  1
  O  O297  1  0.88130748  0.63722442  0.12024036  1
  O  O298  1  0.87968667  0.62830613  0.62731109  1
  O  O299  1  0.25436707  0.26314528  0.11699734  1
  O  O300  1  0.25837554  0.24795024  0.61964976  1
  O  O301  1  0.26009796  0.75863006  0.11879620  1
  O  O302  1  0.25541943  0.75321692  0.62502328  1
  O  O303  1  0.75133338  0.26364271  0.12414636  1
  O  O304  1  0.76077369  0.26006085  0.63065644  1
  O  O305  1  0.76491143  0.73797198  0.13000925  1
  O  O306  1  0.75790024  0.75424692  0.62089287  1
  O  O307  1  0.23584559  0.26385076  0.38823146  1
  O  O308  1  0.26128563  0.23915264  0.88035882  1
  O  O309  1  0.24001998  0.75045447  0.38582072  1
  O  O310  1  0.24682465  0.73983401  0.87339139  1
  O  O311  1  0.74273616  0.23917733  0.36758582  1
  O  O312  1  0.76031590  0.23391636  0.86444959  1
  O  O313  1  0.75020414  0.74085077  0.37738394  1
  O  O314  1  0.73068175  0.74261815  0.86775569  1
  O  O315  1  0.01778822  0.12422324  -0.00676593  1
  O  O316  1  0.00242399  0.11819854  0.51078107  1
  O  O317  1  0.00053920  0.61195787  -0.01024465  1
  O  O318  1  0.00037510  0.61333627  0.50760563  1
  O  O319  1  0.47341157  0.11596945  0.03444531  1
  O  O320  1  0.51142116  0.11519912  0.51054237  1
  O  O321  1  0.50133656  0.61540599  0.00493899  1
  O  O322  1  0.50972356  0.62022632  0.50471161  1
  O  O323  1  0.49629417  0.38357303  0.50165419  1
  O  O324  1  0.49846282  0.38995108  0.99384902  1
  O  O325  1  0.49322273  0.88169396  0.49595736  1
  O  O326  1  0.49216343  0.87650279  0.98478382  1
  O  O327  1  0.99344908  0.37754555  0.49279660  1
  O  O328  1  1.00493713  0.37982716  0.99004674  1
  O  O329  1  0.99792192  0.88181494  0.49183312  1
  O  O330  1  1.00197580  0.87764310  0.98531273  1
  O  O331  1  0.49368120  0.50080054  0.38859714  1
  O  O332  1  0.49202451  0.49719246  0.88213797  1
  O  O333  1  0.50885759  0.98746848  0.38746684  1
  O  O334  1  0.49967720  0.98870392  0.86508047  1
  O  O335  1  0.99463418  0.48434683  0.37920558  1
  O  O336  1  0.98233783  0.50063299  0.87672039  1
  O  O337  1  1.00596533  0.99016372  0.38547720  1
  O  O338  1  0.99153267  0.99590636  0.87092411  1
  O  O339  1  0.01113755  -0.00621844  0.12521804  1
  O  O340  1  0.00764431  0.00653429  0.62412465  1
  O  O341  1  0.00673186  0.49093782  0.11042522  1
  O  O342  1  0.00522024  0.50078173  0.62030144  1
  O  O343  1  0.50573644  0.01114858  0.13578692  1
  O  O344  1  0.50980552  0.00646425  0.61857778  1
  O  O345  1  0.49990015  0.50490094  0.11951629  1
  O  O346  1  0.49627913  0.50959963  0.61181362  1
  O  O347  1  0.23518781  0.37008260  0.24042215  1
  O  O348  1  0.24241168  0.38049357  0.74772269  1
  O  O349  1  0.23627785  0.86665730  0.23954717  1
  O  O350  1  0.24162036  0.88063696  0.74911941  1
  O  O351  1  0.74346002  0.38193185  0.24091961  1
  O  O352  1  0.74202956  0.38286235  0.74186657  1
  O  O353  1  0.74544984  0.88842604  0.25314234  1
  O  O354  1  0.73974076  0.88685615  0.75138644  1
  O  O355  1  0.24151380  0.14295813  0.26205876  1
  O  O356  1  0.25195176  0.11966345  0.76279418  1
  O  O357  1  0.22572639  0.62488375  0.25270909  1
  O  O358  1  0.25502119  0.61819832  0.75855525  1
  O  O359  1  0.76288044  0.11400044  0.24830882  1
  O  O360  1  0.74798013  0.11246029  0.74491297  1
  O  O361  1  0.74737099  0.60849265  0.25929645  1
  O  O362  1  0.75287920  0.61835612  0.75702089  1
  O  O363  1  0.37513025  0.13599574  0.37710046  1
  O  O364  1  0.37326150  0.12881554  0.87936909  1
  O  O365  1  0.37458262  0.61454157  0.37958433  1
  O  O366  1  0.37029703  0.61710680  0.86900054  1
  O  O367  1  0.87965516  0.13097629  0.35297171  1
  O  O368  1  0.86413877  0.11176178  0.86643528  1
  O  O369  1  0.86481844  0.61752345  0.38144242  1
  O  O370  1  0.86460573  0.62224050  0.86940313  1
  O  O371  1  0.13269940  0.38136722  0.12893356  1
  O  O372  1  0.12518174  0.38516753  0.63098400  1
  O  O373  1  0.13479102  0.87519413  0.13378593  1
  O  O374  1  0.12452815  0.88032158  0.63792697  1
  O  O375  1  0.63020269  0.37961950  0.13243514  1
  O  O376  1  0.63669939  0.37370157  0.62884880  1
  O  O377  1  0.63102429  0.86286882  0.11002998  1
  O  O378  1  0.63105818  0.88058364  0.62689698  1
  O  O379  1  0.11232787  0.25696422  0.25544957  1
  O  O380  1  0.11257269  0.25920688  0.74381039  1
  O  O381  1  0.11381172  0.76084328  0.25610335  1
  O  O382  1  0.11723411  0.75937231  0.75113282  1
  O  O383  1  0.61556338  0.25788656  0.24702889  1
  O  O384  1  0.61978756  0.26421403  0.74497803  1
  O  O385  1  0.63427271  0.75074727  0.26232336  1
  O  O386  1  0.61670299  0.75242750  0.75308804  1
  O  O387  1  0.38891683  0.25843331  0.24462053  1
  O  O388  1  0.37928324  0.25858007  0.73384917  1
  O  O389  1  0.36656367  0.74775246  0.24007692  1
  O  O390  1  0.38083169  0.74417470  0.74118311  1
  O  O391  1  0.89092936  0.25433595  0.24571530  1
  O  O392  1  0.88986093  0.25876657  0.73464070  1
  O  O393  1  0.88943597  0.74436658  0.24215019  1
  O  O394  1  0.88110678  0.74015282  0.73400016  1
  O  O395  1  0.38253289  0.49484278  0.49779006  1
  O  O396  1  0.38026664  0.50135887  0.99296435  1
  O  O397  1  0.39119345  0.99244232  0.50853309  1
  O  O398  1  0.38190833  0.98037119  1.00808734  1
  O  O399  1  0.88175454  0.48687172  0.49275036  1
  O  O400  1  0.88032249  0.50036369  0.99086945  1
  O  O401  1  0.88967559  0.99731049  0.50807897  1
  O  O402  1  0.88008935  1.00203513  0.99136384  1
  O  O403  1  0.12618164  0.01192920  -0.00275054  1
  O  O404  1  0.11404075  -0.00102529  0.51234338  1
  O  O405  1  0.11376692  0.50181367  0.00470446  1
  O  O406  1  0.12012033  0.49625966  0.50782088  1
  O  O407  1  0.61122715  0.02095188  -0.00709369  1
  O  O408  1  0.62214940  0.00198428  0.51022767  1
  O  O409  1  0.61561423  0.50607404  0.00586808  1
  O  O410  1  0.61932144  0.51189083  0.49385322  1
  O  O411  1  0.36670557  0.36836177  0.12545429  1
  O  O412  1  0.37603008  0.36812319  0.61504020  1
  O  O413  1  0.37063474  0.86218008  0.12089525  1
  O  O414  1  0.36862277  0.86876314  0.61178854  1
  O  O415  1  0.85969646  0.37301775  0.12279419  1
  O  O416  1  0.86690974  0.36831186  0.61549834  1
  O  O417  1  0.87660076  0.85385332  0.12709650  1
  O  O418  1  0.87014663  0.86464145  0.62437197  1
  O  O419  1  0.11561414  0.13815742  0.37934369  1
  O  O420  1  0.13747288  0.12638002  0.88695788  1
  O  O421  1  0.11414343  0.64188274  0.38553060  1
  O  O422  1  0.13358227  0.62497820  0.87270623  1
  O  O423  1  0.62056298  0.12169725  0.39318106  1
  O  O424  1  0.64672511  0.12684314  0.86666108  1
  O  O425  1  0.63761382  0.62956488  0.38123061  1
  O  O426  1  0.62871236  0.62922566  0.87853015  1
