# generated using pymatgen
data_V85Zn86O256
_symmetry_space_group_name_H-M   'P 1'
_cell_length_a   16.90807910
_cell_length_b   16.91379459
_cell_length_c   16.91208168
_cell_angle_alpha   89.96243233
_cell_angle_beta   90.07267712
_cell_angle_gamma   89.97634827
_symmetry_Int_Tables_number   1
_chemical_formula_structural   V85Zn86O256
_chemical_formula_sum   'V85 Zn86 O256'
_cell_volume   4836.50799791
_cell_formula_units_Z   1
loop_
 _symmetry_equiv_pos_site_id
 _symmetry_equiv_pos_as_xyz
  1  'x, y, z'
loop_
 _atom_site_type_symbol
 _atom_site_label
 _atom_site_symmetry_multiplicity
 _atom_site_fract_x
 _atom_site_fract_y
 _atom_site_fract_z
 _atom_site_occupancy
  V  V0  1  0.74971487  0.12609645  0.37675953  1
  V  V1  1  0.25588952  0.87044115  0.62616847  1
  V  V2  1  0.74666476  0.75196337  -0.00718896  1
  V  V3  1  0.74369410  0.24792752  -0.01548138  1
  V  V4  1  0.00006115  0.62439407  0.12840055  1
  V  V5  1  0.00010318  0.87485405  0.87551624  1
  V  V6  1  0.50304044  -0.00426234  0.50465675  1
  V  V7  1  0.00273943  0.12202335  0.12797751  1
  V  V8  1  0.37283276  0.36079212  -0.00637952  1
  V  V9  1  0.49781548  0.37863747  0.87190822  1
  V  V10  1  0.87886504  0.50350021  0.36773961  1
  V  V11  1  0.11958585  0.24830233  0.87395480  1
  V  V12  1  0.37158447  0.63620572  0.74227634  1
  V  V13  1  0.13321775  0.49472279  0.62314472  1
  V  V14  1  0.62083264  0.50009568  0.12184999  1
  V  V15  1  0.25794626  0.49411214  0.75011955  1
  V  V16  1  0.37743099  0.50016956  0.36536557  1
  V  V17  1  0.62156631  0.62674824  -0.00830477  1
  V  V18  1  0.25804678  0.13309204  0.88110105  1
  V  V19  1  0.00839399  0.50490489  -0.00097361  1
  V  V20  1  0.62323386  0.24884089  0.37283999  1
  V  V21  1  0.00379970  0.75562624  0.24922808  1
  V  V22  1  0.24935803  0.12198105  0.37585178  1
  V  V23  1  0.36814744  0.25255040  0.62446622  1
  V  V24  1  0.87786825  0.50254018  0.87383497  1
  V  V25  1  0.13356147  0.12758380  0.00346358  1
  V  V26  1  0.74823697  0.49916397  0.74246991  1
  V  V27  1  0.13268330  0.37937557  0.24981950  1
  V  V28  1  0.12470164  0.36989089  0.74590134  1
  V  V29  1  0.50036172  0.37982601  0.37734261  1
  V  V30  1  0.87397307  0.12408091  0.25174493  1
  V  V31  1  0.37033482  -0.00267874  0.37774092  1
  V  V32  1  0.13413942  0.50437241  0.12475781  1
  V  V33  1  0.50551776  0.24956602  0.75133599  1
  V  V34  1  0.51423137  0.75013098  0.74700456  1
  V  V35  1  0.25103098  0.86783623  0.14109759  1
  V  V36  1  0.75618194  0.50795268  0.24207295  1
  V  V37  1  0.49708455  0.63753525  0.12684455  1
  V  V38  1  0.00084722  0.49978471  0.49849788  1
  V  V39  1  0.00204617  0.00031521  0.00189316  1
  V  V40  1  0.11921973  0.12344764  0.50235186  1
  V  V41  1  0.25189936  0.36480123  0.12099733  1
  V  V42  1  0.12649387  0.74418140  0.88525337  1
  V  V43  1  0.37040882  0.38189558  0.50197185  1
  V  V44  1  0.49926932  0.12073537  0.62654025  1
  V  V45  1  0.87113212  -0.00709985  0.38247078  1
  V  V46  1  0.50807525  -0.00479717  0.00949814  1
  V  V47  1  0.25505168  0.74782413  0.50327934  1
  V  V48  1  0.12571663  0.25042300  0.37577910  1
  V  V49  1  0.87678982  0.62718397  0.74818003  1
  V  V50  1  0.75125831  0.62812082  0.37198350  1
  V  V51  1  0.87370866  0.25394682  0.64051625  1
  V  V52  1  0.74522513  0.01485706  0.74988040  1
  V  V53  1  0.74954408  0.75653696  0.49745827  1
  V  V54  1  0.00287129  0.87506367  0.38042504  1
  V  V55  1  0.51047688  0.11898610  0.12890532  1
  V  V56  1  0.86939109  0.37469696  0.50257085  1
  V  V57  1  -0.00024952  0.25151840  0.24979490  1
  V  V58  1  0.73887927  0.88087593  0.62591945  1
  V  V59  1  0.74850549  0.37254092  0.12315721  1
  V  V60  1  0.62547058  0.12424737  0.50595519  1
  V  V61  1  0.73967295  0.00014790  0.24726771  1
  V  V62  1  0.87333100  0.74609972  0.12864984  1
  V  V63  1  0.13232216  -0.00517113  0.13968418  1
  V  V64  1  0.00126313  0.62704841  0.62382039  1
  V  V65  1  0.37748091  0.63845611  0.24549500  1
  V  V66  1  0.74399145  0.88088555  0.12311986  1
  V  V67  1  0.37121692  0.12172329  0.25036095  1
  V  V68  1  0.25250004  0.00004868  0.75161873  1
  V  V69  1  -0.00347310  0.13009763  0.64065350  1
  V  V70  1  0.50700024  0.61488509  0.61899572  1
  V  V71  1  0.48901305  0.49983632  -0.00347863  1
  V  V72  1  0.37065154  0.86360830  0.00486845  1
  V  V73  1  0.24913841  0.61996377  0.36868504  1
  V  V74  1  0.50155038  0.86757675  0.37006474  1
  V  V75  1  0.87808560  0.37542309  -0.00030886  1
  V  V76  1  0.62737566  0.37721359  0.74847491  1
  V  V77  1  0.12605114  0.62633659  0.49702988  1
  V  V78  1  0.74804449  0.62716767  0.87274572  1
  V  V79  1  0.25307034  0.61916259  0.88114217  1
  V  V80  1  0.87536830  0.87580231  -0.00137454  1
  V  V81  1  0.87741386  0.76327644  0.62086214  1
  V  V82  1  0.12582690  0.87193457  0.75156030  1
  V  V83  1  0.37819966  -0.00451849  0.88028983  1
  V  V84  1  0.87133140  0.01520448  0.87096290  1
  Zn  Zn85  1  0.25032123  0.74273913  0.00763572  1
  Zn  Zn86  1  0.24650243  0.25358552  0.50526624  1
  Zn  Zn87  1  -0.00779207  -0.00306560  0.50742920  1
  Zn  Zn88  1  0.63439943  0.12122867  -0.00682521  1
  Zn  Zn89  1  0.12198039  -0.00002668  0.62603884  1
  Zn  Zn90  1  0.87376788  0.24751458  0.12409267  1
  Zn  Zn91  1  0.61692508  0.86963595  0.24187990  1
  Zn  Zn92  1  0.00077977  0.37626035  0.37419356  1
  Zn  Zn93  1  0.37638590  0.12589415  0.75139197  1
  Zn  Zn94  1  0.62062663  0.74463389  0.36812532  1
  Zn  Zn95  1  0.50532057  0.86281885  0.88129759  1
  Zn  Zn96  1  0.37940072  0.86932251  0.50640402  1
  Zn  Zn97  1  -0.00019059  0.75040279  0.75062176  1
  Zn  Zn98  1  0.62190153  0.37425710  0.24726270  1
  Zn  Zn99  1  0.67561478  0.44793319  0.58485110  1
  Zn  Zn100  1  0.62807026  0.87772193  0.76026150  1
  Zn  Zn101  1  0.13051662  0.75702026  0.36960373  1
  Zn  Zn102  1  0.37436023  0.24152016  0.11926100  1
  Zn  Zn103  1  0.62401012  0.61231857  0.49848573  1
  Zn  Zn104  1  0.74920904  0.25529645  0.50517790  1
  Zn  Zn105  1  0.49586350  0.25107622  0.24839606  1
  Zn  Zn106  1  0.00143752  0.37212100  0.87172126  1
  Zn  Zn107  1  0.19006882  0.18612155  0.19143556  1
  Zn  Zn108  1  0.18718612  0.18534818  0.69068193  1
  Zn  Zn109  1  0.18645455  0.68563147  0.19006241  1
  Zn  Zn110  1  0.18641836  0.68695702  0.68893512  1
  Zn  Zn111  1  0.68611480  0.18799830  0.18585656  1
  Zn  Zn112  1  0.68726329  0.19321188  0.68702910  1
  Zn  Zn113  1  0.68363585  0.69030003  0.18508504  1
  Zn  Zn114  1  0.68930885  0.68612861  0.68145013  1
  Zn  Zn115  1  0.31170056  0.30947354  0.31285705  1
  Zn  Zn116  1  0.31467371  0.31340741  0.81226574  1
  Zn  Zn117  1  0.31571500  0.80981176  0.31837646  1
  Zn  Zn118  1  0.31319662  0.80928656  0.81693884  1
  Zn  Zn119  1  0.81105490  0.31577597  0.31216336  1
  Zn  Zn120  1  0.81164189  0.31726396  0.81340480  1
  Zn  Zn121  1  0.81421540  0.81417112  0.30882157  1
  Zn  Zn122  1  0.81279548  0.81702029  0.80933316  1
  Zn  Zn123  1  0.19176182  0.43855740  0.43563430  1
  Zn  Zn124  1  0.19115831  0.43492991  0.93643464  1
  Zn  Zn125  1  0.18397332  0.93726494  0.44020489  1
  Zn  Zn126  1  0.19070937  0.93751933  0.94213619  1
  Zn  Zn127  1  0.69052697  0.43825930  0.42364186  1
  Zn  Zn128  1  0.68503639  0.43718450  0.93202793  1
  Zn  Zn129  1  0.68510561  0.93728444  0.43989801  1
  Zn  Zn130  1  0.68631694  0.93746246  0.93070693  1
  Zn  Zn131  1  0.31517733  0.05485756  0.06460060  1
  Zn  Zn132  1  0.31240226  0.06207279  0.56297178  1
  Zn  Zn133  1  0.31321632  0.55885166  0.06672324  1
  Zn  Zn134  1  0.31693610  0.56133802  0.56109461  1
  Zn  Zn135  1  0.81371991  0.06438256  0.06170761  1
  Zn  Zn136  1  0.81307917  0.06711729  0.56758663  1
  Zn  Zn137  1  0.81466757  0.56421616  0.05938492  1
  Zn  Zn138  1  0.81717110  0.57005638  0.55690676  1
  Zn  Zn139  1  0.43518110  0.43772907  0.18774674  1
  Zn  Zn140  1  0.43610766  0.43820307  0.68538500  1
  Zn  Zn141  1  0.43015881  0.93817743  0.19015081  1
  Zn  Zn142  1  0.43863442  0.93557597  0.68978436  1
  Zn  Zn143  1  0.94089762  0.43700157  0.18513008  1
  Zn  Zn144  1  0.94183091  0.43718936  0.68701918  1
  Zn  Zn145  1  0.93376719  0.93640063  0.19135433  1
  Zn  Zn146  1  0.93585057  0.94240984  0.69130627  1
  Zn  Zn147  1  0.06007284  0.06024805  0.31697132  1
  Zn  Zn148  1  0.06583978  0.06059089  0.81681403  1
  Zn  Zn149  1  0.06243656  0.56555978  0.30674310  1
  Zn  Zn150  1  0.06709303  0.56109371  0.80990731  1
  Zn  Zn151  1  0.55886075  0.05917706  0.31640307  1
  Zn  Zn152  1  0.56591136  0.06304035  0.81946937  1
  Zn  Zn153  1  0.56311826  0.56221446  0.30975764  1
  Zn  Zn154  1  0.55981995  0.56012938  0.80857591  1
  Zn  Zn155  1  0.43712454  0.18969928  0.43970617  1
  Zn  Zn156  1  0.46795212  0.17631640  0.92872171  1
  Zn  Zn157  1  0.43464327  0.68468916  0.44012145  1
  Zn  Zn158  1  0.43345094  0.68350358  0.92986368  1
  Zn  Zn159  1  0.93675497  0.18810233  0.43953077  1
  Zn  Zn160  1  0.93971716  0.18943874  0.94263299  1
  Zn  Zn161  1  0.93380415  0.68954578  0.43673106  1
  Zn  Zn162  1  0.93939464  0.68744271  0.94013455  1
  Zn  Zn163  1  0.06501629  0.31138876  0.06197781  1
  Zn  Zn164  1  0.05740450  0.31199209  0.56333226  1
  Zn  Zn165  1  0.06573998  0.81425317  0.06501376  1
  Zn  Zn166  1  0.06740664  0.81322732  0.56020717  1
  Zn  Zn167  1  0.55877539  0.30897906  0.06252335  1
  Zn  Zn168  1  0.55509922  0.30988300  0.56023403  1
  Zn  Zn169  1  0.56534330  0.81234869  0.05808516  1
  Zn  Zn170  1  0.56359094  0.80363258  0.56375356  1
  O  O171  1  0.12577161  0.11483202  0.12163040  1
  O  O172  1  0.11431441  0.12629273  0.61998462  1
  O  O173  1  0.11899272  0.61375537  0.12784094  1
  O  O174  1  0.11863438  0.61880215  0.61910272  1
  O  O175  1  0.61343548  0.12661312  0.11872177  1
  O  O176  1  0.61680158  0.13365159  0.61281428  1
  O  O177  1  0.61909752  0.61774778  0.11333344  1
  O  O178  1  0.61265769  0.62458596  0.62267326  1
  O  O179  1  0.37964606  0.38182537  0.37683751  1
  O  O180  1  0.37963292  0.37869239  0.88321369  1
  O  O181  1  0.38351330  0.88100706  0.38136405  1
  O  O182  1  0.37566888  0.87925541  0.88497008  1
  O  O183  1  0.87543159  0.38713992  0.38144632  1
  O  O184  1  0.87935627  0.38169920  0.88504054  1
  O  O185  1  0.88423008  0.88367424  0.37229323  1
  O  O186  1  0.88260168  0.88065843  0.88140768  1
  O  O187  1  0.26181486  0.00431089  0.38540489  1
  O  O188  1  0.25975335  0.00549278  0.87160392  1
  O  O189  1  0.25738809  0.51371585  0.37604648  1
  O  O190  1  0.24074957  0.50980283  0.86317272  1
  O  O191  1  0.75419437  0.00402754  0.36874881  1
  O  O192  1  0.76247221  0.00110498  0.86676384  1
  O  O193  1  0.75886769  0.50680904  0.36007631  1
  O  O194  1  0.75771642  0.50747884  0.86705083  1
  O  O195  1  0.23882309  0.48880747  0.12081187  1
  O  O196  1  0.23888908  0.50512038  0.62991846  1
  O  O197  1  0.23819986  0.98871954  0.12565626  1
  O  O198  1  0.24659201  0.99548835  0.63620119  1
  O  O199  1  0.74531189  0.49275095  0.12397548  1
  O  O200  1  0.76134231  0.50520732  0.63769714  1
  O  O201  1  0.75700419  0.99253324  0.13322577  1
  O  O202  1  0.75987702  0.99454480  0.64041146  1
  O  O203  1  0.01007633  0.36652826  0.24912245  1
  O  O204  1  0.01879873  0.38338542  0.75476623  1
  O  O205  1  -0.00505002  0.86673055  0.26110659  1
  O  O206  1  0.00946298  0.87585096  0.75628652  1
  O  O207  1  0.50029930  0.37219538  0.26003061  1
  O  O208  1  0.50348786  0.37246080  0.75439018  1
  O  O209  1  0.49768562  0.88128808  0.26645448  1
  O  O210  1  0.50297682  0.85940237  0.74562411  1
  O  O211  1  0.49217443  0.12179960  0.24373952  1
  O  O212  1  0.49924833  0.13177847  0.74215538  1
  O  O213  1  0.48832904  0.61996434  0.24064690  1
  O  O214  1  0.49068396  0.63091094  0.74400520  1
  O  O215  1  0.99610977  0.13150342  0.24747014  1
  O  O216  1  1.00716635  0.12396191  0.73930992  1
  O  O217  1  0.99774470  0.63228288  0.23605185  1
  O  O218  1  0.99621121  0.62659744  0.74124585  1
  O  O219  1  0.38490502  0.25945612  -0.00217829  1
  O  O220  1  0.37290682  0.25694046  0.50830079  1
  O  O221  1  0.37422995  0.75959530  -0.00365822  1
  O  O222  1  0.35990021  0.75044092  0.49898053  1
  O  O223  1  0.86713392  0.25925579  0.00251779  1
  O  O224  1  0.87347316  0.26187889  0.50215626  1
  O  O225  1  0.87050837  0.75652655  0.00795971  1
  O  O226  1  0.86260528  0.74540769  0.50947387  1
  O  O227  1  0.12392403  0.24153486  0.49490724  1
  O  O228  1  0.12431472  0.23494837  0.99593238  1
  O  O229  1  0.13365292  0.74219918  0.49423183  1
  O  O230  1  0.12630397  0.75148095  0.98878066  1
  O  O231  1  0.62587473  0.24418445  0.48996600  1
  O  O232  1  0.64266902  0.25629038  1.00265598  1
  O  O233  1  0.63905588  0.74495642  0.49370633  1
  O  O234  1  0.63503291  0.73916737  1.00177511  1
  O  O235  1  0.49616053  0.23759070  0.12861986  1
  O  O236  1  0.49057193  0.23913726  0.62959577  1
  O  O237  1  0.50401377  0.73636151  0.11986052  1
  O  O238  1  0.50070567  0.73855245  0.63880334  1
  O  O239  1  1.00114357  0.24377241  0.13593983  1
  O  O240  1  0.99053115  0.23860204  0.62361286  1
  O  O241  1  0.99544293  0.74589304  0.12905181  1
  O  O242  1  0.99420021  0.74661299  0.62392699  1
  O  O243  1  0.00558184  0.25061206  0.36404689  1
  O  O244  1  0.01501641  0.24948366  0.87974700  1
  O  O245  1  -0.00398106  0.76016353  0.36828638  1
  O  O246  1  0.00768906  0.75522675  0.87370773  1
  O  O247  1  0.50750990  0.25477515  0.37252204  1
  O  O248  1  0.48919953  0.26879692  0.86175712  1
  O  O249  1  0.49854622  0.76462606  0.38359195  1
  O  O250  1  0.49034501  0.74654459  0.85223445  1
  O  O251  1  0.24106510  0.12652094  0.49256169  1
  O  O252  1  0.24534491  0.11718522  0.99349241  1
  O  O253  1  0.24584196  0.62980285  0.49399795  1
  O  O254  1  0.25976768  0.62292425  0.98630408  1
  O  O255  1  0.74052804  0.12613770  0.49601499  1
  O  O256  1  0.75039476  0.14262311  1.00553377  1
  O  O257  1  0.74930351  0.63277199  0.48785079  1
  O  O258  1  0.74239561  0.63143047  0.99413744  1
  O  O259  1  0.26122633  0.37674808  0.00688300  1
  O  O260  1  0.26430206  0.37118696  0.49414748  1
  O  O261  1  0.25642856  0.87072555  0.00973976  1
  O  O262  1  0.24762558  0.86676863  0.50898367  1
  O  O263  1  0.75686460  0.36996131  0.00318584  1
  O  O264  1  0.76153497  0.37934486  0.50233067  1
  O  O265  1  0.75521035  0.86993257  0.00355267  1
  O  O266  1  0.74785702  0.86998799  0.50938221  1
  O  O267  1  0.11929070  0.48956193  0.23882478  1
  O  O268  1  0.13481173  0.49440140  0.74009305  1
  O  O269  1  0.12273887  1.00407003  0.23771298  1
  O  O270  1  0.13700765  0.98901490  0.75529958  1
  O  O271  1  0.63294754  0.50048897  0.23444375  1
  O  O272  1  0.63630923  0.49423702  0.74902683  1
  O  O273  1  0.63676021  0.99591328  0.25503318  1
  O  O274  1  0.64029445  1.00106539  0.75772753  1
  O  O275  1  0.37625670  0.01093504  0.26460847  1
  O  O276  1  0.36630236  -0.00210360  0.75971568  1
  O  O277  1  0.37425680  0.50647250  0.26048362  1
  O  O278  1  0.36146610  0.50663739  0.74405528  1
  O  O279  1  0.86690559  0.00667206  0.26057277  1
  O  O280  1  0.86646777  -0.00040689  0.76476450  1
  O  O281  1  0.86968210  0.49526213  0.25534281  1
  O  O282  1  0.87218745  0.50536252  0.75534119  1
  O  O283  1  0.12494904  0.37116028  0.36667554  1
  O  O284  1  0.12689067  0.36330142  0.87034119  1
  O  O285  1  0.10914181  0.87616152  0.37454311  1
  O  O286  1  0.12129138  0.86953138  0.87073914  1
  O  O287  1  0.61769544  0.36611350  0.37043201  1
  O  O288  1  0.61402449  0.37914865  0.86100530  1
  O  O289  1  0.60837334  0.87680487  0.37583691  1
  O  O290  1  0.61877701  0.87089034  0.87445812  1
  O  O291  1  0.37347203  0.12204763  0.13797883  1
  O  O292  1  0.38224309  0.13169860  0.62701198  1
  O  O293  1  0.38069571  0.62090856  0.13732057  1
  O  O294  1  0.38315918  0.62124743  0.63622892  1
  O  O295  1  0.88427164  0.12570371  0.13308349  1
  O  O296  1  0.88780489  0.13823638  0.62415395  1
  O  O297  1  0.88346004  0.63520139  0.11832619  1
  O  O298  1  0.88378607  0.63460321  0.62866038  1
  O  O299  1  0.25099210  0.26012286  0.12599008  1
  O  O300  1  0.26395474  0.24339027  0.62612633  1
  O  O301  1  0.23990127  0.76356809  0.12402424  1
  O  O302  1  0.24174963  0.75842526  0.61720868  1
  O  O303  1  0.75203132  0.26420968  0.12518789  1
  O  O304  1  0.76871827  0.24581568  0.62353525  1
  O  O305  1  0.75775846  0.75450014  0.11316730  1
  O  O306  1  0.75680555  0.75892559  0.61820685  1
  O  O307  1  0.24201776  0.24047864  0.37880453  1
  O  O308  1  0.24539676  0.23631932  0.87165833  1
  O  O309  1  0.24863943  0.73926581  0.38148738  1
  O  O310  1  0.24307297  0.73951798  0.87803735  1
  O  O311  1  0.74199539  0.24522999  0.37736288  1
  O  O312  1  0.75148942  0.25155534  0.88560348  1
  O  O313  1  0.75670932  0.74300297  0.37985432  1
  O  O314  1  0.75952711  0.74503852  0.88661103  1
  O  O315  1  0.00838806  0.11949651  0.00974328  1
  O  O316  1  0.00696465  0.12307077  0.50626820  1
  O  O317  1  -0.00171863  0.61557383  0.01142266  1
  O  O318  1  0.00546138  0.62026385  0.50291202  1
  O  O319  1  0.48123336  0.10718424  0.02117471  1
  O  O320  1  0.50510695  0.11874070  0.50680139  1
  O  O321  1  0.50329971  0.61832786  0.00189982  1
  O  O322  1  0.50093307  0.62948815  0.51458494  1
  O  O323  1  0.48797639  0.36894360  0.48484411  1
  O  O324  1  0.49568495  0.38063975  0.99220522  1
  O  O325  1  0.50023799  0.88071865  0.49814675  1
  O  O326  1  0.49001794  0.87939946  1.00411642  1
  O  O327  1  0.99104689  0.38309966  0.49597596  1
  O  O328  1  0.99287043  0.38192897  1.00041978  1
  O  O329  1  1.00024451  0.87606726  0.48679609  1
  O  O330  1  0.99607493  0.88161383  0.99668613  1
  O  O331  1  0.49307223  0.49148905  0.37057479  1
  O  O332  1  0.50138030  0.49152275  0.88297680  1
  O  O333  1  0.49037367  0.99226244  0.38548250  1
  O  O334  1  0.48645471  0.99358141  0.88281431  1
  O  O335  1  0.99379567  0.50112420  0.37766271  1
  O  O336  1  0.99747342  0.50139657  0.88334454  1
  O  O337  1  0.99106336  0.98920595  0.37615730  1
  O  O338  1  0.99151372  0.99579240  0.88035950  1
  O  O339  1  0.00997540  0.00092992  0.12242268  1
  O  O340  1  -0.00139843  0.01355719  0.62548773  1
  O  O341  1  0.00752852  0.50673845  0.11906392  1
  O  O342  1  0.00958200  0.50702258  0.61804509  1
  O  O343  1  0.49806653  0.00289527  0.12168445  1
  O  O344  1  0.49522351  0.01148573  0.62124410  1
  O  O345  1  0.50683850  0.50462903  0.11703827  1
  O  O346  1  0.50009298  0.51568335  0.63079714  1
  O  O347  1  0.23913130  0.37023936  0.24245936  1
  O  O348  1  0.24059310  0.38408786  0.75463846  1
  O  O349  1  0.25359470  0.87005000  0.24067189  1
  O  O350  1  0.24519500  0.87883699  0.74689699  1
  O  O351  1  0.74821402  0.38690628  0.23958263  1
  O  O352  1  0.74097708  0.38589095  0.75412505  1
  O  O353  1  0.75307942  0.88485417  0.23950472  1
  O  O354  1  0.74871553  0.88445905  0.74232442  1
  O  O355  1  0.25401599  0.12477413  0.26689205  1
  O  O356  1  0.25232669  0.11479020  0.76001414  1
  O  O357  1  0.26345227  0.62891240  0.25587397  1
  O  O358  1  0.25893491  0.61974917  0.75136321  1
  O  O359  1  0.75339343  0.11864965  0.25369241  1
  O  O360  1  0.74790224  0.11421587  0.74629560  1
  O  O361  1  0.75054972  0.61412729  0.25010263  1
  O  O362  1  0.75532376  0.62074444  0.75441471  1
  O  O363  1  0.36761499  0.11824730  0.37506834  1
  O  O364  1  0.37209198  0.11632131  0.87536926  1
  O  O365  1  0.37210310  0.61987039  0.36503782  1
  O  O366  1  0.36471533  0.62323209  0.85719320  1
  O  O367  1  0.86793594  0.12049279  0.36976519  1
  O  O368  1  0.88074306  0.11334583  0.87942362  1
  O  O369  1  0.86570943  0.61276173  0.37671947  1
  O  O370  1  0.87112973  0.62153675  0.86879235  1
  O  O371  1  0.13226779  0.37949843  0.12979811  1
  O  O372  1  0.12216392  0.38270190  0.63041047  1
  O  O373  1  0.13498862  0.88664715  0.12393240  1
  O  O374  1  0.13193951  0.87829837  0.63527131  1
  O  O375  1  0.63090605  0.38251742  0.12400039  1
  O  O376  1  0.61933926  0.36703324  0.63866104  1
  O  O377  1  0.63989943  0.87324145  0.12256045  1
  O  O378  1  0.63669541  0.87150861  0.62970164  1
  O  O379  1  0.11862601  0.25541738  0.25541018  1
  O  O380  1  0.13100435  0.25792620  0.75928596  1
  O  O381  1  0.10890549  0.74569159  0.25221458  1
  O  O382  1  0.12528719  0.76112115  0.75864163  1
  O  O383  1  0.62351394  0.24955454  0.26183829  1
  O  O384  1  0.61237484  0.25655599  0.74771664  1
  O  O385  1  0.63146841  0.75728470  0.25533853  1
  O  O386  1  0.61613762  0.74566672  0.75035414  1
  O  O387  1  0.37529238  0.23425958  0.25187474  1
  O  O388  1  0.38506255  0.25127121  0.74124231  1
  O  O389  1  0.37908372  0.73717998  0.25326987  1
  O  O390  1  0.37279748  0.73798145  0.74494842  1
  O  O391  1  0.88288737  0.24620199  0.24933596  1
  O  O392  1  0.87787335  0.25947291  0.73966701  1
  O  O393  1  0.88254563  0.75354249  0.23477681  1
  O  O394  1  0.87648814  0.74391048  0.74063892  1
  O  O395  1  0.37172931  0.49236945  0.48633555  1
  O  O396  1  0.38685248  0.49092748  1.00582117  1
  O  O397  1  0.38650705  0.99853317  0.49642159  1
  O  O398  1  0.37860078  0.98530996  0.99566524  1
  O  O399  1  0.88159919  0.49533059  0.49256065  1
  O  O400  1  0.88425042  0.49426754  0.99460146  1
  O  O401  1  0.87332987  1.00796753  0.48630097  1
  O  O402  1  0.87914121  0.99574580  0.99063810  1
  O  O403  1  0.12054984  0.00960714  0.00640223  1
  O  O404  1  0.12046476  0.01204887  0.50377867  1
  O  O405  1  0.11473815  0.49213719  0.00766372  1
  O  O406  1  0.12181919  0.50427081  0.50494510  1
  O  O407  1  0.61136990  0.00061743  -0.00271031  1
  O  O408  1  0.61183115  0.00952927  0.49643248  1
  O  O409  1  0.61892997  0.50489017  0.00689007  1
  O  O410  1  0.63201580  0.49828949  0.49705510  1
  O  O411  1  0.36753060  0.37109912  0.11823047  1
  O  O412  1  0.38197354  0.36707248  0.61331478  1
  O  O413  1  0.35852644  0.87870317  0.12140392  1
  O  O414  1  0.36003903  0.87919294  0.62514064  1
  O  O415  1  0.86802431  0.37659494  0.11374250  1
  O  O416  1  0.88516689  0.36242115  0.61767284  1
  O  O417  1  0.86724019  0.86957734  0.11691256  1
  O  O418  1  0.87049268  0.86601452  0.63026340  1
  O  O419  1  0.12980969  0.12748831  0.38242274  1
  O  O420  1  0.13445192  0.12871066  0.88375393  1
  O  O421  1  0.13357017  0.62477557  0.37776965  1
  O  O422  1  0.13712254  0.63455872  0.86595011  1
  O  O423  1  0.62766362  0.13007906  0.38391602  1
  O  O424  1  0.57734034  0.13990140  0.89760133  1
  O  O425  1  0.63891416  0.62368222  0.37298614  1
  O  O426  1  0.62848604  0.61842207  0.88547264  1
