# generated using pymatgen
data_V85Zn86O256
_symmetry_space_group_name_H-M   'P 1'
_cell_length_a   16.93584325
_cell_length_b   16.93805046
_cell_length_c   16.94124685
_cell_angle_alpha   89.95875140
_cell_angle_beta   90.04454203
_cell_angle_gamma   90.02902682
_symmetry_Int_Tables_number   1
_chemical_formula_structural   V85Zn86O256
_chemical_formula_sum   'V85 Zn86 O256'
_cell_volume   4859.76555899
_cell_formula_units_Z   1
loop_
 _symmetry_equiv_pos_site_id
 _symmetry_equiv_pos_as_xyz
  1  'x, y, z'
loop_
 _atom_site_type_symbol
 _atom_site_label
 _atom_site_symmetry_multiplicity
 _atom_site_fract_x
 _atom_site_fract_y
 _atom_site_fract_z
 _atom_site_occupancy
  V  V0  1  0.74462140  0.63300434  0.37643351  1
  V  V1  1  -0.00366506  0.75487501  0.74868773  1
  V  V2  1  0.61775018  0.11128663  -0.00210338  1
  V  V3  1  0.87021127  -0.00124008  0.34556272  1
  V  V4  1  0.24918267  0.25068125  0.50075956  1
  V  V5  1  0.62632593  0.63739176  0.49868572  1
  V  V6  1  0.75014428  0.49618738  0.25947988  1
  V  V7  1  0.25047914  0.87470650  0.12479717  1
  V  V8  1  0.38127781  0.25082107  0.62350303  1
  V  V9  1  0.55123212  0.06436744  0.56555561  1
  V  V10  1  0.38054904  0.87734165  0.00335149  1
  V  V11  1  0.88329002  0.00452439  0.87741222  1
  V  V12  1  0.75933599  0.13311331  0.36524481  1
  V  V13  1  0.87068223  0.35492736  0.49967388  1
  V  V14  1  0.74293260  0.62703552  0.87425835  1
  V  V15  1  0.50503423  0.86955523  0.87651294  1
  V  V16  1  0.38327275  0.37518024  0.00187408  1
  V  V17  1  -0.00178300  0.49897846  -0.00331746  1
  V  V18  1  0.61829383  0.36324679  0.25077875  1
  V  V19  1  0.74514470  0.87859645  0.13470089  1
  V  V20  1  0.01211639  0.37138185  0.86941193  1
  V  V21  1  0.49846595  0.12678293  0.12473509  1
  V  V22  1  0.87230460  0.24198346  0.12789987  1
  V  V23  1  0.74142147  0.75112950  -0.00353180  1
  V  V24  1  0.12161806  0.24950377  0.37423482  1
  V  V25  1  0.25103507  0.74802664  0.50302276  1
  V  V26  1  0.37413245  0.62371448  0.75097685  1
  V  V27  1  0.87299977  0.74776882  0.12320469  1
  V  V28  1  0.87242167  0.13763106  0.74250235  1
  V  V29  1  0.74767200  -0.00378306  0.73808262  1
  V  V30  1  0.25504079  0.00116513  0.74906611  1
  V  V31  1  0.25099714  0.74898614  0.00028739  1
  V  V32  1  0.12128678  0.37393628  0.24941390  1
  V  V33  1  0.51243530  0.87199786  0.36920716  1
  V  V34  1  0.87166730  0.49875724  0.86990007  1
  V  V35  1  -0.00426674  0.62565139  0.62543641  1
  V  V36  1  0.37320817  0.74568255  0.13779089  1
  V  V37  1  0.12314043  0.75082654  0.37785195  1
  V  V38  1  0.24494777  0.25141893  -0.00014387  1
  V  V39  1  0.49576745  0.62131202  0.12474873  1
  V  V40  1  0.50639734  0.61548747  0.62594174  1
  V  V41  1  0.51795433  0.74703245  0.25406508  1
  V  V42  1  0.25039978  0.12407002  0.37548353  1
  V  V43  1  0.62127894  -0.00413047  0.14361450  1
  V  V44  1  0.51135563  0.74721203  0.75487717  1
  V  V45  1  0.87586659  0.61809288  0.25707823  1
  V  V46  1  0.24258675  0.37375062  0.62792353  1
  V  V47  1  0.37937430  0.74597534  0.62511770  1
  V  V48  1  0.38520424  0.87284998  0.49727161  1
  V  V49  1  -0.01618520  -0.00279916  0.50130854  1
  V  V50  1  0.74630029  0.24889328  -0.00091288  1
  V  V51  1  0.37943064  0.13413198  0.25161405  1
  V  V52  1  0.25017297  0.00080322  0.25015056  1
  V  V53  1  -0.00375605  0.23906682  0.24721117  1
  V  V54  1  0.24966962  0.62413531  0.87481326  1
  V  V55  1  0.38348523  0.12527318  0.74629160  1
  V  V56  1  0.12075905  0.00349702  0.11394134  1
  V  V57  1  0.12623681  0.00058435  0.62228165  1
  V  V58  1  0.24555474  0.13045736  0.87514173  1
  V  V59  1  0.12242073  0.87616520  0.25174626  1
  V  V60  1  0.24290969  0.49474628  0.75098325  1
  V  V61  1  0.86527877  0.76568041  0.61017919  1
  V  V62  1  0.12660639  0.87672339  0.74879117  1
  V  V63  1  0.38291395  0.50016569  0.88015111  1
  V  V64  1  0.62182950  0.49911448  0.12037715  1
  V  V65  1  0.74458556  0.50157595  0.73634042  1
  V  V66  1  0.12578592  0.12125207  0.49965866  1
  V  V67  1  0.87316102  0.37361363  -0.00222436  1
  V  V68  1  0.74863956  0.12242336  0.87418898  1
  V  V69  1  0.12283338  0.49759890  0.12459640  1
  V  V70  1  0.38071151  -0.00228418  0.37682106  1
  V  V71  1  0.12366478  0.75105463  0.87400771  1
  V  V72  1  0.12546123  0.61972473  0.50061907  1
  V  V73  1  -0.01339190  0.49930783  0.49449566  1
  V  V74  1  0.38034135  0.00062711  0.87898830  1
  V  V75  1  0.74906797  0.37506123  0.12597696  1
  V  V76  1  0.74975081  0.35408568  0.62196291  1
  V  V77  1  0.12263681  0.62508872  -0.00070398  1
  V  V78  1  0.61853972  0.25132437  0.87330371  1
  V  V79  1  -0.00389510  0.62308376  0.12503001  1
  V  V80  1  0.01387000  0.25391319  0.74504347  1
  V  V81  1  0.87894582  0.87951885  0.00000777  1
  V  V82  1  0.25371417  0.50478473  0.25251599  1
  V  V83  1  0.50867176  0.49470055  0.49693288  1
  V  V84  1  0.62160054  0.24372794  0.39157179  1
  Zn  Zn85  1  0.49422705  0.36936912  0.37096674  1
  Zn  Zn86  1  -0.00588153  0.87352601  0.38070541  1
  Zn  Zn87  1  0.87224316  0.62816367  0.74743634  1
  Zn  Zn88  1  -0.01038905  0.37693029  0.37073947  1
  Zn  Zn89  1  0.11547700  0.13023655  -0.00831793  1
  Zn  Zn90  1  0.63744642  0.86860363  0.75817971  1
  Zn  Zn91  1  -0.00024451  0.74680594  0.25149567  1
  Zn  Zn92  1  0.38041061  0.50407619  0.37349020  1
  Zn  Zn93  1  0.61915788  0.62397253  -0.00164706  1
  Zn  Zn94  1  0.37732937  0.25207401  0.12780195  1
  Zn  Zn95  1  0.50149956  0.25286875  0.74584788  1
  Zn  Zn96  1  -0.01226916  0.11502896  0.11609327  1
  Zn  Zn97  1  0.25681383  0.62678037  0.37168622  1
  Zn  Zn98  1  0.61905673  0.37774266  0.74179777  1
  Zn  Zn99  1  0.37267758  0.37900907  0.49669233  1
  Zn  Zn100  1  0.11851473  0.49310155  0.62839147  1
  Zn  Zn101  1  0.25136216  0.37281888  0.12523768  1
  Zn  Zn102  1  0.50312960  0.37927430  0.87362241  1
  Zn  Zn103  1  0.25803034  0.87681186  0.62489523  1
  Zn  Zn104  1  -0.00525042  0.13177210  0.62067355  1
  Zn  Zn105  1  0.68593588  0.80734313  0.43160340  1
  Zn  Zn106  1  0.00399273  0.88164712  0.88014684  1
  Zn  Zn107  1  0.18937996  0.18744682  0.18552691  1
  Zn  Zn108  1  0.19012268  0.18538837  0.68623261  1
  Zn  Zn109  1  0.18426974  0.68696350  0.18695634  1
  Zn  Zn110  1  0.18667451  0.68594100  0.68622350  1
  Zn  Zn111  1  0.68739943  0.18229119  0.18704114  1
  Zn  Zn112  1  0.68007164  0.18234272  0.68763372  1
  Zn  Zn113  1  0.69057390  0.68391651  0.18455385  1
  Zn  Zn114  1  0.68777898  0.68838931  0.68254762  1
  Zn  Zn115  1  0.30968020  0.31752382  0.31517006  1
  Zn  Zn116  1  0.31363064  0.31292999  0.81319738  1
  Zn  Zn117  1  0.30926656  0.81164065  0.31530038  1
  Zn  Zn118  1  0.31712474  0.81341450  0.81170735  1
  Zn  Zn119  1  0.81083240  0.31091256  0.31498918  1
  Zn  Zn120  1  0.80854420  0.31383976  0.81060608  1
  Zn  Zn121  1  0.81870230  0.81245928  0.30916374  1
  Zn  Zn122  1  0.81664955  0.81387162  0.81398300  1
  Zn  Zn123  1  0.18294010  0.43597922  0.43753287  1
  Zn  Zn124  1  0.19196691  0.43648869  0.93909897  1
  Zn  Zn125  1  0.19241030  0.93470530  0.43966531  1
  Zn  Zn126  1  0.19326726  0.93672342  0.93502123  1
  Zn  Zn127  1  0.68747092  0.43585411  0.44006647  1
  Zn  Zn128  1  0.68682604  0.43827164  0.93553880  1
  Zn  Zn129  1  0.70370389  0.98876394  0.45108234  1
  Zn  Zn130  1  0.69212851  0.93649486  0.93660856  1
  Zn  Zn131  1  0.31090426  0.06343782  0.06213140  1
  Zn  Zn132  1  0.32364560  0.06035538  0.56340223  1
  Zn  Zn133  1  0.31238586  0.56054305  0.06537666  1
  Zn  Zn134  1  0.31563317  0.55813848  0.56064317  1
  Zn  Zn135  1  0.80581661  0.05917562  0.06262778  1
  Zn  Zn136  1  0.80606988  0.07533952  0.56075631  1
  Zn  Zn137  1  0.80875495  0.56113336  0.06286001  1
  Zn  Zn138  1  0.81301565  0.57095810  0.55993156  1
  Zn  Zn139  1  0.43782278  0.43661057  0.18627449  1
  Zn  Zn140  1  0.43312269  0.43558181  0.68776781  1
  Zn  Zn141  1  0.44150670  0.93904169  0.19093319  1
  Zn  Zn142  1  0.48663225  0.91034410  0.65774918  1
  Zn  Zn143  1  0.93523006  0.43392004  0.18684560  1
  Zn  Zn144  1  0.93156192  0.43400141  0.68399515  1
  Zn  Zn145  1  0.94177316  0.93031824  0.18210706  1
  Zn  Zn146  1  0.93562224  0.94264368  0.68892548  1
  Zn  Zn147  1  0.05890203  0.06001737  0.31239861  1
  Zn  Zn148  1  0.06261380  0.06739132  0.80823415  1
  Zn  Zn149  1  0.06351707  0.56095679  0.31555823  1
  Zn  Zn150  1  0.06077968  0.56320228  0.81086893  1
  Zn  Zn151  1  0.55927428  0.06764843  0.31943876  1
  Zn  Zn152  1  0.56190843  0.05854622  0.81065622  1
  Zn  Zn153  1  0.56489061  0.56200662  0.31061517  1
  Zn  Zn154  1  0.56512941  0.56090285  0.81112500  1
  Zn  Zn155  1  0.43867394  0.18990098  0.43867430  1
  Zn  Zn156  1  0.43530302  0.18704762  0.94076191  1
  Zn  Zn157  1  0.43879939  0.68203531  0.43414454  1
  Zn  Zn158  1  0.43652258  0.68826418  0.94270799  1
  Zn  Zn159  1  0.93861711  0.18104257  0.43275549  1
  Zn  Zn160  1  0.93856051  0.18960277  0.93605089  1
  Zn  Zn161  1  0.93514140  0.68702269  0.43708959  1
  Zn  Zn162  1  0.93248591  0.68850967  0.93527401  1
  Zn  Zn163  1  0.05985449  0.30924961  0.06067292  1
  Zn  Zn164  1  0.06030247  0.31311030  0.56216447  1
  Zn  Zn165  1  0.06082431  0.81244165  0.06374842  1
  Zn  Zn166  1  0.05978015  0.81544075  0.56384490  1
  Zn  Zn167  1  0.56145367  0.30753385  0.06240792  1
  Zn  Zn168  1  0.56610545  0.31329917  0.56369654  1
  Zn  Zn169  1  0.56076456  0.81236958  0.06679851  1
  Zn  Zn170  1  0.66399288  0.89288211  0.57741414  1
  O  O171  1  0.13000605  0.10836868  0.12259895  1
  O  O172  1  0.12334761  0.11663240  0.61840787  1
  O  O173  1  0.11602528  0.61940600  0.11812222  1
  O  O174  1  0.11246441  0.62682979  0.61467493  1
  O  O175  1  0.61932503  0.11414838  0.11881089  1
  O  O176  1  0.61042796  0.12462916  0.62280141  1
  O  O177  1  0.61868636  0.61481201  0.12454706  1
  O  O178  1  0.61547937  0.62709930  0.61674147  1
  O  O179  1  0.37759973  0.38251549  0.37753831  1
  O  O180  1  0.37603087  0.38432677  0.88239444  1
  O  O181  1  0.37560540  0.88128509  0.37844446  1
  O  O182  1  0.37881922  0.88114767  0.88511808  1
  O  O183  1  0.87250781  0.37171779  0.39349511  1
  O  O184  1  0.87679867  0.38484334  0.87779049  1
  O  O185  1  0.87959523  0.89274974  0.36316681  1
  O  O186  1  0.87748486  0.88653624  0.88264298  1
  O  O187  1  0.25741759  0.00438902  0.36893337  1
  O  O188  1  0.25989455  0.00493170  0.86810926  1
  O  O189  1  0.24232740  0.49970072  0.36026070  1
  O  O190  1  0.25568250  0.50554514  0.86842862  1
  O  O191  1  0.76665320  0.00498615  0.35418970  1
  O  O192  1  0.75882736  0.01184724  0.87204851  1
  O  O193  1  0.74454965  0.50596233  0.36326245  1
  O  O194  1  0.75682157  0.50408185  0.86667811  1
  O  O195  1  0.23935046  0.49817406  0.13469664  1
  O  O196  1  0.24897471  0.49197835  0.63326954  1
  O  O197  1  0.24258825  0.99291043  0.13089863  1
  O  O198  1  0.24697425  0.99937031  0.63338436  1
  O  O199  1  0.74315914  0.49307372  0.13380836  1
  O  O200  1  0.75490020  0.50456031  0.63635181  1
  O  O201  1  0.73293439  0.99277201  0.12180649  1
  O  O202  1  0.75353075  1.00114512  0.63815288  1
  O  O203  1  0.00818670  0.36919508  0.25082724  1
  O  O204  1  -0.00462370  0.36507188  0.75685098  1
  O  O205  1  0.01339808  0.87020928  0.25087450  1
  O  O206  1  0.00738881  0.86983909  0.75248842  1
  O  O207  1  0.51521308  0.37939868  0.25193511  1
  O  O208  1  0.50165686  0.37314749  0.75378151  1
  O  O209  1  0.49262503  0.85768513  0.25638176  1
  O  O210  1  0.48683721  0.85810045  0.76429107  1
  O  O211  1  0.48825760  0.11968868  0.24260755  1
  O  O212  1  0.48592589  0.12802957  0.75781967  1
  O  O213  1  0.50437350  0.63802781  0.24125205  1
  O  O214  1  0.49491487  0.62569395  0.74509980  1
  O  O215  1  1.00629638  0.13662250  0.24022197  1
  O  O216  1  0.99107454  0.13954850  0.75064125  1
  O  O217  1  0.99232531  0.62146201  0.24564712  1
  O  O218  1  0.99893295  0.63333744  0.74100361  1
  O  O219  1  0.36579375  0.25851815  0.00106173  1
  O  O220  1  0.36627060  0.25131557  0.50623109  1
  O  O221  1  0.36715679  0.75689129  0.01076660  1
  O  O222  1  0.37142814  0.75082820  0.50739573  1
  O  O223  1  0.86577630  0.25656471  0.00416485  1
  O  O224  1  0.88216849  0.25668370  0.50211952  1
  O  O225  1  0.86621463  0.75537614  0.00555204  1
  O  O226  1  0.87871573  0.75243088  0.51066059  1
  O  O227  1  0.12681979  0.24083181  0.49547626  1
  O  O228  1  0.13967780  0.25128662  1.00244608  1
  O  O229  1  0.12784542  0.74415300  0.49578988  1
  O  O230  1  0.13022254  0.74603961  0.99492637  1
  O  O231  1  0.62905522  0.25124462  0.48946155  1
  O  O232  1  0.62996033  0.24015413  0.99404032  1
  O  O233  1  0.62168825  0.73727967  0.49876162  1
  O  O234  1  0.63823178  0.74953136  1.00545821  1
  O  O235  1  0.49799085  0.23284892  0.12385269  1
  O  O236  1  0.48512801  0.25678420  0.62327954  1
  O  O237  1  0.49210336  0.74633987  0.13743773  1
  O  O238  1  0.48635472  0.73310977  0.63734484  1
  O  O239  1  0.98828250  0.25169265  0.13082927  1
  O  O240  1  1.00140955  0.25117190  0.64004926  1
  O  O241  1  0.99288259  0.74025085  0.12551656  1
  O  O242  1  0.99514500  0.74477630  0.63140679  1
  O  O243  1  0.00386373  0.25001560  0.36453215  1
  O  O244  1  -0.00386206  0.26513026  0.86474525  1
  O  O245  1  0.01089079  0.75196058  0.37535259  1
  O  O246  1  0.00549179  0.75080876  0.86608975  1
  O  O247  1  0.51611713  0.25211223  0.37817232  1
  O  O248  1  0.51118516  0.24852412  0.87634478  1
  O  O249  1  0.49763797  0.75389422  0.35979574  1
  O  O250  1  0.49230723  0.75616217  0.86809925  1
  O  O251  1  0.24596333  0.12984115  0.49426794  1
  O  O252  1  0.24984652  0.13347062  0.99178004  1
  O  O253  1  0.23927781  0.62880130  0.50375198  1
  O  O254  1  0.24281707  0.62937288  0.99550347  1
  O  O255  1  0.74297865  0.10024488  0.47103007  1
  O  O256  1  0.74163652  0.12972899  0.99112206  1
  O  O257  1  0.74030233  0.61900157  0.48790606  1
  O  O258  1  0.74970021  0.63270595  0.99245631  1
  O  O259  1  0.25861838  0.36721712  0.00089631  1
  O  O260  1  0.24841566  0.36792560  0.50656316  1
  O  O261  1  0.25910342  0.86830791  0.00524760  1
  O  O262  1  0.26039971  0.86390248  0.50302758  1
  O  O263  1  0.75327742  0.36893773  0.00497870  1
  O  O264  1  0.76036968  0.37581681  0.51046761  1
  O  O265  1  0.75859145  0.86753435  0.00373917  1
  O  O266  1  0.73423687  0.88703939  0.49444916  1
  O  O267  1  0.12623659  0.49152589  0.24467313  1
  O  O268  1  0.13833207  0.50747295  0.74703392  1
  O  O269  1  0.13002611  0.99262165  0.24443267  1
  O  O270  1  0.13404383  0.99840453  0.74307787  1
  O  O271  1  0.63297236  0.48999375  0.24180205  1
  O  O272  1  0.64133312  0.49558815  0.75385616  1
  O  O273  1  0.62143247  1.00234577  0.24143128  1
  O  O274  1  0.64502382  1.00215482  0.75691056  1
  O  O275  1  0.36690999  0.00504448  0.25659354  1
  O  O276  1  0.36256132  0.00812888  0.75773925  1
  O  O277  1  0.35560705  0.49356735  0.24706569  1
  O  O278  1  0.36453543  0.50593427  0.75877106  1
  O  O279  1  0.88687278  0.00622280  0.24840693  1
  O  O280  1  0.86654272  0.01086773  0.75769682  1
  O  O281  1  0.86440146  0.50592205  0.24427881  1
  O  O282  1  0.86519974  0.50211109  0.75506428  1
  O  O283  1  0.11865906  0.36634869  0.36705238  1
  O  O284  1  0.11012365  0.38310802  0.87528347  1
  O  O285  1  0.12440478  0.86860313  0.36808955  1
  O  O286  1  0.12424153  0.86997300  0.86890274  1
  O  O287  1  0.62978507  0.36105227  0.36504382  1
  O  O288  1  0.62415470  0.36477379  0.87455207  1
  O  O289  1  0.61168109  0.87793800  0.37258463  1
  O  O290  1  0.60928413  0.88024462  0.87550222  1
  O  O291  1  0.38202195  0.12156781  0.13379755  1
  O  O292  1  0.36397448  0.13810829  0.63612924  1
  O  O293  1  0.38158086  0.63340686  0.12231067  1
  O  O294  1  0.38020308  0.62760443  0.63123233  1
  O  O295  1  0.86895645  0.13786044  0.12011078  1
  O  O296  1  0.87591145  0.12327395  0.63816239  1
  O  O297  1  0.87759070  0.62682977  0.13259437  1
  O  O298  1  0.88568612  0.63552327  0.62521541  1
  O  O299  1  0.25503931  0.25080439  0.11569942  1
  O  O300  1  0.25442547  0.25622421  0.62002707  1
  O  O301  1  0.25401407  0.75452747  0.12127832  1
  O  O302  1  0.26228960  0.74970148  0.62249526  1
  O  O303  1  0.75353411  0.25530361  0.12046892  1
  O  O304  1  0.75272116  0.25598907  0.63129927  1
  O  O305  1  0.75533140  0.75463038  0.11654870  1
  O  O306  1  0.76595615  0.75125520  0.62976422  1
  O  O307  1  0.24180662  0.24436424  0.38067804  1
  O  O308  1  0.25579804  0.24035863  0.88284871  1
  O  O309  1  0.23746993  0.74781327  0.38236361  1
  O  O310  1  0.24463747  0.74430731  0.87889894  1
  O  O311  1  0.74387984  0.23925232  0.37540588  1
  O  O312  1  0.74075173  0.23986094  0.87667619  1
  O  O313  1  0.75233710  0.73867156  0.36775665  1
  O  O314  1  0.75837168  0.73881500  0.88203113  1
  O  O315  1  0.00389259  0.13282861  0.00453982  1
  O  O316  1  0.00722908  0.11408225  0.50069156  1
  O  O317  1  0.00231434  0.61776985  0.00205243  1
  O  O318  1  0.00313002  0.61514085  0.50444674  1
  O  O319  1  0.50650167  0.12393461  0.00819851  1
  O  O320  1  0.50254983  0.11480195  0.49200645  1
  O  O321  1  0.50323565  0.63370918  0.01813287  1
  O  O322  1  0.50801643  0.61660736  0.50700435  1
  O  O323  1  0.50193589  0.38659762  0.50002406  1
  O  O324  1  0.48748713  0.37015780  0.99763228  1
  O  O325  1  0.48566653  0.86507643  0.48270490  1
  O  O326  1  0.48728990  0.86593298  0.99422501  1
  O  O327  1  0.98639542  0.38376197  0.50325476  1
  O  O328  1  0.99441581  0.37836796  0.98676815  1
  O  O329  1  1.00745770  0.89412781  0.49692987  1
  O  O330  1  0.98428204  0.86941600  0.99925674  1
  O  O331  1  0.50342096  0.49628184  0.38519252  1
  O  O332  1  0.48654252  0.50336378  0.87426705  1
  O  O333  1  0.48737682  0.98784469  0.36403054  1
  O  O334  1  0.48574509  0.99004289  0.86849666  1
  O  O335  1  1.00302675  0.49655670  0.39104361  1
  O  O336  1  0.99125749  0.49146521  0.87378466  1
  O  O337  1  0.98687160  1.00345954  0.38417661  1
  O  O338  1  0.98726331  1.00259206  0.86836409  1
  O  O339  1  0.01684235  -0.00138166  0.12620328  1
  O  O340  1  0.00588960  0.00418498  0.61514137  1
  O  O341  1  0.00345132  0.50324372  0.11742438  1
  O  O342  1  -0.00122895  0.50774282  0.61843374  1
  O  O343  1  0.51292483  0.00640837  0.12733981  1
  O  O344  1  0.47913655  0.01658187  0.62210383  1
  O  O345  1  0.50758998  0.51018775  0.13258599  1
  O  O346  1  0.49586223  0.50895214  0.61787072  1
  O  O347  1  0.23541495  0.38174946  0.24768658  1
  O  O348  1  0.25331433  0.38392544  0.74342130  1
  O  O349  1  0.23953256  0.87900903  0.24526140  1
  O  O350  1  0.24691517  0.88435194  0.74882035  1
  O  O351  1  0.74248283  0.38005585  0.24605791  1
  O  O352  1  0.75332739  0.38439554  0.73510438  1
  O  O353  1  0.75253165  0.86821378  0.23295717  1
  O  O354  1  0.75299197  0.89111696  0.75767470  1
  O  O355  1  0.25526038  0.11887359  0.25642065  1
  O  O356  1  0.25667426  0.11976583  0.75768323  1
  O  O357  1  0.23837251  0.60815472  0.25041889  1
  O  O358  1  0.25471382  0.61967500  0.75569503  1
  O  O359  1  0.74892920  0.12749461  0.26420610  1
  O  O360  1  0.75654961  0.11986961  0.75547022  1
  O  O361  1  0.75566732  0.61632272  0.25525908  1
  O  O362  1  0.75081895  0.61610224  0.75524396  1
  O  O363  1  0.37190008  0.11747832  0.36889798  1
  O  O364  1  0.36788832  0.11713993  0.87108864  1
  O  O365  1  0.36893088  0.61784411  0.37672412  1
  O  O366  1  0.36849673  0.61906196  0.87337103  1
  O  O367  1  0.86759184  0.11572339  0.37139369  1
  O  O368  1  0.86610298  0.12226054  0.86841646  1
  O  O369  1  0.86875378  0.62685744  0.36242346  1
  O  O370  1  0.86728661  0.61224845  0.87293131  1
  O  O371  1  0.12324321  0.38088064  0.13157923  1
  O  O372  1  0.13703029  0.37504795  0.62236608  1
  O  O373  1  0.12965856  0.88175612  0.13088655  1
  O  O374  1  0.12907037  0.88410616  0.63083722  1
  O  O375  1  0.62748508  0.37736015  0.13394217  1
  O  O376  1  0.64475594  0.37204349  0.62402272  1
  O  O377  1  0.62816441  0.88900959  0.12094715  1
  O  O378  1  0.59305943  0.86853921  0.65345771  1
  O  O379  1  0.11819191  0.25640995  0.25112231  1
  O  O380  1  0.11234317  0.24455844  0.75153046  1
  O  O381  1  0.12476734  0.75657669  0.25911494  1
  O  O382  1  0.11634787  0.75482551  0.75249324  1
  O  O383  1  0.62824521  0.26230352  0.24837583  1
  O  O384  1  0.62226191  0.25213866  0.75936624  1
  O  O385  1  0.61610242  0.75073296  0.24479158  1
  O  O386  1  0.61392440  0.74242055  0.75627879  1
  O  O387  1  0.36678218  0.23736996  0.25068728  1
  O  O388  1  0.37479494  0.24225281  0.74239048  1
  O  O389  1  0.37031099  0.75107744  0.23911090  1
  O  O390  1  0.37714443  0.73983859  0.74404396  1
  O  O391  1  0.88396917  0.25842134  0.23984022  1
  O  O392  1  0.87961153  0.24004008  0.75708662  1
  O  O393  1  0.87861084  0.73863670  0.24038672  1
  O  O394  1  0.88764836  0.74948581  0.74771817  1
  O  O395  1  0.39216010  0.49845471  0.50027019  1
  O  O396  1  0.36581627  0.48973502  0.99106080  1
  O  O397  1  0.36730744  0.98727951  0.48715954  1
  O  O398  1  0.36843447  0.98942835  0.99200625  1
  O  O399  1  0.88572612  0.50049794  0.50115972  1
  O  O400  1  0.87910064  0.49420069  0.99226254  1
  O  O401  1  0.88475104  1.00358799  0.50327544  1
  O  O402  1  0.86867668  0.99205255  0.99144721  1
  O  O403  1  0.13154541  -0.00287189  0.01235544  1
  O  O404  1  0.12599409  0.00672720  0.50453026  1
  O  O405  1  0.11877287  0.50438864  0.00426499  1
  O  O406  1  0.11491845  0.50628561  0.50457037  1
  O  O407  1  0.62741278  0.01016875  -0.00111412  1
  O  O408  1  0.60944153  -0.00913592  0.51957935  1
  O  O409  1  0.63047804  0.49856656  0.01628706  1
  O  O410  1  0.61295324  0.50639872  0.49867256  1
  O  O411  1  0.37320760  0.37280341  0.11726692  1
  O  O412  1  0.36155773  0.36697078  0.62239169  1
  O  O413  1  0.37093241  0.87026590  0.12012446  1
  O  O414  1  0.38264660  0.86230167  0.61510715  1
  O  O415  1  0.86804082  0.36681815  0.11714917  1
  O  O416  1  0.86208637  0.37721288  0.61155270  1
  O  O417  1  0.86768927  0.86995145  0.11769973  1
  O  O418  1  0.88218389  0.86333288  0.62688616  1
  O  O419  1  0.12937023  0.12833715  0.37969187  1
  O  O420  1  0.14125671  0.11601917  0.87579737  1
  O  O421  1  0.12553952  0.63182736  0.38725434  1
  O  O422  1  0.12833699  0.63049278  0.88076188  1
  O  O423  1  0.63246523  0.14000876  0.36858046  1
  O  O424  1  0.62932009  0.12857406  0.88032477  1
  O  O425  1  0.63403409  0.62282662  0.38142761  1
  O  O426  1  0.63853920  0.61694034  0.88064021  1
