# generated using pymatgen
data_V85Zn86O256
_symmetry_space_group_name_H-M   'P 1'
_cell_length_a   16.93351924
_cell_length_b   16.94284485
_cell_length_c   16.92435000
_cell_angle_alpha   90.02667980
_cell_angle_beta   90.02360090
_cell_angle_gamma   90.06367302
_symmetry_Int_Tables_number   1
_chemical_formula_structural   V85Zn86O256
_chemical_formula_sum   'V85 Zn86 O256'
_cell_volume   4855.62574362
_cell_formula_units_Z   1
loop_
 _symmetry_equiv_pos_site_id
 _symmetry_equiv_pos_as_xyz
  1  'x, y, z'
loop_
 _atom_site_type_symbol
 _atom_site_label
 _atom_site_symmetry_multiplicity
 _atom_site_fract_x
 _atom_site_fract_y
 _atom_site_fract_z
 _atom_site_occupancy
  V  V0  1  0.49894276  0.25298539  0.75170103  1
  V  V1  1  0.50493166  0.62745397  0.12976808  1
  V  V2  1  0.87367976  0.37402379  0.50190034  1
  V  V3  1  0.50362965  0.37289367  0.37686130  1
  V  V4  1  0.74693204  0.62601958  0.37428808  1
  V  V5  1  0.13130075  0.37551120  0.75125236  1
  V  V6  1  0.61996797  0.75176966  0.36675503  1
  V  V7  1  0.86487089  -0.00227505  0.36961757  1
  V  V8  1  0.86949212  0.87028378  -0.00188957  1
  V  V9  1  0.02807870  0.62462615  0.09242810  1
  V  V10  1  0.88568432  0.37270466  0.00180225  1
  V  V11  1  0.74784674  0.75351887  0.49990129  1
  V  V12  1  0.12327369  0.63020821  0.49627747  1
  V  V13  1  0.24604656  0.87637034  0.14169556  1
  V  V14  1  0.12491837  0.87413550  0.75597005  1
  V  V15  1  0.12028930  0.12550283  0.50190171  1
  V  V16  1  0.75179182  0.87365982  0.13235163  1
  V  V17  1  0.12851282  0.49400769  0.62169407  1
  V  V18  1  0.50292670  0.00079531  0.00113443  1
  V  V19  1  0.33453832  0.42185427  0.05088160  1
  V  V20  1  0.36903168  0.11227952  0.25254362  1
  V  V21  1  0.87003362  0.24521282  0.11613190  1
  V  V22  1  0.62473860  0.49958438  0.11672150  1
  V  V23  1  0.00074353  0.37196068  0.37475998  1
  V  V24  1  0.75053079  0.36935881  0.11514083  1
  V  V25  1  0.74980423  0.88051505  0.62635784  1
  V  V26  1  0.00078982  0.87352661  0.36025477  1
  V  V27  1  0.49770800  0.12649521  0.62668766  1
  V  V28  1  0.63149542  0.00051580  0.13215493  1
  V  V29  1  0.00257530  0.24320262  0.74817204  1
  V  V30  1  0.36688058  0.37442482  0.49694285  1
  V  V31  1  0.24864911  0.62376775  0.87531894  1
  V  V32  1  0.24115810  0.75016898  0.00154305  1
  V  V33  1  0.11645443  0.00293215  0.62664954  1
  V  V34  1  -0.00204760  0.62544462  0.62574375  1
  V  V35  1  0.38005520  0.50332434  0.86911437  1
  V  V36  1  0.62422739  0.50566772  0.62475663  1
  V  V37  1  0.74997025  0.12030594  0.86568653  1
  V  V38  1  0.62917660  0.75038250  0.88251790  1
  V  V39  1  0.49429173  0.00195002  0.49784144  1
  V  V40  1  0.75201636  0.62696850  0.88680947  1
  V  V41  1  0.24867912  0.87847130  0.62770660  1
  V  V42  1  0.62449806  0.13214937  0.49535071  1
  V  V43  1  0.62662900  0.87472288  0.75122537  1
  V  V44  1  0.24837094  0.24960903  0.49919181  1
  V  V45  1  0.75231525  0.49880262  0.25069301  1
  V  V46  1  0.88360569  0.49781249  0.87944266  1
  V  V47  1  0.62400300  0.37610802  0.75110323  1
  V  V48  1  0.00219593  0.12076240  0.12354596  1
  V  V49  1  0.38460095  0.75392794  0.13423843  1
  V  V50  1  0.75244968  0.50130487  0.75021121  1
  V  V51  1  0.63247305  0.25245631  0.87928617  1
  V  V52  1  0.50055741  0.87246171  0.87485989  1
  V  V53  1  0.49687268  0.87561751  0.36941845  1
  V  V54  1  -0.00082458  0.50236527  0.49915684  1
  V  V55  1  0.36837738  0.00521961  0.87367466  1
  V  V56  1  0.01588159  0.27649814  0.22661597  1
  V  V57  1  0.88294138  0.63023120  0.24992259  1
  V  V58  1  0.12815927  -0.00347142  0.13727683  1
  V  V59  1  0.87381886  0.12106621  0.24532407  1
  V  V60  1  0.37224796  0.88096865  0.49783402  1
  V  V61  1  0.24665474  0.75099236  0.49702466  1
  V  V62  1  0.37272955  0.87370475  0.00181259  1
  V  V63  1  0.62463675  0.00267260  0.63109824  1
  V  V64  1  0.74970357  0.37486570  0.62493214  1
  V  V65  1  0.49537197  0.50106476  0.49380228  1
  V  V66  1  0.26267878  0.23737924  -0.00276939  1
  V  V67  1  0.87302272  -0.00208222  0.86901354  1
  V  V68  1  -0.00001305  0.75083072  0.75018558  1
  V  V69  1  0.12586668  0.12371062  -0.00815712  1
  V  V70  1  0.87192692  0.74255983  0.12107527  1
  V  V71  1  0.25114798  0.11068121  0.37360308  1
  V  V72  1  0.74805324  0.13330267  0.36942597  1
  V  V73  1  0.37125391  0.62628812  0.26375064  1
  V  V74  1  0.62975433  0.36711518  0.25468480  1
  V  V75  1  -0.00385518  0.00149686  0.49871691  1
  V  V76  1  0.87383907  0.62415902  0.75060476  1
  V  V77  1  0.12216975  0.75352006  0.36241059  1
  V  V78  1  0.37068645  0.25460321  0.62642140  1
  V  V79  1  0.49926324  0.38091356  0.88863377  1
  V  V80  1  0.87882382  0.24052956  0.62331923  1
  V  V81  1  0.63287297  0.12811804  0.00156194  1
  V  V82  1  0.25566516  0.50558803  0.74028551  1
  V  V83  1  0.49659111  0.24719136  0.25449126  1
  V  V84  1  0.48448993  0.62522233  0.62968815  1
  Zn  Zn85  1  0.24179522  0.00787767  0.75812197  1
  Zn  Zn86  1  0.49914935  0.12521116  0.12703190  1
  Zn  Zn87  1  0.87536778  0.87537632  0.49963718  1
  Zn  Zn88  1  0.37239691  0.25058393  0.12728801  1
  Zn  Zn89  1  0.00515991  0.37392165  0.87494188  1
  Zn  Zn90  1  0.36895093  0.74869840  0.63072046  1
  Zn  Zn91  1  0.87216170  0.75238143  0.62530558  1
  Zn  Zn92  1  0.49338001  0.74253280  0.75492254  1
  Zn  Zn93  1  0.87588169  0.11915031  0.74434982  1
  Zn  Zn94  1  0.12400096  0.24678258  0.36852205  1
  Zn  Zn95  1  0.12138388  0.74094590  0.88026593  1
  Zn  Zn96  1  0.62131813  0.62662556  0.00133976  1
  Zn  Zn97  1  0.00101634  -0.00444302  -0.00127688  1
  Zn  Zn98  1  -0.00067027  0.87360391  0.87882643  1
  Zn  Zn99  1  0.32685001  0.47053469  0.33105388  1
  Zn  Zn100  1  0.74674169  0.25311962  0.49484292  1
  Zn  Zn101  1  0.87402548  0.50068522  0.37454383  1
  Zn  Zn102  1  0.36645677  0.13358894  0.75768524  1
  Zn  Zn103  1  0.13199887  0.24759238  0.87277259  1
  Zn  Zn104  1  0.62084837  0.62742565  0.49961298  1
  Zn  Zn105  1  0.18573603  0.44246070  0.16367312  1
  Zn  Zn106  1  0.62639361  0.87880723  0.25206807  1
  Zn  Zn107  1  0.19047391  0.18929329  0.17921914  1
  Zn  Zn108  1  0.18937520  0.18610281  0.68626802  1
  Zn  Zn109  1  0.19624176  0.68323258  0.18683772  1
  Zn  Zn110  1  0.18730948  0.68568213  0.68570711  1
  Zn  Zn111  1  0.68769306  0.18720458  0.18864699  1
  Zn  Zn112  1  0.68861883  0.19016015  0.68660896  1
  Zn  Zn113  1  0.69169946  0.69044027  0.18700856  1
  Zn  Zn114  1  0.68518063  0.69002640  0.69203795  1
  Zn  Zn115  1  0.30622274  0.30542558  0.30755728  1
  Zn  Zn116  1  0.31089270  0.31908035  0.81809892  1
  Zn  Zn117  1  0.31433567  0.80927269  0.31688917  1
  Zn  Zn118  1  0.31276830  0.81148954  0.81272751  1
  Zn  Zn119  1  0.82364337  0.31090882  0.30565106  1
  Zn  Zn120  1  0.81431452  0.31072757  0.81179525  1
  Zn  Zn121  1  0.81316823  0.81168685  0.30910759  1
  Zn  Zn122  1  0.81023906  0.81166250  0.81075321  1
  Zn  Zn123  1  0.17600369  0.44351386  0.33922653  1
  Zn  Zn124  1  0.18722420  0.43867542  0.94507918  1
  Zn  Zn125  1  0.18217708  0.93541131  0.43567094  1
  Zn  Zn126  1  0.18651844  0.93745967  0.94508080  1
  Zn  Zn127  1  0.68432739  0.43856719  0.43812168  1
  Zn  Zn128  1  0.69290794  0.43829232  0.93707009  1
  Zn  Zn129  1  0.68345123  0.94161994  0.43987843  1
  Zn  Zn130  1  0.69181471  0.93812407  0.94106304  1
  Zn  Zn131  1  0.31208081  0.06084594  0.06758896  1
  Zn  Zn132  1  0.30885873  0.06520121  0.56738054  1
  Zn  Zn133  1  0.32015746  0.58313644  0.05977319  1
  Zn  Zn134  1  0.27985851  0.53310366  0.50895282  1
  Zn  Zn135  1  0.81059545  0.05776863  0.05500423  1
  Zn  Zn136  1  0.80841071  0.06178441  0.55750665  1
  Zn  Zn137  1  0.81769240  0.55471129  0.06468102  1
  Zn  Zn138  1  0.81167079  0.56505133  0.56127173  1
  Zn  Zn139  1  0.44832185  0.44277987  0.19176647  1
  Zn  Zn140  1  0.43686817  0.43675518  0.68632839  1
  Zn  Zn141  1  0.43820016  0.93943756  0.18668422  1
  Zn  Zn142  1  0.43747569  0.93368603  0.68883971  1
  Zn  Zn143  1  1.01937340  0.45234375  0.18923142  1
  Zn  Zn144  1  0.94159137  0.43311593  0.68890544  1
  Zn  Zn145  1  0.93434450  0.93891586  0.18515021  1
  Zn  Zn146  1  0.93715038  0.93698451  0.68771408  1
  Zn  Zn147  1  0.05833831  0.06546926  0.31396984  1
  Zn  Zn148  1  0.05642596  0.06157188  0.81346853  1
  Zn  Zn149  1  0.06386617  0.56834345  0.31285052  1
  Zn  Zn150  1  0.06543002  0.56206822  0.81295177  1
  Zn  Zn151  1  0.55964488  0.06260081  0.31511689  1
  Zn  Zn152  1  0.55857019  0.06419474  0.81289041  1
  Zn  Zn153  1  0.56043187  0.56302632  0.30722144  1
  Zn  Zn154  1  0.56384940  0.56416792  0.81248962  1
  Zn  Zn155  1  0.43548446  0.18698309  0.43347799  1
  Zn  Zn156  1  0.44619291  0.18646799  0.93736750  1
  Zn  Zn157  1  0.43664319  0.69277462  0.44532037  1
  Zn  Zn158  1  0.43738580  0.68566260  0.94166357  1
  Zn  Zn159  1  0.93733658  0.18829072  0.43153959  1
  Zn  Zn160  1  0.94067488  0.18759681  0.93517965  1
  Zn  Zn161  1  0.93439137  0.69172105  0.43492883  1
  Zn  Zn162  1  0.93830057  0.68872134  0.93867479  1
  Zn  Zn163  1  0.08996412  0.33407782  0.04951261  1
  Zn  Zn164  1  0.06229656  0.31264334  0.56258589  1
  Zn  Zn165  1  0.05675273  0.81198396  0.07102826  1
  Zn  Zn166  1  0.05968111  0.81675188  0.56238373  1
  Zn  Zn167  1  0.56175362  0.30924903  0.06756912  1
  Zn  Zn168  1  0.56054205  0.31399105  0.56371090  1
  Zn  Zn169  1  0.56447156  0.81358130  0.06285783  1
  Zn  Zn170  1  0.56181476  0.81143269  0.56019121  1
  O  O171  1  0.11735146  0.11865569  0.11650818  1
  O  O172  1  0.12706877  0.11602910  0.61115423  1
  O  O173  1  0.12579778  0.62559177  0.11783158  1
  O  O174  1  0.11488494  0.62023095  0.61686713  1
  O  O175  1  0.62630882  0.11826694  0.11783474  1
  O  O176  1  0.61994402  0.11906964  0.62076420  1
  O  O177  1  0.62389544  0.61813900  0.12672979  1
  O  O178  1  0.62591008  0.61387420  0.62316423  1
  O  O179  1  0.38794278  0.37456238  0.38064027  1
  O  O180  1  0.38704524  0.38987934  0.87000143  1
  O  O181  1  0.38132057  0.87079061  0.38988446  1
  O  O182  1  0.38044852  0.88290364  0.88536086  1
  O  O183  1  0.87624826  0.37542736  0.39049607  1
  O  O184  1  0.87266831  0.38135325  0.88305203  1
  O  O185  1  0.88185611  0.88106337  0.37497644  1
  O  O186  1  0.87142832  0.87958612  0.88075574  1
  O  O187  1  0.24644946  0.01122400  0.38024072  1
  O  O188  1  0.26574698  -0.00526758  0.87873144  1
  O  O189  1  0.24824361  0.50185940  0.40365183  1
  O  O190  1  0.25723743  0.50533300  0.86951071  1
  O  O191  1  0.76038384  0.00838650  0.38091639  1
  O  O192  1  0.75689520  0.00898311  0.87667100  1
  O  O193  1  0.74837947  0.50881315  0.37102940  1
  O  O194  1  0.75908120  0.50683377  0.86840121  1
  O  O195  1  0.28407839  0.48600701  0.11450560  1
  O  O196  1  0.23751303  0.50712697  0.62480719  1
  O  O197  1  0.24128834  0.98793823  0.12196950  1
  O  O198  1  0.23565535  0.99025205  0.62272922  1
  O  O199  1  0.74525181  0.48990051  0.13365808  1
  O  O200  1  0.74277178  0.49555173  0.62788649  1
  O  O201  1  0.74087981  0.99134276  0.11931652  1
  O  O202  1  0.73985644  0.98926013  0.61907709  1
  O  O203  1  -0.02692432  0.37566710  0.26792336  1
  O  O204  1  0.01323597  0.36661325  0.75048581  1
  O  O205  1  -0.00386910  0.87654018  0.26144676  1
  O  O206  1  0.00677810  0.86610200  0.75041578  1
  O  O207  1  0.50892783  0.36857424  0.25859224  1
  O  O208  1  0.50799876  0.37017242  0.75519344  1
  O  O209  1  0.49877752  0.88138926  0.26627732  1
  O  O210  1  0.51287033  0.87657091  0.75689556  1
  O  O211  1  0.48906246  0.13099196  0.25438418  1
  O  O212  1  0.49472007  0.13539105  0.74573594  1
  O  O213  1  0.49734551  0.63086449  0.23858102  1
  O  O214  1  0.50434280  0.62378888  0.73361873  1
  O  O215  1  0.98643572  0.12310509  0.24084894  1
  O  O216  1  0.99875173  0.13853225  0.74882658  1
  O  O217  1  0.98241113  0.62651315  0.25859228  1
  O  O218  1  0.99576649  0.63130465  0.74581506  1
  O  O219  1  0.36778299  0.23456567  0.00447603  1
  O  O220  1  0.36996815  0.25352998  0.50488992  1
  O  O221  1  0.36975055  0.75928097  0.00856350  1
  O  O222  1  0.36302186  0.75945202  0.50830651  1
  O  O223  1  0.87509076  0.25220751  0.00895315  1
  O  O224  1  0.87535673  0.25705243  0.50654653  1
  O  O225  1  0.87433629  0.75501004  0.00845697  1
  O  O226  1  0.86010402  0.75289555  0.50202498  1
  O  O227  1  0.13098271  0.24170570  0.50162765  1
  O  O228  1  0.13766525  0.24118433  0.99735110  1
  O  O229  1  0.12690831  0.74684299  0.49676823  1
  O  O230  1  0.13831056  0.76263740  0.99850400  1
  O  O231  1  0.62428362  0.23604529  0.50610236  1
  O  O232  1  0.62009487  0.24052131  0.99174767  1
  O  O233  1  0.63528981  0.74962759  0.49189516  1
  O  O234  1  0.62594464  0.75195687  0.98668187  1
  O  O235  1  0.50141858  0.24485109  0.14094307  1
  O  O236  1  0.49465203  0.24591006  0.63255515  1
  O  O237  1  0.49063857  0.75180102  0.12593270  1
  O  O238  1  0.50247256  0.73259639  0.62051338  1
  O  O239  1  0.98927992  0.23086335  0.12448259  1
  O  O240  1  0.98900039  0.25550889  0.63162453  1
  O  O241  1  0.99032268  0.72708441  0.11700665  1
  O  O242  1  0.99796370  0.74584968  0.63436094  1
  O  O243  1  -0.00295861  0.25814333  0.36135592  1
  O  O244  1  0.00476479  0.25287496  0.86323706  1
  O  O245  1  0.00408679  0.76666116  0.38020964  1
  O  O246  1  0.00249540  0.75176450  0.86268890  1
  O  O247  1  0.49934363  0.25734535  0.36505283  1
  O  O248  1  0.50923311  0.25779580  0.86911680  1
  O  O249  1  0.51014641  0.76316683  0.38872038  1
  O  O250  1  0.50687558  0.75587433  0.87617093  1
  O  O251  1  0.24271520  0.12964447  0.49364915  1
  O  O252  1  0.24355873  0.13083201  1.00306276  1
  O  O253  1  0.23407654  0.63987681  0.50979701  1
  O  O254  1  0.25288323  0.63815390  0.99028150  1
  O  O255  1  0.74102213  0.12858185  0.49047509  1
  O  O256  1  0.73796095  0.12184933  0.98849270  1
  O  O257  1  0.74719702  0.63175615  0.48970576  1
  O  O258  1  0.74907168  0.61821889  0.98888406  1
  O  O259  1  0.27475319  0.36313672  -0.00794164  1
  O  O260  1  0.26509951  0.36409974  0.49751623  1
  O  O261  1  0.26188300  0.86989132  0.00563921  1
  O  O262  1  0.25363094  0.87300061  0.50653482  1
  O  O263  1  0.75571465  0.37512189  0.01135329  1
  O  O264  1  0.75548566  0.37413968  0.50529791  1
  O  O265  1  0.76259267  0.87806544  0.01067411  1
  O  O266  1  0.74878799  0.86955975  0.50704479  1
  O  O267  1  0.11664467  0.49265856  0.24811370  1
  O  O268  1  0.13112382  0.49485143  0.74017070  1
  O  O269  1  0.12063369  1.00831712  0.23637465  1
  O  O270  1  0.12049359  0.99356218  0.74279751  1
  O  O271  1  0.63453250  0.48867738  0.24482524  1
  O  O272  1  0.63218457  0.49584504  0.74343529  1
  O  O273  1  0.61785812  1.00080157  0.23563146  1
  O  O274  1  0.61915905  0.99573625  0.73805705  1
  O  O275  1  0.37831517  0.01349018  0.25134828  1
  O  O276  1  0.37785673  -0.00419447  0.76799434  1
  O  O277  1  0.39260815  0.51926656  0.25483946  1
  O  O278  1  0.36490030  0.49675820  0.75321493  1
  O  O279  1  0.87573625  0.00797482  0.25748773  1
  O  O280  1  0.87852090  0.00100480  0.76248539  1
  O  O281  1  0.85745412  0.51050087  0.25337270  1
  O  O282  1  0.87017431  0.50279442  0.75494224  1
  O  O283  1  0.10475669  0.36518009  0.38262738  1
  O  O284  1  0.12540600  0.37630572  0.86509496  1
  O  O285  1  0.10945666  0.87015317  0.37554450  1
  O  O286  1  0.12545389  0.87611491  0.86404921  1
  O  O287  1  0.61511691  0.37598228  0.36904763  1
  O  O288  1  0.62291378  0.37007605  0.87119435  1
  O  O289  1  0.61726367  0.87116030  0.37510754  1
  O  O290  1  0.62420300  0.87077915  0.86965670  1
  O  O291  1  0.37736164  0.12474315  0.13925545  1
  O  O292  1  0.38210909  0.13810901  0.62399198  1
  O  O293  1  0.38572127  0.63762759  0.13450909  1
  O  O294  1  0.38660808  0.62474968  0.62326654  1
  O  O295  1  0.87639864  0.12520952  0.12637486  1
  O  O296  1  0.86625548  0.13665540  0.62450420  1
  O  O297  1  0.85747213  0.63459140  0.13520118  1
  O  O298  1  0.87977144  0.62749518  0.63224769  1
  O  O299  1  0.25291279  0.25444987  0.10680734  1
  O  O300  1  0.25828166  0.24632380  0.61034855  1
  O  O301  1  0.26078115  0.75674705  0.11857045  1
  O  O302  1  0.24393050  0.76452924  0.61784209  1
  O  O303  1  0.75735258  0.25783439  0.12988033  1
  O  O304  1  0.75784130  0.25914006  0.62273798  1
  O  O305  1  0.75695485  0.76089803  0.12354529  1
  O  O306  1  0.74525307  0.76076423  0.61789135  1
  O  O307  1  0.24625147  0.24072817  0.38654724  1
  O  O308  1  0.25152614  0.25128716  0.89056922  1
  O  O309  1  0.23781298  0.76067789  0.38986810  1
  O  O310  1  0.25031573  0.74288480  0.88287197  1
  O  O311  1  0.75889501  0.23723885  0.37430485  1
  O  O312  1  0.73731463  0.24479277  0.87128023  1
  O  O313  1  0.74356049  0.74569110  0.38085651  1
  O  O314  1  0.74254652  0.73819976  0.86883119  1
  O  O315  1  0.00757191  0.12243092  0.00698791  1
  O  O316  1  0.00606975  0.11269109  0.49037262  1
  O  O317  1  0.01760093  0.62571327  -0.00811971  1
  O  O318  1  -0.00148704  0.62054349  0.50547079  1
  O  O319  1  0.51329703  0.11619807  0.00167825  1
  O  O320  1  0.50465630  0.11973371  0.50299422  1
  O  O321  1  0.50358332  0.63331930  0.02010371  1
  O  O322  1  0.50030967  0.61614558  0.50911023  1
  O  O323  1  0.49559835  0.37919088  0.49300982  1
  O  O324  1  0.50697543  0.37175917  0.98756087  1
  O  O325  1  0.49113610  0.88360475  0.49908446  1
  O  O326  1  0.49119788  0.88112078  0.99679045  1
  O  O327  1  0.99134846  0.38262245  0.49708020  1
  O  O328  1  0.98794964  0.36716709  0.99510178  1
  O  O329  1  0.99652129  0.88797914  0.49390025  1
  O  O330  1  0.98552473  0.87337084  1.00031638  1
  O  O331  1  0.50735829  0.49324709  0.38634915  1
  O  O332  1  0.49379004  0.49387895  0.86909852  1
  O  O333  1  0.50564633  0.99224361  0.39094435  1
  O  O334  1  0.49698613  0.99285862  0.88616567  1
  O  O335  1  0.99550305  0.49357587  0.38511774  1
  O  O336  1  0.98691160  0.49697150  0.86738270  1
  O  O337  1  0.99121491  0.99068661  0.37882927  1
  O  O338  1  0.98925914  0.99451209  0.87829241  1
  O  O339  1  0.00391255  0.00726125  0.12159263  1
  O  O340  1  0.00848868  -0.00357195  0.61645644  1
  O  O341  1  -0.01366107  0.53543813  0.12121044  1
  O  O342  1  0.00417653  0.50580722  0.61949102  1
  O  O343  1  0.50702886  0.00006185  0.11338691  1
  O  O344  1  0.50461822  0.00572943  0.61851572  1
  O  O345  1  0.51528919  0.51133164  0.12936394  1
  O  O346  1  0.50601839  0.50843418  0.61978966  1
  O  O347  1  0.25317924  0.39490328  0.26302283  1
  O  O348  1  0.23925325  0.38717974  0.75030799  1
  O  O349  1  0.25528054  0.87145317  0.24057163  1
  O  O350  1  0.24140876  0.88178213  0.74371384  1
  O  O351  1  0.74681754  0.37984966  0.24628873  1
  O  O352  1  0.74449886  0.38089413  0.74455317  1
  O  O353  1  0.74965328  0.87750813  0.23758139  1
  O  O354  1  0.73595439  0.87128621  0.74142149  1
  O  O355  1  0.26133246  0.13074008  0.25711201  1
  O  O356  1  0.25558545  0.11825448  0.74366948  1
  O  O357  1  0.27147347  0.62196328  0.24834435  1
  O  O358  1  0.24798492  0.61288546  0.75403804  1
  O  O359  1  0.76245289  0.12892880  0.25479121  1
  O  O360  1  0.75153574  0.12886875  0.76163301  1
  O  O361  1  0.74926761  0.61906273  0.26155476  1
  O  O362  1  0.75562217  0.61946970  0.75637702  1
  O  O363  1  0.36556998  0.12692444  0.36386799  1
  O  O364  1  0.38477042  0.10803712  0.87606250  1
  O  O365  1  0.38130912  0.63560280  0.36382549  1
  O  O366  1  0.36875159  0.61211854  0.87979744  1
  O  O367  1  0.86915603  0.11783642  0.36523072  1
  O  O368  1  0.86638276  0.11727790  0.87480789  1
  O  O369  1  0.86355174  0.62637705  0.36887603  1
  O  O370  1  0.86964445  0.61772814  0.87139791  1
  O  O371  1  0.06878499  0.35047698  0.16131344  1
  O  O372  1  0.12027770  0.38848802  0.62913275  1
  O  O373  1  0.13307901  0.88253871  0.12331759  1
  O  O374  1  0.12823049  0.88221777  0.63496898  1
  O  O375  1  0.63196173  0.38023195  0.13214431  1
  O  O376  1  0.62746385  0.38646025  0.62943605  1
  O  O377  1  0.63339631  0.88212675  0.12591991  1
  O  O378  1  0.62705989  0.88207102  0.63126525  1
  O  O379  1  0.10933191  0.23298551  0.25110609  1
  O  O380  1  0.12156456  0.25796618  0.74775435  1
  O  O381  1  0.13194143  0.74041171  0.26407505  1
  O  O382  1  0.11834983  0.75746295  0.75105623  1
  O  O383  1  0.62029252  0.26164494  0.24791198  1
  O  O384  1  0.61931391  0.25620551  0.75678228  1
  O  O385  1  0.62973939  0.75545448  0.26333212  1
  O  O386  1  0.61911762  0.75841528  0.76079617  1
  O  O387  1  0.38245321  0.24252259  0.24767925  1
  O  O388  1  0.37883102  0.25529239  0.74333071  1
  O  O389  1  0.37455357  0.74301577  0.24365349  1
  O  O390  1  0.38242774  0.76276139  0.74191836  1
  O  O391  1  0.88726524  0.24399698  0.23291602  1
  O  O392  1  0.88382426  0.25043838  0.74058134  1
  O  O393  1  0.86907873  0.74163089  0.23729910  1
  O  O394  1  0.88279057  0.74382372  0.74813735  1
  O  O395  1  0.38694242  0.48729676  0.50926366  1
  O  O396  1  0.37780520  0.49561430  0.99255438  1
  O  O397  1  0.38298448  0.99502794  0.50697242  1
  O  O398  1  0.38260417  0.99496353  0.99467385  1
  O  O399  1  0.88324043  0.49373308  0.50147142  1
  O  O400  1  0.87099841  0.48680901  0.99057110  1
  O  O401  1  0.88082731  1.00010913  0.49090900  1
  O  O402  1  0.87657311  0.99043026  0.98808644  1
  O  O403  1  0.12269170  0.00806778  0.00854209  1
  O  O404  1  0.11590354  0.00502534  0.50607073  1
  O  O405  1  0.14465174  0.43496281  0.05024117  1
  O  O406  1  0.10956116  0.51146250  0.50732694  1
  O  O407  1  0.61900157  0.00493024  0.00671720  1
  O  O408  1  0.61686952  0.00986100  0.51185083  1
  O  O409  1  0.63226665  0.50102710  0.01334853  1
  O  O410  1  0.61437010  0.50088254  0.50912723  1
  O  O411  1  0.39661404  0.37073717  0.11538046  1
  O  O412  1  0.38392355  0.36099422  0.61441563  1
  O  O413  1  0.37052026  0.87164593  0.12051977  1
  O  O414  1  0.36403008  0.87948087  0.61612408  1
  O  O415  1  0.86675536  0.36270868  0.11528785  1
  O  O416  1  0.87110842  0.36978827  0.61577005  1
  O  O417  1  0.87021270  0.86671468  0.11981568  1
  O  O418  1  0.86314683  0.87458329  0.62377676  1
  O  O419  1  0.13004548  0.12465063  0.38600853  1
  O  O420  1  0.12109782  0.12299210  0.88798566  1
  O  O421  1  0.11361341  0.63748208  0.38991602  1
  O  O422  1  0.14222664  0.62359320  0.87069150  1
  O  O423  1  0.63517612  0.11835144  0.38269196  1
  O  O424  1  0.62995159  0.13147288  0.87955920  1
  O  O425  1  0.62900499  0.63316614  0.37647380  1
  O  O426  1  0.63283910  0.63195071  0.87722457  1
