# generated using pymatgen
data_V85Zn86O256
_symmetry_space_group_name_H-M   'P 1'
_cell_length_a   16.93379864
_cell_length_b   16.91996278
_cell_length_c   16.92398381
_cell_angle_alpha   90.00039264
_cell_angle_beta   89.99626392
_cell_angle_gamma   90.06223011
_symmetry_Int_Tables_number   1
_chemical_formula_structural   V85Zn86O256
_chemical_formula_sum   'V85 Zn86 O256'
_cell_volume   4849.04415428
_cell_formula_units_Z   1
loop_
 _symmetry_equiv_pos_site_id
 _symmetry_equiv_pos_as_xyz
  1  'x, y, z'
loop_
 _atom_site_type_symbol
 _atom_site_label
 _atom_site_symmetry_multiplicity
 _atom_site_fract_x
 _atom_site_fract_y
 _atom_site_fract_z
 _atom_site_occupancy
  V  V0  1  0.24144609  0.61495695  0.37455863  1
  V  V1  1  0.62344348  0.12405009  -0.00020200  1
  V  V2  1  0.86582162  0.77057183  0.62481132  1
  V  V3  1  0.49570878  0.49850633  0.00188245  1
  V  V4  1  0.75120472  0.37692058  0.12362245  1
  V  V5  1  0.87450784  0.12517203  0.26012240  1
  V  V6  1  0.63830131  0.24415470  0.37715163  1
  V  V7  1  0.00253871  0.62857946  0.12540916  1
  V  V8  1  0.86768027  0.87260765  -0.00281279  1
  V  V9  1  0.13485984  0.37898664  0.25336308  1
  V  V10  1  0.00106706  0.37485265  0.37249976  1
  V  V11  1  0.61103413  0.75255235  0.37946735  1
  V  V12  1  0.87720952  0.24910841  0.12356766  1
  V  V13  1  0.87152482  0.75175770  0.12181407  1
  V  V14  1  0.00593326  0.37830893  0.86304447  1
  V  V15  1  0.49818156  0.12413617  0.12675085  1
  V  V16  1  0.62463107  -0.00075352  0.12785253  1
  V  V17  1  0.24216206  0.00091525  0.75422630  1
  V  V18  1  -0.00085425  0.50413322  0.49919122  1
  V  V19  1  0.36951488  0.86767914  0.00303563  1
  V  V20  1  0.74972179  0.50212173  0.24989083  1
  V  V21  1  0.00285372  0.25027311  0.24874669  1
  V  V22  1  0.24420895  0.74925054  0.49306535  1
  V  V23  1  0.12968947  0.25368348  0.86635378  1
  V  V24  1  0.50020359  0.37472369  0.37817409  1
  V  V25  1  0.75174711  0.25137526  -0.00088262  1
  V  V26  1  0.12793304  0.12252702  0.49817230  1
  V  V27  1  0.13127637  0.12508454  -0.00604744  1
  V  V28  1  0.75806991  0.62721305  0.87343335  1
  V  V29  1  0.62570439  0.87666911  0.74700289  1
  V  V30  1  0.37361209  0.12007280  0.75763651  1
  V  V31  1  0.62351804  0.38155759  0.74572570  1
  V  V32  1  0.13087902  0.50277547  0.12892003  1
  V  V33  1  0.00303517  0.75500571  0.26443010  1
  V  V34  1  0.62572639  0.50105883  0.12583912  1
  V  V35  1  0.87367600  0.24446364  0.62275296  1
  V  V36  1  0.12535722  0.87450532  0.26184548  1
  V  V37  1  0.24685692  0.48746921  0.74508664  1
  V  V38  1  0.37601371  0.61617944  0.25630528  1
  V  V39  1  0.63169014  0.75179480  0.87903839  1
  V  V40  1  0.00027059  0.12445145  0.12317935  1
  V  V41  1  0.75076875  0.00080322  0.25231145  1
  V  V42  1  0.63797036  0.12441552  0.50078089  1
  V  V43  1  0.50121224  0.11541777  0.62376749  1
  V  V44  1  0.75021103  0.12808479  0.87223727  1
  V  V45  1  0.87614439  0.62741429  0.25017857  1
  V  V46  1  0.75359053  0.50405807  0.74551225  1
  V  V47  1  0.36891999  0.62642035  0.74382561  1
  V  V48  1  0.00592809  0.87642088  0.86529090  1
  V  V49  1  0.13233038  -0.00098914  0.12963925  1
  V  V50  1  0.87695115  0.37807912  -0.00332628  1
  V  V51  1  0.61162211  0.86917722  0.25145735  1
  V  V52  1  0.50029662  0.24706005  0.25367581  1
  V  V53  1  -0.00023965  0.00044854  -0.00041977  1
  V  V54  1  0.37535765  0.86978945  0.50284224  1
  V  V55  1  0.24373525  0.86692202  0.12640842  1
  V  V56  1  0.49565775  -0.00090002  0.48863615  1
  V  V57  1  0.37604375  0.25301856  0.12187971  1
  V  V58  1  0.00317235  -0.01572156  0.49768027  1
  V  V59  1  0.87353607  0.00215076  0.87459533  1
  V  V60  1  0.49707816  0.37540317  0.87938919  1
  V  V61  1  0.25520508  0.37992979  0.12022485  1
  V  V62  1  0.35888017  0.12156104  0.25437923  1
  V  V63  1  -0.01142774  0.62459994  0.63337752  1
  V  V64  1  0.25120817  0.63087529  0.88071449  1
  V  V65  1  0.35591211  -0.00219451  0.37276873  1
  V  V66  1  0.00472858  0.50246760  -0.00115320  1
  V  V67  1  0.87192296  0.50025777  0.37296859  1
  V  V68  1  0.75007176  0.63380499  0.38256981  1
  V  V69  1  0.25344888  0.25046042  -0.00429257  1
  V  V70  1  0.37204970  0.74863768  0.13444194  1
  V  V71  1  0.50776452  0.61748507  0.62820447  1
  V  V72  1  0.13551401  0.24316467  0.37237046  1
  V  V73  1  0.86952331  0.36671284  0.49604333  1
  V  V74  1  0.50223042  0.24865837  0.74913122  1
  V  V75  1  0.49500743  0.75070568  0.74564957  1
  V  V76  1  0.88294655  -0.01983859  0.37209505  1
  V  V77  1  0.50195357  0.63192124  0.13336691  1
  V  V78  1  0.24570257  0.86378962  0.63374998  1
  V  V79  1  0.25255108  0.24826206  0.50263949  1
  V  V80  1  0.37260624  0.25273834  0.62616072  1
  V  V81  1  0.74518960  -0.00005497  0.74594647  1
  V  V82  1  0.49668205  0.87427052  0.87827834  1
  V  V83  1  0.62943042  0.62982529  0.00105412  1
  V  V84  1  0.74383286  0.37440075  0.61826026  1
  Zn  Zn85  1  0.88010706  0.50707881  0.87003311  1
  Zn  Zn86  1  0.00422755  0.25079085  0.74412925  1
  Zn  Zn87  1  0.00176371  0.12615482  0.62241943  1
  Zn  Zn88  1  0.50344055  0.49609325  0.50638832  1
  Zn  Zn89  1  -0.00066581  0.74768237  0.74860154  1
  Zn  Zn90  1  0.87783930  0.12911552  0.74835982  1
  Zn  Zn91  1  0.36967287  0.00037194  0.88035777  1
  Zn  Zn92  1  0.13728285  0.63732185  0.00677744  1
  Zn  Zn93  1  0.12245743  -0.00227230  0.62897712  1
  Zn  Zn94  1  0.65833250  -0.04841582  0.58642334  1
  Zn  Zn95  1  0.37318934  0.49856036  0.87818112  1
  Zn  Zn96  1  0.36919113  0.49412263  0.37969404  1
  Zn  Zn97  1  0.37600545  0.37813193  0.50624387  1
  Zn  Zn98  1  0.62679829  0.37279249  0.25171960  1
  Zn  Zn99  1  0.49552358  -0.00118680  0.00204466  1
  Zn  Zn100  1  0.74636476  0.87080473  0.12157798  1
  Zn  Zn101  1  0.12425706  0.49675679  0.63211386  1
  Zn  Zn102  1  0.63038442  0.62538986  0.50879195  1
  Zn  Zn103  1  0.62615229  0.25243891  0.87310537  1
  Zn  Zn104  1  0.75155937  0.78942888  0.50248971  1
  Zn  Zn105  1  0.12835779  0.75394880  0.87348953  1
  Zn  Zn106  1  0.11738249  0.63353262  0.49935717  1
  Zn  Zn107  1  0.18678432  0.19004434  0.18203203  1
  Zn  Zn108  1  0.18989245  0.18145365  0.68429042  1
  Zn  Zn109  1  0.18962841  0.68868544  0.19624700  1
  Zn  Zn110  1  0.17625915  0.68457822  0.69014282  1
  Zn  Zn111  1  0.68941523  0.18616747  0.18897289  1
  Zn  Zn112  1  0.68696069  0.19079439  0.68238934  1
  Zn  Zn113  1  0.68806749  0.68985953  0.19185129  1
  Zn  Zn114  1  0.69038241  0.69349840  0.69111560  1
  Zn  Zn115  1  0.31325898  0.31161716  0.31244559  1
  Zn  Zn116  1  0.31739548  0.31174365  0.81359297  1
  Zn  Zn117  1  0.31152912  0.81124200  0.31329966  1
  Zn  Zn118  1  0.31198178  0.81108522  0.81223432  1
  Zn  Zn119  1  0.81245996  0.31231495  0.30957228  1
  Zn  Zn120  1  0.81451589  0.31640863  0.80862906  1
  Zn  Zn121  1  0.80650837  0.81111162  0.30657902  1
  Zn  Zn122  1  0.81565831  0.81242633  0.80617353  1
  Zn  Zn123  1  0.17750987  0.42707454  0.46857231  1
  Zn  Zn124  1  0.19004758  0.44147475  0.93636402  1
  Zn  Zn125  1  0.18822142  0.93376620  0.44308461  1
  Zn  Zn126  1  0.18932527  0.93599674  0.94085508  1
  Zn  Zn127  1  0.68087494  0.44116237  0.43970649  1
  Zn  Zn128  1  0.68452432  0.44161956  0.93383201  1
  Zn  Zn129  1  0.68424269  0.94508041  0.41912881  1
  Zn  Zn130  1  0.68641302  0.93972926  0.93527952  1
  Zn  Zn131  1  0.31186423  0.06047919  0.06357399  1
  Zn  Zn132  1  0.30966528  0.06156011  0.56703797  1
  Zn  Zn133  1  0.31593985  0.56314631  0.06510613  1
  Zn  Zn134  1  0.31694485  0.56277538  0.56228871  1
  Zn  Zn135  1  0.81122445  0.06133025  0.06427165  1
  Zn  Zn136  1  0.79918903  0.00755694  0.54135295  1
  Zn  Zn137  1  0.81441465  0.56519770  0.05910590  1
  Zn  Zn138  1  0.81357377  0.55876534  0.56319963  1
  Zn  Zn139  1  0.43944475  0.43731971  0.19087451  1
  Zn  Zn140  1  0.43336493  0.43916584  0.69211515  1
  Zn  Zn141  1  0.43231917  0.93963014  0.18980811  1
  Zn  Zn142  1  0.43282885  0.93595122  0.68527221  1
  Zn  Zn143  1  0.94079392  0.43842490  0.18623214  1
  Zn  Zn144  1  0.93193980  0.43714858  0.68345677  1
  Zn  Zn145  1  0.94179590  0.93464642  0.18552773  1
  Zn  Zn146  1  0.93489564  0.94580503  0.68676343  1
  Zn  Zn147  1  0.06349198  0.06059335  0.31259670  1
  Zn  Zn148  1  0.06051480  0.06788865  0.81171881  1
  Zn  Zn149  1  0.06358017  0.56357238  0.31377462  1
  Zn  Zn150  1  0.07026448  0.56528669  0.81038021  1
  Zn  Zn151  1  0.55952816  0.06338672  0.31542838  1
  Zn  Zn152  1  0.56013750  0.05989313  0.81462982  1
  Zn  Zn153  1  0.56456548  0.56301354  0.31708044  1
  Zn  Zn154  1  0.56520756  0.56273731  0.81273127  1
  Zn  Zn155  1  0.43720497  0.18310436  0.43618470  1
  Zn  Zn156  1  0.43897853  0.18962969  0.93741887  1
  Zn  Zn157  1  0.43063145  0.68485560  0.44308080  1
  Zn  Zn158  1  0.43656914  0.68812143  0.93861456  1
  Zn  Zn159  1  0.94445378  0.18634443  0.43941343  1
  Zn  Zn160  1  0.94142965  0.19034579  0.93382068  1
  Zn  Zn161  1  0.92884798  0.69364477  0.44543083  1
  Zn  Zn162  1  0.94334147  0.69180692  0.94040905  1
  Zn  Zn163  1  0.06665018  0.31577246  0.05912827  1
  Zn  Zn164  1  0.06247842  0.31656602  0.56270488  1
  Zn  Zn165  1  0.05905181  0.81244234  0.05847952  1
  Zn  Zn166  1  0.06545036  0.80834339  0.57033792  1
  Zn  Zn167  1  0.56440621  0.31254104  0.06336226  1
  Zn  Zn168  1  0.56315740  0.30496025  0.56154534  1
  Zn  Zn169  1  0.55992139  0.81119243  0.06351533  1
  Zn  Zn170  1  0.55293612  0.80416335  0.55905674  1
  O  O171  1  0.12017688  0.11831552  0.11732979  1
  O  O172  1  0.12329523  0.11920975  0.61380761  1
  O  O173  1  0.12396612  0.61829868  0.12676928  1
  O  O174  1  0.10803828  0.61767531  0.61913159  1
  O  O175  1  0.61973140  0.12020544  0.11936203  1
  O  O176  1  0.61616500  0.12910630  0.61151892  1
  O  O177  1  0.61995362  0.62448660  0.12139234  1
  O  O178  1  0.61164185  0.63218611  0.62948639  1
  O  O179  1  0.38611127  0.37399852  0.37287904  1
  O  O180  1  0.39242267  0.37730025  0.87330382  1
  O  O181  1  0.36705485  0.88901303  0.38296908  1
  O  O182  1  0.38056419  0.87077514  0.88658542  1
  O  O183  1  0.87759583  0.37924614  0.37769752  1
  O  O184  1  0.88666799  0.37562974  0.88265548  1
  O  O185  1  0.87688353  0.88216229  0.36825754  1
  O  O186  1  0.87897323  0.88346415  0.88010867  1
  O  O187  1  0.25777980  0.00312516  0.37840002  1
  O  O188  1  0.25268967  -0.01125818  0.85942345  1
  O  O189  1  0.24779165  0.51329645  0.38736220  1
  O  O190  1  0.25413399  0.50710232  0.86653565  1
  O  O191  1  0.77034432  0.00153985  0.36474679  1
  O  O192  1  0.75284577  0.01070680  0.86881166  1
  O  O193  1  0.75423784  0.50618714  0.36564711  1
  O  O194  1  0.75167341  0.51009006  0.86809709  1
  O  O195  1  0.24353365  0.49278101  0.12207048  1
  O  O196  1  0.25278752  0.50708394  0.64188999  1
  O  O197  1  0.23697083  0.99199779  0.12283467  1
  O  O198  1  0.24843587  0.99098914  0.63802920  1
  O  O199  1  0.74632645  0.49871225  0.13017798  1
  O  O200  1  0.75261933  0.48792511  0.63238898  1
  O  O201  1  0.74111921  0.99749454  0.13177885  1
  O  O202  1  0.74511476  1.01037149  0.64257309  1
  O  O203  1  0.01105027  0.36983890  0.25218631  1
  O  O204  1  -0.00101979  0.37745244  0.76005597  1
  O  O205  1  0.00702465  0.86204431  0.24781850  1
  O  O206  1  -0.00331580  0.88489539  0.76393628  1
  O  O207  1  0.50308897  0.36018538  0.25328668  1
  O  O208  1  0.50733418  0.37196703  0.75552762  1
  O  O209  1  0.51336628  0.87978594  0.24759173  1
  O  O210  1  0.50033949  0.86846242  0.75860167  1
  O  O211  1  0.49394963  0.13384896  0.24657408  1
  O  O212  1  0.49661354  0.12659262  0.74314921  1
  O  O213  1  0.49372387  0.62095736  0.24251113  1
  O  O214  1  0.49560605  0.63059256  0.74618331  1
  O  O215  1  0.99445274  0.13067595  0.24211162  1
  O  O216  1  0.99611958  0.13006663  0.74260445  1
  O  O217  1  0.99645704  0.63475083  0.24494788  1
  O  O218  1  0.99689476  0.61792321  0.73677691  1
  O  O219  1  0.36963287  0.24394742  0.01310000  1
  O  O220  1  0.36877373  0.24062087  0.51000491  1
  O  O221  1  0.38112464  0.76036861  0.01441988  1
  O  O222  1  0.36610691  0.76383239  0.49748608  1
  O  O223  1  0.87170641  0.25634810  0.00462545  1
  O  O224  1  0.87834546  0.26128988  0.50057549  1
  O  O225  1  0.87893813  0.76058326  0.00897006  1
  O  O226  1  0.86555997  0.75426480  0.51603147  1
  O  O227  1  0.13171339  0.24156679  0.49069563  1
  O  O228  1  0.13457849  0.24355689  0.99581037  1
  O  O229  1  0.13855092  0.75016837  0.50270538  1
  O  O230  1  0.11265476  0.74597335  0.98824971  1
  O  O231  1  0.62629435  0.23427026  0.49190959  1
  O  O232  1  0.63232939  0.23823690  1.00108689  1
  O  O233  1  0.63145086  0.75098854  0.49057996  1
  O  O234  1  0.62179730  0.74335891  0.99180975  1
  O  O235  1  0.49345937  0.24622939  0.13116351  1
  O  O236  1  0.49408101  0.23637206  0.63051109  1
  O  O237  1  0.49353813  0.73782324  0.12440802  1
  O  O238  1  0.49944218  0.74150510  0.64131857  1
  O  O239  1  0.99765413  0.24663623  0.12846345  1
  O  O240  1  0.99147081  0.25360441  0.62413569  1
  O  O241  1  0.98945305  0.74468293  0.13126441  1
  O  O242  1  0.98941048  0.73939043  0.62390546  1
  O  O243  1  0.00973838  0.25682697  0.36732205  1
  O  O244  1  0.01143890  0.26045513  0.87314484  1
  O  O245  1  -0.00563675  0.74459464  0.36246670  1
  O  O246  1  -0.00957608  0.76914962  0.87057478  1
  O  O247  1  0.50544050  0.25401033  0.36799025  1
  O  O248  1  0.50357222  0.25738087  0.86880846  1
  O  O249  1  0.51242718  0.74523833  0.38241850  1
  O  O250  1  0.50748222  0.75813560  0.87062659  1
  O  O251  1  0.23820407  0.13029693  0.50175271  1
  O  O252  1  0.24214754  0.13526839  1.00635442  1
  O  O253  1  0.25123774  0.63291395  0.49192245  1
  O  O254  1  0.25494448  0.61840964  0.98557256  1
  O  O255  1  0.73471273  0.10755496  0.50511163  1
  O  O256  1  0.74400523  0.12867845  0.99107991  1
  O  O257  1  0.75068286  0.61941092  0.48645919  1
  O  O258  1  0.73606526  0.62029192  0.99303246  1
  O  O259  1  0.24711511  0.36820522  0.01267491  1
  O  O260  1  0.26246492  0.35212078  0.48612527  1
  O  O261  1  0.25613302  0.87539279  0.01372632  1
  O  O262  1  0.25517678  0.86796731  0.50986345  1
  O  O263  1  0.75531927  0.37239074  0.00293777  1
  O  O264  1  0.75703008  0.38149211  0.50547125  1
  O  O265  1  0.76266954  0.88196966  0.00035836  1
  O  O266  1  0.73861985  0.90625213  0.51136256  1
  O  O267  1  0.12012526  0.49172431  0.23901962  1
  O  O268  1  0.14112283  0.49714644  0.74988454  1
  O  O269  1  0.11591812  0.98930854  0.23920878  1
  O  O270  1  0.13859549  1.00638934  0.75090912  1
  O  O271  1  0.63362961  0.49954449  0.24399459  1
  O  O272  1  0.63400916  0.48805614  0.75417044  1
  O  O273  1  0.63198277  0.99349293  0.25109737  1
  O  O274  1  0.62968741  0.98932364  0.75629108  1
  O  O275  1  0.37440813  0.00558177  0.26392630  1
  O  O276  1  0.36754239  0.00547029  0.75324751  1
  O  O277  1  0.37514875  0.51224846  0.25118913  1
  O  O278  1  0.36716228  0.50939986  0.75563337  1
  O  O279  1  0.87448859  0.00394800  0.25600668  1
  O  O280  1  0.86377901  0.00635224  0.75714049  1
  O  O281  1  0.86974046  0.50666714  0.25219648  1
  O  O282  1  0.85889704  0.49289094  0.75413862  1
  O  O283  1  0.12294800  0.36843568  0.36788006  1
  O  O284  1  0.11675236  0.36609840  0.88470833  1
  O  O285  1  0.13272359  0.87786793  0.36083533  1
  O  O286  1  0.10762497  0.87992145  0.88101687  1
  O  O287  1  0.61910358  0.36172221  0.37318208  1
  O  O288  1  0.61689838  0.37366384  0.86616317  1
  O  O289  1  0.62476450  0.86483338  0.36293634  1
  O  O290  1  0.61728508  0.86853315  0.87199482  1
  O  O291  1  0.38057727  0.12931792  0.13252583  1
  O  O292  1  0.38223755  0.12924847  0.63621036  1
  O  O293  1  0.38172034  0.63052840  0.13318025  1
  O  O294  1  0.38535460  0.62444418  0.63958489  1
  O  O295  1  0.88160210  0.12965210  0.13057191  1
  O  O296  1  0.87246986  0.14197377  0.61934740  1
  O  O297  1  0.88035687  0.63167895  0.13024823  1
  O  O298  1  0.88551016  0.62677405  0.62256618  1
  O  O299  1  0.25685178  0.25788640  0.11604427  1
  O  O300  1  0.25995554  0.24397410  0.61639174  1
  O  O301  1  0.25811278  0.75385949  0.12642080  1
  O  O302  1  0.24739077  0.76012925  0.62358269  1
  O  O303  1  0.75676462  0.25499549  0.11904446  1
  O  O304  1  0.75788496  0.26508740  0.62738197  1
  O  O305  1  0.76574101  0.75140483  0.13294194  1
  O  O306  1  0.76078074  0.75352025  0.62433438  1
  O  O307  1  0.23999225  0.24607156  0.37554493  1
  O  O308  1  0.24713801  0.25769223  0.88836844  1
  O  O309  1  0.25612571  0.73888816  0.38535260  1
  O  O310  1  0.25146026  0.73516296  0.87395514  1
  O  O311  1  0.73737912  0.24752753  0.36539829  1
  O  O312  1  0.74979124  0.24485690  0.88079786  1
  O  O313  1  0.74477839  0.74749498  0.38113201  1
  O  O314  1  0.73946894  0.74433561  0.86809005  1
  O  O315  1  0.00741324  0.12087773  0.00434242  1
  O  O316  1  0.01330386  0.11778896  0.50005196  1
  O  O317  1  -0.00044728  0.61335361  0.00577522  1
  O  O318  1  -0.00597991  0.61973266  0.50697024  1
  O  O319  1  0.50808763  0.12359373  0.00556901  1
  O  O320  1  0.50284649  0.11616587  0.50704328  1
  O  O321  1  0.51041705  0.61961942  0.00776042  1
  O  O322  1  0.49746728  0.63224525  0.52255750  1
  O  O323  1  0.49835125  0.36974529  0.49080554  1
  O  O324  1  0.51080006  0.38490778  0.99225471  1
  O  O325  1  0.48790017  0.88554166  0.50901253  1
  O  O326  1  0.49259458  0.87576949  0.99453939  1
  O  O327  1  0.98785063  0.38300592  0.48867637  1
  O  O328  1  0.99718175  0.38701799  0.99583912  1
  O  O329  1  1.00980544  0.88572349  0.49978432  1
  O  O330  1  0.98734329  0.88481449  0.99259093  1
  O  O331  1  0.50062511  0.48118688  0.36698158  1
  O  O332  1  0.50229354  0.49462678  0.88477206  1
  O  O333  1  0.48977570  1.00191312  0.38556883  1
  O  O334  1  0.49670789  0.98487236  0.87807324  1
  O  O335  1  0.98804017  0.49491886  0.37290947  1
  O  O336  1  1.00250132  0.49651170  0.88150015  1
  O  O337  1  0.99071213  0.99830561  0.37962247  1
  O  O338  1  0.99395572  0.99561036  0.88012457  1
  O  O339  1  0.00855286  0.00416080  0.11750501  1
  O  O340  1  -0.00012986  0.00165847  0.60897121  1
  O  O341  1  0.00811808  0.50661598  0.11861416  1
  O  O342  1  -0.00464598  0.50712751  0.61501917  1
  O  O343  1  0.50598550  0.00675818  0.12579685  1
  O  O344  1  0.49453364  0.00991252  0.61705787  1
  O  O345  1  0.50697538  0.50735540  0.12118664  1
  O  O346  1  0.50041012  0.51443195  0.63225142  1
  O  O347  1  0.23985817  0.36896420  0.23976576  1
  O  O348  1  0.25877937  0.38852660  0.75238667  1
  O  O349  1  0.23962151  0.86719223  0.23706942  1
  O  O350  1  0.25682286  0.88219103  0.73975582  1
  O  O351  1  0.75075688  0.38347403  0.24094229  1
  O  O352  1  0.74119470  0.38163882  0.74374225  1
  O  O353  1  0.74138671  0.88695410  0.24603331  1
  O  O354  1  0.73728039  0.88623880  0.75912773  1
  O  O355  1  0.26018017  0.12807971  0.24325641  1
  O  O356  1  0.25928292  0.11000384  0.74754950  1
  O  O357  1  0.25821290  0.62750878  0.26680868  1
  O  O358  1  0.25676720  0.62140565  0.75928978  1
  O  O359  1  0.76091740  0.11127843  0.24169156  1
  O  O360  1  0.74563360  0.12352141  0.76200165  1
  O  O361  1  0.75608614  0.62240812  0.26030951  1
  O  O362  1  0.74126270  0.61537956  0.76015800  1
  O  O363  1  0.37655127  0.11248204  0.36594784  1
  O  O364  1  0.38289838  0.12210436  0.86240567  1
  O  O365  1  0.36913767  0.61976582  0.37054454  1
  O  O366  1  0.36792283  0.62315242  0.86880533  1
  O  O367  1  0.88218359  0.12487972  0.36137924  1
  O  O368  1  0.86586071  0.12196324  0.87541503  1
  O  O369  1  0.86787855  0.62214983  0.36910882  1
  O  O370  1  0.86128479  0.62854121  0.88363505  1
  O  O371  1  0.13331140  0.38183591  0.13200810  1
  O  O372  1  0.13445477  0.39855591  0.57668024  1
  O  O373  1  0.12868737  0.88065481  0.12796164  1
  O  O374  1  0.14157895  0.87970281  0.62331461  1
  O  O375  1  0.63382245  0.38107457  0.12735104  1
  O  O376  1  0.63159280  0.36952020  0.63134927  1
  O  O377  1  0.62529061  0.87818411  0.13487994  1
  O  O378  1  0.61170494  0.86610842  0.64220759  1
  O  O379  1  0.12221587  0.25643353  0.25391903  1
  O  O380  1  0.13122447  0.24497743  0.76336162  1
  O  O381  1  0.11007598  0.75748052  0.24607689  1
  O  O382  1  0.11328478  0.74580778  0.75966322  1
  O  O383  1  0.61668349  0.24591530  0.25681685  1
  O  O384  1  0.61878948  0.26000144  0.75032056  1
  O  O385  1  0.62686423  0.76278408  0.25886103  1
  O  O386  1  0.61673597  0.75691226  0.76198541  1
  O  O387  1  0.38054428  0.24147646  0.24185261  1
  O  O388  1  0.38065607  0.24038542  0.74549661  1
  O  O389  1  0.37407066  0.74048134  0.24104802  1
  O  O390  1  0.38503293  0.74015368  0.75825091  1
  O  O391  1  0.88042113  0.24304391  0.24278029  1
  O  O392  1  0.87776536  0.25121670  0.73817396  1
  O  O393  1  0.88480650  0.74742319  0.24468480  1
  O  O394  1  0.88042939  0.75417570  0.73272760  1
  O  O395  1  0.38535958  0.49557064  0.49915168  1
  O  O396  1  0.39196314  0.50342453  1.00117596  1
  O  O397  1  0.37544831  0.99634023  0.49034690  1
  O  O398  1  0.37511282  0.98630136  1.00106007  1
  O  O399  1  0.88082739  0.49188972  0.49085525  1
  O  O400  1  0.88474515  0.49444046  0.99729327  1
  O  O401  1  0.89208516  1.00276402  0.48110804  1
  O  O402  1  0.87964800  0.99715862  0.99422946  1
  O  O403  1  0.12163995  0.00843073  0.00569019  1
  O  O404  1  0.11536419  0.00481729  0.49636593  1
  O  O405  1  0.11951985  0.50211631  0.01281678  1
  O  O406  1  0.10116806  0.51366770  0.47765289  1
  O  O407  1  0.62413822  0.01068301  0.00603459  1
  O  O408  1  0.61196940  0.00881326  0.49466337  1
  O  O409  1  0.61838388  0.50880457  0.00712549  1
  O  O410  1  0.61370221  0.51390379  0.48888950  1
  O  O411  1  0.36746854  0.36554903  0.13226930  1
  O  O412  1  0.38501513  0.35689020  0.62643162  1
  O  O413  1  0.36697812  0.86779277  0.12478849  1
  O  O414  1  0.35970218  0.88015443  0.61445910  1
  O  O415  1  0.87161493  0.37047677  0.11745394  1
  O  O416  1  0.86749556  0.36862836  0.61312344  1
  O  O417  1  0.87431373  0.86916947  0.11627606  1
  O  O418  1  0.87487279  0.87044031  0.62389706  1
  O  O419  1  0.12000799  0.13411519  0.37947107  1
  O  O420  1  0.12116908  0.13468761  0.88831727  1
  O  O421  1  0.13842388  0.62825768  0.37299740  1
  O  O422  1  0.14243333  0.62134788  0.87995035  1
  O  O423  1  0.62003560  0.13101276  0.38842234  1
  O  O424  1  0.63057368  0.12681421  0.88376462  1
  O  O425  1  0.63283268  0.64172878  0.37047055  1
  O  O426  1  0.63057840  0.63336649  0.88312376  1
