# generated using pymatgen
data_V85Zn86O256
_symmetry_space_group_name_H-M   'P 1'
_cell_length_a   16.96657653
_cell_length_b   16.95673039
_cell_length_c   16.98850732
_cell_angle_alpha   90.07176174
_cell_angle_beta   89.91024769
_cell_angle_gamma   89.92313368
_symmetry_Int_Tables_number   1
_chemical_formula_structural   V85Zn86O256
_chemical_formula_sum   'V85 Zn86 O256'
_cell_volume   4887.53962616
_cell_formula_units_Z   1
loop_
 _symmetry_equiv_pos_site_id
 _symmetry_equiv_pos_as_xyz
  1  'x, y, z'
loop_
 _atom_site_type_symbol
 _atom_site_label
 _atom_site_symmetry_multiplicity
 _atom_site_fract_x
 _atom_site_fract_y
 _atom_site_fract_z
 _atom_site_occupancy
  V  V0  1  0.86983230  0.87660743  0.00349311  1
  V  V1  1  0.11546869  0.00120525  0.12651861  1
  V  V2  1  0.24956674  0.11963368  0.36786026  1
  V  V3  1  0.50582281  0.87168494  0.87333968  1
  V  V4  1  0.25411100  0.50105923  0.24991105  1
  V  V5  1  0.12386399  0.12522438  0.00238276  1
  V  V6  1  0.36963923  0.00222710  0.36217927  1
  V  V7  1  0.87582974  0.62642344  0.75444414  1
  V  V8  1  0.50360349  0.49424120  -0.00747895  1
  V  V9  1  0.37639479  0.25027647  0.63932877  1
  V  V10  1  -0.01212100  0.88001716  0.37627586  1
  V  V11  1  0.50600574  0.62798541  0.62493119  1
  V  V12  1  0.38308471  0.62963983  0.74886200  1
  V  V13  1  0.11900732  0.37765065  0.75840219  1
  V  V14  1  0.86356309  0.12543205  0.75728519  1
  V  V15  1  0.62641295  0.74856191  0.86673553  1
  V  V16  1  0.37337091  0.87718769  0.00368421  1
  V  V17  1  0.12757712  0.88175507  0.25830260  1
  V  V18  1  0.86705544  0.50660650  0.37771442  1
  V  V19  1  0.37798669  0.87815090  0.49911314  1
  V  V20  1  0.75085599  0.24609792  0.49549014  1
  V  V21  1  0.11612474  0.25377497  0.37873202  1
  V  V22  1  -0.01020130  0.00227394  0.50186276  1
  V  V23  1  0.48570324  0.13189729  0.13213277  1
  V  V24  1  0.87752368  0.24848495  0.62558977  1
  V  V25  1  0.63252725  0.62295268  0.49005341  1
  V  V26  1  0.12467657  0.62636466  0.50140400  1
  V  V27  1  0.50167746  0.62306222  0.12265130  1
  V  V28  1  0.63348306  0.74822753  0.36306063  1
  V  V29  1  0.75883129  -0.00990712  0.24683699  1
  V  V30  1  0.11210551  0.37388400  0.25129734  1
  V  V31  1  0.86906200  0.75239108  0.12654897  1
  V  V32  1  0.24848982  0.88370586  0.13144770  1
  V  V33  1  0.12463657  0.75469381  0.87486944  1
  V  V34  1  -0.00120737  0.62530765  0.12760538  1
  V  V35  1  0.38077887  0.76044541  0.62551837  1
  V  V36  1  -0.00079686  0.88021645  0.87495837  1
  V  V37  1  0.49198990  0.50147815  0.49460908  1
  V  V38  1  0.50071747  0.35560599  0.86608247  1
  V  V39  1  0.49615350  0.00311988  0.00284826  1
  V  V40  1  -0.00205884  0.23294915  0.24986505  1
  V  V41  1  0.37054801  0.00287154  0.86110921  1
  V  V42  1  0.37316046  0.74706527  0.12898622  1
  V  V43  1  0.36972284  0.36806817  -0.00401562  1
  V  V44  1  0.62289876  -0.00881787  0.13475686  1
  V  V45  1  0.25335010  0.62764492  0.87345501  1
  V  V46  1  0.88023405  0.23430037  0.12930191  1
  V  V47  1  0.24793102  0.50670599  0.74813360  1
  V  V48  1  0.00092220  0.49510419  0.49140891  1
  V  V49  1  0.62117158  0.49659824  0.62457068  1
  V  V50  1  0.74705266  0.74963251  0.00185935  1
  V  V51  1  0.00092412  0.75112041  0.25095711  1
  V  V52  1  0.12138928  0.12281333  0.50565353  1
  V  V53  1  -0.00238083  0.25448724  0.76221735  1
  V  V54  1  0.75497774  0.37088712  0.12706636  1
  V  V55  1  0.24823315  0.37693186  0.62568908  1
  V  V56  1  0.12257182  0.50224990  0.62486094  1
  V  V57  1  0.86798470  0.87233880  0.51636954  1
  V  V58  1  0.25139783  0.24779104  0.50199267  1
  V  V59  1  0.62075676  0.24746958  0.37167740  1
  V  V60  1  0.24902200  0.74939252  0.00506593  1
  V  V61  1  0.24810241  0.12424568  0.86180565  1
  V  V62  1  0.75025719  0.37493906  0.62145531  1
  V  V63  1  0.25919147  0.62097764  0.37611971  1
  V  V64  1  0.87699346  0.49268012  0.87479893  1
  V  V65  1  0.88050525  0.37116877  0.48933175  1
  V  V66  1  0.75969970  0.12200404  0.36212412  1
  V  V67  1  -0.00291026  0.75460933  0.74666803  1
  V  V68  1  0.62006387  0.11377637  0.49386264  1
  V  V69  1  -0.00508357  0.62731057  0.62390427  1
  V  V70  1  0.50389941  0.87429241  0.36430133  1
  V  V71  1  0.12859022  0.49395333  0.12525101  1
  V  V72  1  0.62852792  0.49523771  0.11978680  1
  V  V73  1  0.62747731  0.13174517  0.00170644  1
  V  V74  1  0.49337970  0.37986756  0.37350829  1
  V  V75  1  0.85870438  0.00348125  0.87315662  1
  V  V76  1  0.30658324  0.31778515  0.17378742  1
  V  V77  1  0.25158879  0.75252458  0.50259255  1
  V  V78  1  0.00145218  0.49793926  -0.00507098  1
  V  V79  1  0.88195724  0.37271386  0.00302374  1
  V  V80  1  0.12589746  0.62551689  0.00165762  1
  V  V81  1  0.74525342  0.49632182  0.75189609  1
  V  V82  1  0.62358050  0.37203768  0.24822179  1
  V  V83  1  0.49950226  0.12885922  0.63462759  1
  V  V84  1  0.12515330  0.75267527  0.37684253  1
  Zn  Zn85  1  0.50459747  0.75212329  0.24431992  1
  Zn  Zn86  1  0.37348188  0.37860167  0.50005886  1
  Zn  Zn87  1  0.75634996  0.24274120  -0.00278808  1
  Zn  Zn88  1  0.67127904  0.21240482  0.83860283  1
  Zn  Zn89  1  0.48305917  0.24942510  0.24897042  1
  Zn  Zn90  1  0.37861230  0.62070149  0.25292758  1
  Zn  Zn91  1  0.74864688  0.50253664  0.25300816  1
  Zn  Zn92  1  0.50001623  0.00144559  0.49774272  1
  Zn  Zn93  1  0.12471491  0.25387373  0.88030702  1
  Zn  Zn94  1  0.75551143  0.74974652  0.49246184  1
  Zn  Zn95  1  0.37760652  0.49955414  0.87293351  1
  Zn  Zn96  1  0.68522471  0.95952077  0.69809899  1
  Zn  Zn97  1  0.24970582  0.24999818  0.00123743  1
  Zn  Zn98  1  0.12801643  -0.01177806  0.63140974  1
  Zn  Zn99  1  0.15379155  0.89930693  0.75274653  1
  Zn  Zn100  1  -0.00078166  0.12049156  0.63478484  1
  Zn  Zn101  1  0.61114017  0.34845898  0.73944761  1
  Zn  Zn102  1  0.55723939  0.80435827  0.70550211  1
  Zn  Zn103  1  -0.00543030  0.00594982  0.00286203  1
  Zn  Zn104  1  0.87043573  0.62790223  0.25769750  1
  Zn  Zn105  1  0.62984541  0.61873485  -0.00116400  1
  Zn  Zn106  1  0.74929877  0.62012739  0.87867271  1
  Zn  Zn107  1  0.17835618  0.18019196  0.19168196  1
  Zn  Zn108  1  0.18437167  0.18776284  0.68875237  1
  Zn  Zn109  1  0.18630530  0.68796207  0.19051413  1
  Zn  Zn110  1  0.20093230  0.73276165  0.70125563  1
  Zn  Zn111  1  0.68399915  0.18457152  0.18275428  1
  Zn  Zn112  1  0.69410991  0.15790973  0.67572853  1
  Zn  Zn113  1  0.69062528  0.68073858  0.18787669  1
  Zn  Zn114  1  0.72644224  0.79934013  0.66339316  1
  Zn  Zn115  1  0.30358060  0.31832577  0.33456835  1
  Zn  Zn116  1  0.30743308  0.31447054  0.81550105  1
  Zn  Zn117  1  0.31253931  0.81242234  0.31385613  1
  Zn  Zn118  1  0.32586284  0.81324991  0.81583012  1
  Zn  Zn119  1  0.81321555  0.30970231  0.30977297  1
  Zn  Zn120  1  0.81423556  0.31666037  0.81282758  1
  Zn  Zn121  1  0.81158452  0.81301732  0.30959647  1
  Zn  Zn122  1  0.80853622  0.81781382  0.81577230  1
  Zn  Zn123  1  0.18672441  0.43764473  0.43609634  1
  Zn  Zn124  1  0.19129859  0.43956546  0.93693167  1
  Zn  Zn125  1  0.20942436  0.95954788  0.48169649  1
  Zn  Zn126  1  0.18790652  0.94007517  0.93944612  1
  Zn  Zn127  1  0.68508954  0.43578726  0.43905709  1
  Zn  Zn128  1  0.69367285  0.40790044  0.92831691  1
  Zn  Zn129  1  0.69174431  0.93562044  0.42851901  1
  Zn  Zn130  1  0.68338218  0.93648806  0.94346026  1
  Zn  Zn131  1  0.30657153  0.06439215  0.06046270  1
  Zn  Zn132  1  0.31671830  0.06497960  0.57073223  1
  Zn  Zn133  1  0.31533224  0.55718009  0.06139336  1
  Zn  Zn134  1  0.31446872  0.56807190  0.56529136  1
  Zn  Zn135  1  0.80591122  0.05736243  0.06452075  1
  Zn  Zn136  1  0.80601720  0.05953359  0.56558497  1
  Zn  Zn137  1  0.81260218  0.56222061  0.06626425  1
  Zn  Zn138  1  0.78072477  0.60662235  0.59876628  1
  Zn  Zn139  1  0.44288883  0.44198479  0.18731569  1
  Zn  Zn140  1  0.43433098  0.43903345  0.68693889  1
  Zn  Zn141  1  0.43672684  0.93984139  0.18766166  1
  Zn  Zn142  1  0.48238917  0.95989966  0.70668954  1
  Zn  Zn143  1  0.93921021  0.43593039  0.18970405  1
  Zn  Zn144  1  0.93626909  0.43758892  0.68213527  1
  Zn  Zn145  1  0.93665454  0.93585724  0.18883102  1
  Zn  Zn146  1  0.93564467  0.94109966  0.68945807  1
  Zn  Zn147  1  0.06486072  0.05758905  0.32081926  1
  Zn  Zn148  1  0.05879384  0.06448483  0.81385069  1
  Zn  Zn149  1  0.06462883  0.56385937  0.31398314  1
  Zn  Zn150  1  0.06354928  0.56690076  0.81386439  1
  Zn  Zn151  1  0.55763565  0.06282848  0.30987178  1
  Zn  Zn152  1  0.56364192  0.06436315  0.81739962  1
  Zn  Zn153  1  0.56409742  0.56117326  0.30839257  1
  Zn  Zn154  1  0.56661676  0.56348070  0.81261182  1
  Zn  Zn155  1  0.43424360  0.18790943  0.43419943  1
  Zn  Zn156  1  0.43298916  0.18346548  0.93941105  1
  Zn  Zn157  1  0.44287165  0.68985759  0.43540468  1
  Zn  Zn158  1  0.43985008  0.68714909  0.94103301  1
  Zn  Zn159  1  0.93779610  0.18479700  0.43526857  1
  Zn  Zn160  1  0.94028323  0.18599032  0.94000081  1
  Zn  Zn161  1  0.93784827  0.68941247  0.43973552  1
  Zn  Zn162  1  0.93628236  0.68750072  0.93755191  1
  Zn  Zn163  1  0.06288772  0.30915646  0.06607307  1
  Zn  Zn164  1  0.06106420  0.31331588  0.56801820  1
  Zn  Zn165  1  0.05938961  0.81589788  0.06288423  1
  Zn  Zn166  1  0.05987958  0.81667995  0.56700711  1
  Zn  Zn167  1  0.55607744  0.31016532  0.06273810  1
  Zn  Zn168  1  0.56172283  0.30883641  0.55866556  1
  Zn  Zn169  1  0.56120403  0.81229708  0.05877869  1
  Zn  Zn170  1  0.57122116  0.81712300  0.54418720  1
  O  O171  1  0.13018629  0.11154322  0.11744740  1
  O  O172  1  0.11897351  0.13320085  0.61191654  1
  O  O173  1  0.11505299  0.62008641  0.12189719  1
  O  O174  1  0.11079386  0.61817048  0.61817816  1
  O  O175  1  0.61274583  0.11686992  0.11682265  1
  O  O176  1  0.60228292  0.14323634  0.60261249  1
  O  O177  1  0.61745160  0.61605131  0.11926253  1
  O  O178  1  0.61176685  0.61452905  0.61126888  1
  O  O179  1  0.38800650  0.37698138  0.37893026  1
  O  O180  1  0.38342746  0.37803492  0.87928553  1
  O  O181  1  0.38013399  0.88193031  0.37912502  1
  O  O182  1  0.37766113  0.88578409  0.88651876  1
  O  O183  1  0.87369332  0.37588384  0.38552162  1
  O  O184  1  0.88022595  0.38588294  0.88680964  1
  O  O185  1  0.88641998  0.87354392  0.37458590  1
  O  O186  1  0.87914676  0.88602235  0.88278083  1
  O  O187  1  0.26060739  0.00537122  0.38420103  1
  O  O188  1  0.26279589  0.00604930  0.87851337  1
  O  O189  1  0.24388084  0.50864334  0.36405358  1
  O  O190  1  0.25296022  0.51436786  0.86975883  1
  O  O191  1  0.74401331  0.01220593  0.35830741  1
  O  O192  1  0.76016088  -0.00369734  0.87931259  1
  O  O193  1  0.76484146  0.49114462  0.37441980  1
  O  O194  1  0.75839167  0.49207243  0.86884508  1
  O  O195  1  0.23499669  0.50893987  0.13164453  1
  O  O196  1  0.24293396  0.49981568  0.62947345  1
  O  O197  1  0.24158006  0.98705235  0.12267666  1
  O  O198  1  0.23472017  0.99686316  0.58789392  1
  O  O199  1  0.74510883  0.48809984  0.12547224  1
  O  O200  1  0.73935153  0.49946880  0.63141180  1
  O  O201  1  0.73355686  1.00442489  0.13614062  1
  O  O202  1  0.73022199  1.04942506  0.64552930  1
  O  O203  1  0.01017462  0.36562581  0.24969283  1
  O  O204  1  0.00867060  0.36963600  0.74331601  1
  O  O205  1  0.00596364  0.87112693  0.25826940  1
  O  O206  1  -0.01290434  0.86372367  0.76030956  1
  O  O207  1  0.50606076  0.37235130  0.25460234  1
  O  O208  1  0.49519258  0.37682701  0.76214969  1
  O  O209  1  0.49575929  0.87314536  0.26006751  1
  O  O210  1  0.48112542  0.86036461  0.77115222  1
  O  O211  1  0.49754461  0.12940048  0.23706564  1
  O  O212  1  0.50342011  0.12876106  0.73291874  1
  O  O213  1  0.49687205  0.62085545  0.23380115  1
  O  O214  1  0.49434372  0.61785252  0.73885790  1
  O  O215  1  1.00883358  0.13389581  0.25478616  1
  O  O216  1  0.98770376  0.13828284  0.75352290  1
  O  O217  1  0.99843979  0.63051919  0.24300733  1
  O  O218  1  0.99214409  0.62683371  0.74484816  1
  O  O219  1  0.37363111  0.26273679  -0.00079530  1
  O  O220  1  0.35946510  0.25368361  0.49824824  1
  O  O221  1  0.37011696  0.75486147  0.01223198  1
  O  O222  1  0.37275402  0.75694555  0.50291003  1
  O  O223  1  0.87892204  0.25619324  0.01094994  1
  O  O224  1  0.87445761  0.25419603  0.50533524  1
  O  O225  1  0.86701353  0.75540028  0.00505055  1
  O  O226  1  0.87641340  0.76881135  0.49318379  1
  O  O227  1  0.12913604  0.24844398  0.49533033  1
  O  O228  1  0.12717752  0.24312169  0.99949269  1
  O  O229  1  0.13334347  0.74574899  0.49815576  1
  O  O230  1  0.12876568  0.74576355  0.99581384  1
  O  O231  1  0.62966789  0.24723126  0.48351985  1
  O  O232  1  0.62483017  0.23486285  1.00924796  1
  O  O233  1  0.62611219  0.73737534  0.48246412  1
  O  O234  1  0.63920332  0.74907849  1.00135511  1
  O  O235  1  0.49668622  0.23705298  0.12899334  1
  O  O236  1  0.48221770  0.24691853  0.61655935  1
  O  O237  1  0.49318041  0.74084497  0.12304673  1
  O  O238  1  0.49778083  0.74219347  0.62118942  1
  O  O239  1  0.98811463  0.24948519  0.13417274  1
  O  O240  1  0.98749940  0.25026896  0.63243780  1
  O  O241  1  0.99374980  0.74293237  0.12943336  1
  O  O242  1  0.99778292  0.73879089  0.63501604  1
  O  O243  1  0.01015592  0.24750086  0.36976978  1
  O  O244  1  0.00092380  0.25322396  0.86545076  1
  O  O245  1  0.00612117  0.75535370  0.37006796  1
  O  O246  1  0.00206221  0.76046755  0.87259981  1
  O  O247  1  0.50453308  0.25723928  0.36815956  1
  O  O248  1  0.49466392  0.25692132  0.87337554  1
  O  O249  1  0.50726584  0.75727564  0.36719638  1
  O  O250  1  0.51322766  0.75908882  0.89092736  1
  O  O251  1  0.24018340  0.13484505  0.49397062  1
  O  O252  1  0.23942722  0.12686734  0.99224937  1
  O  O253  1  0.24611434  0.62936742  0.49224725  1
  O  O254  1  0.24581905  0.62734686  0.99510571  1
  O  O255  1  0.74083424  0.12914035  0.48433430  1
  O  O256  1  0.73231682  0.12520964  1.00542778  1
  O  O257  1  0.73224564  0.60941843  0.48982813  1
  O  O258  1  0.75198642  0.63341866  0.99870630  1
  O  O259  1  0.26086115  0.37315376  -0.00385800  1
  O  O260  1  0.24833383  0.36827235  0.50717875  1
  O  O261  1  0.25338292  0.86857798  0.01013844  1
  O  O262  1  0.26232883  0.85729385  0.48930970  1
  O  O263  1  0.76591834  0.37627102  0.01527158  1
  O  O264  1  0.75676341  0.36624818  0.50264223  1
  O  O265  1  0.76185588  0.86715488  -0.00131830  1
  O  O266  1  0.76455619  0.87715875  0.49622324  1
  O  O267  1  0.13105377  0.49149563  0.24517159  1
  O  O268  1  0.12788144  0.49695169  0.74576375  1
  O  O269  1  0.12174905  0.98845448  0.24482358  1
  O  O270  1  0.12286375  1.00556852  0.74521042  1
  O  O271  1  0.62463599  0.48557826  0.24129044  1
  O  O272  1  0.63291271  0.49792229  0.74260954  1
  O  O273  1  0.62712983  1.00316425  0.23804647  1
  O  O274  1  0.58719701  0.97964057  0.75136237  1
  O  O275  1  0.36806583  -0.00582199  0.26378723  1
  O  O276  1  0.38059870  -0.00454755  0.76389503  1
  O  O277  1  0.35833035  0.49988493  0.24089896  1
  O  O278  1  0.36610893  0.51347469  0.74851585  1
  O  O279  1  0.85793199  0.00204336  0.23752741  1
  O  O280  1  0.87667906  0.01019591  0.76487542  1
  O  O281  1  0.88244987  0.49487946  0.27058763  1
  O  O282  1  0.87430033  0.50106219  0.76021111  1
  O  O283  1  0.13313200  0.36435153  0.36406457  1
  O  O284  1  0.13036343  0.37647703  0.86190952  1
  O  O285  1  0.11552027  0.86829479  0.36801734  1
  O  O286  1  0.11635641  0.87115744  0.87510672  1
  O  O287  1  0.61730127  0.36832682  0.36663765  1
  O  O288  1  0.60396446  0.37361948  0.86503760  1
  O  O289  1  0.61733843  0.85965326  0.37902997  1
  O  O290  1  0.61544006  0.86556603  0.88393853  1
  O  O291  1  0.38740711  0.11888832  0.12208040  1
  O  O292  1  0.38290864  0.14252110  0.61870247  1
  O  O293  1  0.38133126  0.63145507  0.12416391  1
  O  O294  1  0.38866597  0.63150793  0.62952904  1
  O  O295  1  0.87312404  0.13655420  0.11743623  1
  O  O296  1  0.87623392  0.13418731  0.63789206  1
  O  O297  1  0.88885793  0.63129995  0.12292804  1
  O  O298  1  0.88850089  0.61180694  0.64040816  1
  O  O299  1  0.24786391  0.25020968  0.12550067  1
  O  O300  1  0.25775993  0.25335271  0.61968135  1
  O  O301  1  0.25536427  0.75472491  0.12254387  1
  O  O302  1  0.26757709  0.73403375  0.60886036  1
  O  O303  1  0.76243914  0.25445938  0.12452730  1
  O  O304  1  0.76412663  0.25156063  0.61341211  1
  O  O305  1  0.76302409  0.74525250  0.11941747  1
  O  O306  1  0.75266204  0.71645977  0.60108295  1
  O  O307  1  0.23750720  0.24233671  0.38492605  1
  O  O308  1  0.24843432  0.23688835  0.87687232  1
  O  O309  1  0.24496842  0.74089907  0.38134410  1
  O  O310  1  0.24945271  0.73931807  0.88775268  1
  O  O311  1  0.74186237  0.24096198  0.37423614  1
  O  O312  1  0.74027613  0.28496409  0.89145055  1
  O  O313  1  0.73763666  0.75138407  0.37393203  1
  O  O314  1  0.74389264  0.74792546  0.88564739  1
  O  O315  1  0.01788277  0.12180945  -0.00692081  1
  O  O316  1  0.00276611  0.11827657  0.50152706  1
  O  O317  1  0.00610731  0.61875300  0.00748381  1
  O  O318  1  0.00220996  0.61915985  0.50772496  1
  O  O319  1  0.50346445  0.11933518  0.00984264  1
  O  O320  1  0.50761860  0.12444195  0.49263449  1
  O  O321  1  0.50036920  0.61351439  0.00935590  1
  O  O322  1  0.50413149  0.61779188  0.50388670  1
  O  O323  1  0.50006567  0.38272573  0.49004906  1
  O  O324  1  0.49408748  0.37698680  0.98816354  1
  O  O325  1  0.49320307  0.87762068  0.48452589  1
  O  O326  1  0.49271439  0.88343049  0.99491075  1
  O  O327  1  0.99269058  0.38309600  0.50455563  1
  O  O328  1  0.99030876  0.38406834  1.01052668  1
  O  O329  1  0.98948801  0.88199193  0.49489828  1
  O  O330  1  0.98735416  0.87469754  0.99190365  1
  O  O331  1  0.50517377  0.49202358  0.38133544  1
  O  O332  1  0.49839109  0.50028693  0.88566447  1
  O  O333  1  0.48719189  0.99445908  0.37321810  1
  O  O334  1  0.48691612  0.99545467  0.88677711  1
  O  O335  1  0.99757580  0.50269573  0.38715360  1
  O  O336  1  0.99723030  0.50480547  0.88964116  1
  O  O337  1  0.99857318  0.99086020  0.38596076  1
  O  O338  1  0.99331985  0.98812123  0.87855865  1
  O  O339  1  0.01192041  -0.00783524  0.12212336  1
  O  O340  1  0.00005562  0.00327435  0.61559992  1
  O  O341  1  0.00747595  0.50723479  0.11976766  1
  O  O342  1  0.00449523  0.50446850  0.61344736  1
  O  O343  1  0.50516118  0.00778790  0.12242457  1
  O  O344  1  0.48722829  0.02525905  0.61364881  1
  O  O345  1  0.50711439  0.50259729  0.11329990  1
  O  O346  1  0.50468063  0.50329388  0.61756769  1
  O  O347  1  0.24616594  0.37633953  0.24237307  1
  O  O348  1  0.24301129  0.38509575  0.74471333  1
  O  O349  1  0.23904952  0.86702059  0.24280014  1
  O  O350  1  0.23851664  0.82898647  0.75289391  1
  O  O351  1  0.74379132  0.37631240  0.24100274  1
  O  O352  1  0.75517605  0.38681487  0.73814522  1
  O  O353  1  0.74914968  0.89094939  0.25402133  1
  O  O354  1  0.75428308  0.87496242  0.73812389  1
  O  O355  1  0.24126801  0.12636163  0.26904838  1
  O  O356  1  0.24752887  0.12709087  0.76238651  1
  O  O357  1  0.24837661  0.61643483  0.25848930  1
  O  O358  1  0.25661192  0.62810376  0.75925575  1
  O  O359  1  0.74373724  0.12083444  0.25886996  1
  O  O360  1  0.76663924  0.14775936  0.77518957  1
  O  O361  1  0.76003597  0.61383133  0.24188425  1
  O  O362  1  0.76429474  0.60653343  0.75532608  1
  O  O363  1  0.36615542  0.11055555  0.37879748  1
  O  O364  1  0.36410636  0.11098426  0.88019107  1
  O  O365  1  0.36303265  0.62945915  0.37259287  1
  O  O366  1  0.37130116  0.62664934  0.86747070  1
  O  O367  1  0.85768026  0.12998125  0.37357703  1
  O  O368  1  0.88021952  0.10922681  0.87650449  1
  O  O369  1  0.87847403  0.61006247  0.37840824  1
  O  O370  1  0.87588129  0.61010486  0.87193503  1
  O  O371  1  0.12165140  0.38438826  0.13458412  1
  O  O372  1  0.13051776  0.38224589  0.63437727  1
  O  O373  1  0.13058799  0.87873842  0.13347225  1
  O  O374  1  0.11836975  0.87071896  0.64203253  1
  O  O375  1  0.63203470  0.37290275  0.13026772  1
  O  O376  1  0.63015630  0.37933608  0.62349935  1
  O  O377  1  0.61642881  0.89286537  0.12038878  1
  O  O378  1  0.62635581  0.85999300  0.63225927  1
  O  O379  1  0.11744156  0.25544920  0.25725400  1
  O  O380  1  0.11547886  0.26000879  0.75109021  1
  O  O381  1  0.11845658  0.75861045  0.25458147  1
  O  O382  1  0.10320694  0.73473007  0.76330951  1
  O  O383  1  0.62515515  0.25916130  0.25632275  1
  O  O384  1  0.63901336  0.23948548  0.73653108  1
  O  O385  1  0.62367449  0.74474765  0.25878696  1
  O  O386  1  0.63080877  0.74133784  0.76639610  1
  O  O387  1  0.36166927  0.26664047  0.24269776  1
  O  O388  1  0.36926784  0.25359931  0.73692624  1
  O  O389  1  0.37555975  0.74617506  0.23772363  1
  O  O390  1  0.37682245  0.73658648  0.73965828  1
  O  O391  1  0.88307653  0.25098325  0.23815643  1
  O  O392  1  0.88149748  0.25181667  0.74432216  1
  O  O393  1  0.88171007  0.74960021  0.24192527  1
  O  O394  1  0.88306288  0.73370440  0.76363913  1
  O  O395  1  0.38790134  0.49965053  0.50609201  1
  O  O396  1  0.38450026  0.48724224  0.99916783  1
  O  O397  1  0.37594444  0.98564218  0.49279907  1
  O  O398  1  0.38421305  0.99535800  1.00327601  1
  O  O399  1  0.88356599  0.48939701  0.48686435  1
  O  O400  1  0.88334684  0.49405939  0.99674076  1
  O  O401  1  0.87982600  0.99076251  0.50622155  1
  O  O402  1  0.87366953  0.99372216  0.99464887  1
  O  O403  1  0.12309876  0.00457407  0.01000390  1
  O  O404  1  0.10615041  0.01121512  0.49747370  1
  O  O405  1  0.11957383  0.50250596  0.00750716  1
  O  O406  1  0.11833306  0.50496886  0.50328063  1
  O  O407  1  0.61324970  0.00767567  0.00853158  1
  O  O408  1  0.62402448  0.01051959  0.48988600  1
  O  O409  1  0.61891701  0.49097990  0.00302889  1
  O  O410  1  0.61314896  0.50241214  0.50325824  1
  O  O411  1  0.37236052  0.37541616  0.11827934  1
  O  O412  1  0.36772432  0.36541620  0.62225365  1
  O  O413  1  0.36698071  0.86865378  0.12372925  1
  O  O414  1  0.38568773  0.86225549  0.61510036  1
  O  O415  1  0.87050181  0.36908320  0.12238549  1
  O  O416  1  0.86897166  0.36967189  0.61279582  1
  O  O417  1  0.88221065  0.86316199  0.11586420  1
  O  O418  1  0.87555330  0.87324141  0.61514349  1
  O  O419  1  0.12878654  0.13146705  0.38817391  1
  O  O420  1  0.13651904  0.12487691  0.88179172  1
  O  O421  1  0.13238602  0.63199694  0.38242300  1
  O  O422  1  0.13390548  0.63069806  0.88336422  1
  O  O423  1  0.62728299  0.13285163  0.37599641  1
  O  O424  1  0.61725245  0.12591327  0.89455903  1
  O  O425  1  0.61634795  0.63679960  0.37723819  1
  O  O426  1  0.62807395  0.63223919  0.88191236  1
