# generated using pymatgen
data_V85Zn86O256
_symmetry_space_group_name_H-M   'P 1'
_cell_length_a   16.95629763
_cell_length_b   16.96642369
_cell_length_c   16.97957313
_cell_angle_alpha   89.95029662
_cell_angle_beta   90.04354267
_cell_angle_gamma   89.99434746
_symmetry_Int_Tables_number   1
_chemical_formula_structural   V85Zn86O256
_chemical_formula_sum   'V85 Zn86 O256'
_cell_volume   4884.81157523
_cell_formula_units_Z   1
loop_
 _symmetry_equiv_pos_site_id
 _symmetry_equiv_pos_as_xyz
  1  'x, y, z'
loop_
 _atom_site_type_symbol
 _atom_site_label
 _atom_site_symmetry_multiplicity
 _atom_site_fract_x
 _atom_site_fract_y
 _atom_site_fract_z
 _atom_site_occupancy
  V  V0  1  0.75031787  0.12508166  0.37603340  1
  V  V1  1  0.13042240  0.50213509  0.12492877  1
  V  V2  1  0.50435662  0.48738510  -0.00048381  1
  V  V3  1  0.12748437  0.62558301  -0.01609580  1
  V  V4  1  0.38345207  0.49378502  0.87409501  1
  V  V5  1  0.25029101  -0.00114052  0.25282144  1
  V  V6  1  0.37119238  0.62648107  0.74630881  1
  V  V7  1  0.37242884  0.62527621  0.24884603  1
  V  V8  1  0.25134754  0.75287669  0.50857762  1
  V  V9  1  0.87435707  0.37201874  0.49879411  1
  V  V10  1  -0.01189818  0.48977861  -0.00266867  1
  V  V11  1  -0.00292399  0.62743169  0.12070879  1
  V  V12  1  0.25744601  0.12990518  0.87613581  1
  V  V13  1  0.12358160  0.26108508  0.86374433  1
  V  V14  1  0.61378610  0.24827362  0.37452613  1
  V  V15  1  0.24801783  0.24875751  0.50213774  1
  V  V16  1  0.74936003  0.37283383  0.62503453  1
  V  V17  1  0.49945341  0.50502847  0.49738615  1
  V  V18  1  0.50409310  0.13490024  0.13027941  1
  V  V19  1  -0.00161557  0.37553137  0.37436924  1
  V  V20  1  0.12491697  -0.00933500  0.63289118  1
  V  V21  1  0.37462444  0.87783465  0.00088962  1
  V  V22  1  0.63043209  -0.00121767  0.12554134  1
  V  V23  1  0.24649693  0.37362134  0.63284582  1
  V  V24  1  -0.00305326  0.12673308  0.64023652  1
  V  V25  1  0.37317286  0.37732920  0.49781779  1
  V  V26  1  -0.00035751  0.25144104  0.24843459  1
  V  V27  1  -0.00275264  0.62413616  0.62611630  1
  V  V28  1  0.24766313  0.50028577  0.76026021  1
  V  V29  1  0.01420341  0.87348010  0.87253422  1
  V  V30  1  0.13128402  0.38122717  0.24983272  1
  V  V31  1  0.50573077  0.00599490  0.00354009  1
  V  V32  1  0.62010056  0.37286052  0.75600700  1
  V  V33  1  0.75542226  0.00254040  0.74744108  1
  V  V34  1  -0.00304507  -0.00794971  0.50315711  1
  V  V35  1  0.12360078  0.24978524  0.37526032  1
  V  V36  1  0.37297546  0.50338195  0.36896845  1
  V  V37  1  0.50218828  0.87837958  0.87532160  1
  V  V38  1  0.63344342  0.62802708  0.50103628  1
  V  V39  1  0.12191919  0.12216939  0.50340957  1
  V  V40  1  0.24920412  0.12006524  0.37729160  1
  V  V41  1  -0.00009179  0.12902997  0.12397270  1
  V  V42  1  0.75120637  0.63324035  0.37617493  1
  V  V43  1  0.87564448  -0.00657041  0.37892231  1
  V  V44  1  0.61418045  0.62676015  -0.00113724  1
  V  V45  1  0.12129762  0.87363523  0.24994710  1
  V  V46  1  0.00963583  0.75242056  0.75434596  1
  V  V47  1  0.88059178  0.00608053  0.86813028  1
  V  V48  1  0.37477901  0.75118530  0.12468149  1
  V  V49  1  0.37926330  0.12913596  0.25316592  1
  V  V50  1  0.63674550  0.50393939  0.13467675  1
  V  V51  1  0.74891902  0.24819842  0.50083612  1
  V  V52  1  0.75674275  0.87359300  0.61337393  1
  V  V53  1  0.50737612  0.75666424  0.25230018  1
  V  V54  1  0.87473881  0.12694220  0.25015848  1
  V  V55  1  0.86934207  0.62114182  0.24399917  1
  V  V56  1  0.49629127  0.74988838  0.74617467  1
  V  V57  1  0.62529229  0.49884782  0.62566632  1
  V  V58  1  0.61691913  -0.00335002  0.62404743  1
  V  V59  1  0.12542734  0.00203477  0.12565137  1
  V  V60  1  0.50108476  0.25169372  0.75609682  1
  V  V61  1  0.62960023  0.36664514  0.24777462  1
  V  V62  1  0.25511821  0.25622272  0.00631254  1
  V  V63  1  0.86651815  0.49634199  0.36881647  1
  V  V64  1  -0.01343269  0.37294091  0.86473024  1
  V  V65  1  0.12183723  0.74788334  0.37278450  1
  V  V66  1  0.24883601  0.87440417  0.12463970  1
  V  V67  1  0.38640184  -0.01318621  0.38234760  1
  V  V68  1  0.87828169  0.24589853  0.63629451  1
  V  V69  1  0.12232055  0.62173158  0.49945983  1
  V  V70  1  0.87317643  0.75209214  0.61498148  1
  V  V71  1  -0.00840036  0.75148747  0.24458632  1
  V  V72  1  -0.00028358  0.00010409  -0.00063139  1
  V  V73  1  0.74154985  0.12323156  0.88303144  1
  V  V74  1  0.12651950  0.13161024  0.00021969  1
  V  V75  1  0.37796127  0.24723736  0.62191685  1
  V  V76  1  0.24940531  -0.00544740  0.75464554  1
  V  V77  1  0.62451580  0.75078945  0.87641017  1
  V  V78  1  0.61698610  0.11851449  0.50085810  1
  V  V79  1  0.24939791  0.62192393  0.37121493  1
  V  V80  1  0.75907128  0.75210268  0.00254421  1
  V  V81  1  0.86120230  0.26012943  0.11247932  1
  V  V82  1  0.75225468  0.62008950  0.87470831  1
  V  V83  1  0.87312213  0.62338201  0.75221916  1
  V  V84  1  0.12285573  0.49398589  0.63011500  1
  Zn  Zn85  1  -0.00468036  0.87042702  0.37975795  1
  Zn  Zn86  1  0.49607320  0.11830779  0.62316784  1
  Zn  Zn87  1  0.37801772  0.37642773  0.00472268  1
  Zn  Zn88  1  0.49782286  0.37390004  0.37177121  1
  Zn  Zn89  1  0.75810691  0.86875789  0.12911881  1
  Zn  Zn90  1  0.63009640  0.87400804  0.74998088  1
  Zn  Zn91  1  0.87923198  0.87253105  -0.00009613  1
  Zn  Zn92  1  0.40098400  0.87770478  0.51988915  1
  Zn  Zn93  1  0.37872529  0.00721265  0.87738497  1
  Zn  Zn94  1  0.37513356  0.12564668  0.74770176  1
  Zn  Zn95  1  0.25197139  0.86661475  0.63652352  1
  Zn  Zn96  1  0.65879380  0.27024103  0.92116724  1
  Zn  Zn97  1  0.49664771  0.62934918  0.62360467  1
  Zn  Zn98  1  0.25781150  0.38324071  0.13090116  1
  Zn  Zn99  1  0.49781651  0.62484034  0.12331768  1
  Zn  Zn100  1  0.75318267  0.49557485  0.75439608  1
  Zn  Zn101  1  0.75151783  -0.00323077  0.25030554  1
  Zn  Zn102  1  -0.00187643  0.49726042  0.49997826  1
  Zn  Zn103  1  0.23467805  0.75303147  -0.01454296  1
  Zn  Zn104  1  0.62250047  0.76049851  0.39022384  1
  Zn  Zn105  1  0.62890988  0.87705866  0.25764380  1
  Zn  Zn106  1  0.38138089  0.25887351  0.13383461  1
  Zn  Zn107  1  0.19028677  0.18930809  0.18918463  1
  Zn  Zn108  1  0.18741123  0.18253879  0.68903890  1
  Zn  Zn109  1  0.18623992  0.68748624  0.18320391  1
  Zn  Zn110  1  0.18554386  0.67917580  0.68931931  1
  Zn  Zn111  1  0.68671745  0.18339085  0.18659167  1
  Zn  Zn112  1  0.68781120  0.18358490  0.69032441  1
  Zn  Zn113  1  0.68935833  0.68498499  0.18466654  1
  Zn  Zn114  1  0.68775979  0.68997057  0.68803079  1
  Zn  Zn115  1  0.31090050  0.31191667  0.31504103  1
  Zn  Zn116  1  0.31633323  0.31276431  0.81397001  1
  Zn  Zn117  1  0.31006536  0.80880790  0.31347755  1
  Zn  Zn118  1  0.31352584  0.81320891  0.81369403  1
  Zn  Zn119  1  0.80629517  0.31112470  0.30619230  1
  Zn  Zn120  1  0.81000228  0.30973311  0.81154113  1
  Zn  Zn121  1  0.81047117  0.81293465  0.31092554  1
  Zn  Zn122  1  0.81918070  0.81592567  0.81097359  1
  Zn  Zn123  1  0.18773057  0.43838223  0.43947116  1
  Zn  Zn124  1  0.18458741  0.43736015  0.94104292  1
  Zn  Zn125  1  0.18485737  0.93475820  0.43762485  1
  Zn  Zn126  1  0.18836120  0.94137705  0.93852204  1
  Zn  Zn127  1  0.68790947  0.43785222  0.43363880  1
  Zn  Zn128  1  0.69512137  0.44102645  0.94432703  1
  Zn  Zn129  1  0.68631219  0.93722411  0.43705520  1
  Zn  Zn130  1  0.68854956  0.94128141  0.93829642  1
  Zn  Zn131  1  0.31603822  0.06645271  0.06469940  1
  Zn  Zn132  1  0.31221430  0.05407942  0.56389396  1
  Zn  Zn133  1  0.31183764  0.56342565  0.05754106  1
  Zn  Zn134  1  0.31043475  0.56354980  0.56407500  1
  Zn  Zn135  1  0.81612036  0.06507728  0.06095618  1
  Zn  Zn136  1  0.81216249  0.06233054  0.56341181  1
  Zn  Zn137  1  0.81160150  0.56630827  0.05888417  1
  Zn  Zn138  1  0.81330891  0.55878194  0.56266721  1
  Zn  Zn139  1  0.44858957  0.43749460  0.18728178  1
  Zn  Zn140  1  0.43589912  0.43714209  0.68440480  1
  Zn  Zn141  1  0.43862018  0.94089878  0.19085506  1
  Zn  Zn142  1  0.43185496  0.93592967  0.69373967  1
  Zn  Zn143  1  0.93864460  0.43735469  0.18428515  1
  Zn  Zn144  1  0.93435466  0.43722038  0.68835443  1
  Zn  Zn145  1  0.93296851  0.93715107  0.18510889  1
  Zn  Zn146  1  0.93844383  0.93466705  0.68872081  1
  Zn  Zn147  1  0.06032405  0.06109241  0.31415494  1
  Zn  Zn148  1  0.06894941  0.06675039  0.81602179  1
  Zn  Zn149  1  0.05591094  0.56071154  0.31029301  1
  Zn  Zn150  1  0.05647325  0.55477044  0.81129750  1
  Zn  Zn151  1  0.56222646  0.05772964  0.31121352  1
  Zn  Zn152  1  0.56336949  0.06338477  0.80701691  1
  Zn  Zn153  1  0.55985079  0.56974087  0.31232967  1
  Zn  Zn154  1  0.56021686  0.56282680  0.81280238  1
  Zn  Zn155  1  0.43478699  0.18167970  0.43803716  1
  Zn  Zn156  1  0.46868060  0.21176644  0.96046798  1
  Zn  Zn157  1  0.45248691  0.71404328  0.45283029  1
  Zn  Zn158  1  0.40453029  0.70028206  0.91878121  1
  Zn  Zn159  1  0.93795421  0.18556677  0.44174097  1
  Zn  Zn160  1  0.93546210  0.18927461  0.93307928  1
  Zn  Zn161  1  0.93704468  0.68464836  0.43437860  1
  Zn  Zn162  1  0.94028907  0.68359517  0.93331527  1
  Zn  Zn163  1  0.06268660  0.31414032  0.06267626  1
  Zn  Zn164  1  0.05998548  0.31105914  0.56529039  1
  Zn  Zn165  1  0.06051575  0.81058365  0.06128647  1
  Zn  Zn166  1  0.06397259  0.80970974  0.56538101  1
  Zn  Zn167  1  0.60075001  0.31899862  0.05588117  1
  Zn  Zn168  1  0.56014610  0.31461457  0.55950863  1
  Zn  Zn169  1  0.56279378  0.81559994  0.06548946  1
  Zn  Zn170  1  0.56999805  0.81327360  0.56282218  1
  O  O171  1  0.12045746  0.12163713  0.12056814  1
  O  O172  1  0.11746392  0.11938189  0.61858584  1
  O  O173  1  0.11222357  0.61754398  0.12417554  1
  O  O174  1  0.11728512  0.61539039  0.61657077  1
  O  O175  1  0.61493538  0.11292473  0.13210300  1
  O  O176  1  0.62538921  0.11460135  0.61662162  1
  O  O177  1  0.62377970  0.61790497  0.11624147  1
  O  O178  1  0.62935235  0.61146747  0.62027039  1
  O  O179  1  0.37343630  0.38553977  0.37887556  1
  O  O180  1  0.37223151  0.38904754  0.87835938  1
  O  O181  1  0.36919405  0.88679944  0.37263491  1
  O  O182  1  0.38876994  0.88127271  0.88537101  1
  O  O183  1  0.87650334  0.37846316  0.37676719  1
  O  O184  1  0.88698783  0.36676563  0.87422661  1
  O  O185  1  0.87580669  0.89010250  0.37155359  1
  O  O186  1  0.88649875  0.88773633  0.87942047  1
  O  O187  1  0.25151500  0.00435285  0.37084966  1
  O  O188  1  0.24923425  0.01258034  0.87170570  1
  O  O189  1  0.25646278  0.51372122  0.38110692  1
  O  O190  1  0.25272852  0.49302639  0.86303361  1
  O  O191  1  0.75878524  0.01219584  0.37734126  1
  O  O192  1  0.76038992  0.00343988  0.86811354  1
  O  O193  1  0.76262894  0.50646295  0.37588045  1
  O  O194  1  0.74352481  0.51497678  0.87440955  1
  O  O195  1  0.23456726  0.50212251  0.12119461  1
  O  O196  1  0.24212149  0.49104642  0.63062634  1
  O  O197  1  0.24419116  0.99568353  0.13144430  1
  O  O198  1  0.23926877  1.00317218  0.63754715  1
  O  O199  1  0.73485895  0.50411727  0.11767374  1
  O  O200  1  0.74176996  0.49051930  0.62622983  1
  O  O201  1  0.73726678  1.00722236  0.12336514  1
  O  O202  1  0.74838098  0.99066691  0.63034507  1
  O  O203  1  0.00852356  0.36936527  0.25638443  1
  O  O204  1  -0.00138322  0.38163638  0.76579546  1
  O  O205  1  0.00350064  0.86699619  0.24962479  1
  O  O206  1  -0.00133371  0.86067536  0.75576563  1
  O  O207  1  0.52203937  0.38679555  0.26017627  1
  O  O208  1  0.50647310  0.36188420  0.73717310  1
  O  O209  1  0.49982802  0.85934470  0.24668408  1
  O  O210  1  0.50246055  0.86960553  0.76129088  1
  O  O211  1  0.48962671  0.11744544  0.24368288  1
  O  O212  1  0.49815776  0.13709580  0.74326615  1
  O  O213  1  0.48558491  0.63205564  0.24464251  1
  O  O214  1  0.49423571  0.63293945  0.74775469  1
  O  O215  1  0.99442275  0.13136843  0.24610080  1
  O  O216  1  1.00370434  0.12232745  0.73907606  1
  O  O217  1  0.99117162  0.63095029  0.24105686  1
  O  O218  1  0.99232980  0.63178471  0.74780556  1
  O  O219  1  0.36836246  0.25454219  0.00447112  1
  O  O220  1  0.36734626  0.25383430  0.50351286  1
  O  O221  1  0.38981083  0.76573828  0.01745694  1
  O  O222  1  0.34978783  0.73758430  0.50115550  1
  O  O223  1  0.87825887  0.24575266  0.01462373  1
  O  O224  1  0.86795969  0.25649800  0.50307195  1
  O  O225  1  0.86126513  0.74715955  -0.00695951  1
  O  O226  1  0.88428828  0.74518978  0.51575980  1
  O  O227  1  0.12845370  0.24168162  0.49591001  1
  O  O228  1  0.13522130  0.24714769  0.99678475  1
  O  O229  1  0.12646532  0.73960149  0.49263790  1
  O  O230  1  0.12025214  0.73203155  1.00082771  1
  O  O231  1  0.63002302  0.24361047  0.49306385  1
  O  O232  1  0.57740155  0.23310541  0.98815626  1
  O  O233  1  0.63291189  0.73105068  0.50594368  1
  O  O234  1  0.62810396  0.74616020  0.99119684  1
  O  O235  1  0.50007948  0.23554985  0.12982301  1
  O  O236  1  0.48593086  0.25007962  0.62345139  1
  O  O237  1  0.49311064  0.74701160  0.13437596  1
  O  O238  1  0.51483089  0.74867161  0.64488592  1
  O  O239  1  0.99721888  0.24469116  0.13236944  1
  O  O240  1  0.99129693  0.23847212  0.61952514  1
  O  O241  1  1.00258659  0.73973053  0.13244808  1
  O  O242  1  0.99501338  0.74483197  0.63508236  1
  O  O243  1  0.00505870  0.25456193  0.36994645  1
  O  O244  1  0.01220943  0.26228915  0.88092330  1
  O  O245  1  0.00504165  0.74975364  0.36619956  1
  O  O246  1  -0.00502450  0.75789955  0.86238940  1
  O  O247  1  0.51091367  0.24780506  0.37905263  1
  O  O248  1  0.48822048  0.25351241  0.85307020  1
  O  O249  1  0.50757899  0.73425787  0.35322237  1
  O  O250  1  0.50456390  0.75855814  0.86969551  1
  O  O251  1  0.23826228  0.12657483  0.49849765  1
  O  O252  1  0.24526149  0.13286022  0.99574427  1
  O  O253  1  0.23660921  0.62910252  0.49562508  1
  O  O254  1  0.22963268  0.62381458  1.00292740  1
  O  O255  1  0.74132599  0.12977504  0.49402718  1
  O  O256  1  0.75323405  0.11930717  0.98213820  1
  O  O257  1  0.74460243  0.61418723  0.48892010  1
  O  O258  1  0.74131739  0.63544913  0.99230734  1
  O  O259  1  0.25137978  0.36808656  0.00593681  1
  O  O260  1  0.25415729  0.36886288  0.50806139  1
  O  O261  1  0.25780362  0.87403439  0.00479858  1
  O  O262  1  0.24223462  0.85627033  0.49904159  1
  O  O263  1  0.70018538  0.34689540  -0.00287955  1
  O  O264  1  0.75451148  0.36827191  0.50432392  1
  O  O265  1  0.74983828  0.85903987  -0.00542978  1
  O  O266  1  0.75495790  0.88099624  0.51531386  1
  O  O267  1  0.11623702  0.49179041  0.23993889  1
  O  O268  1  0.13204697  0.50516064  0.73801414  1
  O  O269  1  0.12965464  0.99498348  0.24590975  1
  O  O270  1  0.13393061  1.00624470  0.74305676  1
  O  O271  1  0.62474442  0.50760037  0.23705943  1
  O  O272  1  0.62290703  0.49246054  0.73982362  1
  O  O273  1  0.62776311  0.99785342  0.23892647  1
  O  O274  1  0.63398816  0.99594681  0.73971465  1
  O  O275  1  0.36740088  0.00604134  0.25988195  1
  O  O276  1  0.36617360  0.00781955  0.75821250  1
  O  O277  1  0.38079003  0.50849255  0.26231138  1
  O  O278  1  0.36777044  0.50062651  0.75394078  1
  O  O279  1  0.87895139  0.01388839  0.25952480  1
  O  O280  1  0.87007839  -0.00363839  0.75684529  1
  O  O281  1  0.88236169  0.50906824  0.25681987  1
  O  O282  1  0.87116029  0.51721765  0.74181640  1
  O  O283  1  0.11976575  0.37201461  0.37003220  1
  O  O284  1  0.11983484  0.36393153  0.87797396  1
  O  O285  1  0.12055568  0.86722824  0.36632110  1
  O  O286  1  0.11401232  0.87733034  0.87909173  1
  O  O287  1  0.62332978  0.36315188  0.37226134  1
  O  O288  1  0.62700115  0.37581461  0.85600522  1
  O  O289  1  0.63068706  0.87015133  0.37161335  1
  O  O290  1  0.61574928  0.86961263  0.87701745  1
  O  O291  1  0.38243068  0.12418044  0.13884976  1
  O  O292  1  0.37492343  0.13296309  0.62232969  1
  O  O293  1  0.37162808  0.63411623  0.13068748  1
  O  O294  1  0.37897879  0.61578579  0.63924433  1
  O  O295  1  0.88167270  0.13034682  0.13428621  1
  O  O296  1  0.88548836  0.13361016  0.61783886  1
  O  O297  1  0.88633085  0.61909879  0.13063491  1
  O  O298  1  0.87957442  0.63085487  0.62891928  1
  O  O299  1  0.25282041  0.25137120  0.11563257  1
  O  O300  1  0.25626803  0.25474166  0.62215441  1
  O  O301  1  0.25759183  0.75770287  0.12026682  1
  O  O302  1  0.23513264  0.74942898  0.61254057  1
  O  O303  1  0.76282766  0.24428453  0.12937261  1
  O  O304  1  0.75556541  0.25295326  0.61957552  1
  O  O305  1  0.74518141  0.74845787  0.10554129  1
  O  O306  1  0.75752323  0.76466335  0.63055924  1
  O  O307  1  0.24282940  0.24178085  0.38329167  1
  O  O308  1  0.24199284  0.24902800  0.88311635  1
  O  O309  1  0.24132609  0.73825746  0.38178869  1
  O  O310  1  0.29600131  0.73994764  0.89397104  1
  O  O311  1  0.74297376  0.23808026  0.37944211  1
  O  O312  1  0.74838895  0.22868361  0.86245536  1
  O  O313  1  0.75271334  0.73584530  0.37505455  1
  O  O314  1  0.74177326  0.74417706  0.88071424  1
  O  O315  1  0.00810246  0.12077138  0.00291753  1
  O  O316  1  0.01132375  0.11637255  0.50382572  1
  O  O317  1  0.00543222  0.61674785  0.00407485  1
  O  O318  1  0.01001152  0.62162667  0.50335768  1
  O  O319  1  0.48314640  0.10776253  0.01588025  1
  O  O320  1  0.51313538  0.12658534  0.50265146  1
  O  O321  1  0.51082688  0.62660605  -0.00236719  1
  O  O322  1  0.50941326  0.62068508  0.50389434  1
  O  O323  1  0.49143474  0.38544635  0.49416783  1
  O  O324  1  0.50248809  0.38663304  1.00607111  1
  O  O325  1  0.48947223  0.81989660  0.48799071  1
  O  O326  1  0.49497228  0.88557748  0.99678903  1
  O  O327  1  0.99217622  0.37263071  0.49118414  1
  O  O328  1  1.00295221  0.38647863  0.99500098  1
  O  O329  1  1.00605568  0.88810856  0.50064727  1
  O  O330  1  1.00276782  0.88415759  0.99222817  1
  O  O331  1  0.49176549  0.50593037  0.38573193  1
  O  O332  1  0.49607928  0.50084962  0.88579150  1
  O  O333  1  0.48480697  0.99907030  0.37395108  1
  O  O334  1  0.50224144  0.99592345  0.88356288  1
  O  O335  1  0.98836913  0.49219433  0.37747129  1
  O  O336  1  1.00268365  0.48508750  0.88666905  1
  O  O337  1  0.99281843  0.99954305  0.38536207  1
  O  O338  1  0.99963318  0.99619011  0.87983004  1
  O  O339  1  0.00671067  0.00803012  0.11750798  1
  O  O340  1  0.00506800  0.00557220  0.62060103  1
  O  O341  1  0.00676304  0.50420937  0.11294082  1
  O  O342  1  0.00671075  0.50414966  0.62332902  1
  O  O343  1  0.51063300  0.00242861  0.12138289  1
  O  O344  1  0.51347316  -0.00343288  0.63127895  1
  O  O345  1  0.51015155  0.50711453  0.11439326  1
  O  O346  1  0.50680902  0.50010114  0.61235904  1
  O  O347  1  0.23506192  0.37112172  0.25122760  1
  O  O348  1  0.25487017  0.38022033  0.73736856  1
  O  O349  1  0.24205579  0.87854519  0.24494751  1
  O  O350  1  0.25115806  0.88930720  0.75723781  1
  O  O351  1  0.72928540  0.38270612  0.26144972  1
  O  O352  1  0.74108250  0.37498595  0.74144188  1
  O  O353  1  0.74975663  0.87952156  0.24463919  1
  O  O354  1  0.75014864  0.88569574  0.74558967  1
  O  O355  1  0.25392559  0.11676771  0.25727025  1
  O  O356  1  0.25124905  0.11857729  0.76059561  1
  O  O357  1  0.26094283  0.63297718  0.25786606  1
  O  O358  1  0.25759270  0.61219035  0.74513673  1
  O  O359  1  0.75854341  0.12193915  0.25955345  1
  O  O360  1  0.74864394  0.10798117  0.75306323  1
  O  O361  1  0.76390075  0.62950841  0.25402467  1
  O  O362  1  0.75509646  0.62581915  0.75828293  1
  O  O363  1  0.36778925  0.11352966  0.37240920  1
  O  O364  1  0.36089512  0.13016591  0.87821392  1
  O  O365  1  0.36591828  0.62148278  0.36779432  1
  O  O366  1  0.38092659  0.60583764  0.85602005  1
  O  O367  1  0.86858557  0.12165643  0.37004786  1
  O  O368  1  0.87194393  0.11187082  0.87457837  1
  O  O369  1  0.87047012  0.61567555  0.36766494  1
  O  O370  1  0.86443507  0.62992485  0.86535916  1
  O  O371  1  0.12478952  0.38412663  0.13414140  1
  O  O372  1  0.13287213  0.38222157  0.61924505  1
  O  O373  1  0.12876096  0.88122054  0.12903480  1
  O  O374  1  0.12776035  0.88793849  0.62460663  1
  O  O375  1  0.62175699  0.38967695  0.14185248  1
  O  O376  1  0.62895241  0.38422895  0.62548399  1
  O  O377  1  0.63038059  0.88806010  0.12761204  1
  O  O378  1  0.63843119  0.88020720  0.62536855  1
  O  O379  1  0.11922196  0.25592060  0.25686432  1
  O  O380  1  0.13034660  0.24910005  0.76571385  1
  O  O381  1  0.11470147  0.75239645  0.25339637  1
  O  O382  1  0.10826627  0.74170765  0.74724403  1
  O  O383  1  0.62881173  0.25916998  0.25739418  1
  O  O384  1  0.60998011  0.25635373  0.73900134  1
  O  O385  1  0.61265844  0.74907756  0.24172420  1
  O  O386  1  0.62109361  0.75129651  0.76472498  1
  O  O387  1  0.36811786  0.23369768  0.25449649  1
  O  O388  1  0.38167933  0.24972796  0.73831506  1
  O  O389  1  0.38072261  0.74620322  0.24154656  1
  O  O390  1  0.38409672  0.73993098  0.75144518  1
  O  O391  1  0.87980577  0.23959649  0.24929811  1
  O  O392  1  0.87397399  0.25253630  0.73473231  1
  O  O393  1  0.88668070  0.74087393  0.25534592  1
  O  O394  1  0.88235106  0.74050028  0.74100930  1
  O  O395  1  0.38003936  0.49997274  0.49100114  1
  O  O396  1  0.38578490  0.50292965  0.99187493  1
  O  O397  1  0.37168406  0.99228765  0.48764112  1
  O  O398  1  0.37953944  0.98911430  1.00170609  1
  O  O399  1  0.87642891  0.48745933  0.49258682  1
  O  O400  1  0.88958778  0.50325571  1.00167985  1
  O  O401  1  0.88617603  1.00887464  0.49136336  1
  O  O402  1  0.89152714  1.00527988  0.99273392  1
  O  O403  1  0.11714506  0.00942691  0.00441843  1
  O  O404  1  0.11991580  0.00625548  0.50810900  1
  O  O405  1  0.11577052  0.50908465  0.00607535  1
  O  O406  1  0.12332123  0.50566600  0.50974580  1
  O  O407  1  0.61718429  -0.00286069  0.01204344  1
  O  O408  1  0.63190240  0.00825652  0.51073406  1
  O  O409  1  0.61875240  0.51061358  0.00612921  1
  O  O410  1  0.61732987  0.50457363  0.50406475  1
  O  O411  1  0.37429431  0.37597968  0.12762692  1
  O  O412  1  0.36587267  0.36836606  0.61635064  1
  O  O413  1  0.36905107  0.87197154  0.12185181  1
  O  O414  1  0.36352553  0.88314036  0.62409447  1
  O  O415  1  0.87703329  0.35839704  0.13187709  1
  O  O416  1  0.87074848  0.36825643  0.61707124  1
  O  O417  1  0.86977871  0.88490991  0.11202390  1
  O  O418  1  0.86509494  0.86790917  0.62829749  1
  O  O419  1  0.12876638  0.12813721  0.38364050  1
  O  O420  1  0.13274074  0.13910013  0.88306912  1
  O  O421  1  0.12865657  0.62496643  0.37975107  1
  O  O422  1  0.11917585  0.61890165  0.88563049  1
  O  O423  1  0.63090603  0.12756013  0.38004078  1
  O  O424  1  0.64167268  0.11292939  0.87345695  1
  O  O425  1  0.63569994  0.62447605  0.38267380  1
  O  O426  1  0.62993821  0.63325754  0.88064070  1
