# generated using pymatgen
data_V85Zn86O256
_symmetry_space_group_name_H-M   'P 1'
_cell_length_a   16.94629409
_cell_length_b   16.94757885
_cell_length_c   16.96161371
_cell_angle_alpha   89.97495410
_cell_angle_beta   90.00398886
_cell_angle_gamma   89.90743288
_symmetry_Int_Tables_number   1
_chemical_formula_structural   V85Zn86O256
_chemical_formula_sum   'V85 Zn86 O256'
_cell_volume   4871.34581353
_cell_formula_units_Z   1
loop_
 _symmetry_equiv_pos_site_id
 _symmetry_equiv_pos_as_xyz
  1  'x, y, z'
loop_
 _atom_site_type_symbol
 _atom_site_label
 _atom_site_symmetry_multiplicity
 _atom_site_fract_x
 _atom_site_fract_y
 _atom_site_fract_z
 _atom_site_occupancy
  V  V0  1  0.74559560  0.22983781  0.02272649  1
  V  V1  1  0.12346162  0.75151365  0.87448830  1
  V  V2  1  0.74853189  0.75004020  0.50246402  1
  V  V3  1  0.87367954  0.74750023  0.62682398  1
  V  V4  1  0.62265432  0.35766580  0.25245846  1
  V  V5  1  0.24773431  0.75276027  0.00506955  1
  V  V6  1  0.87450569  0.62434312  0.75103931  1
  V  V7  1  0.00013788  0.36639059  0.37623546  1
  V  V8  1  0.73044007  0.25076113  0.49646584  1
  V  V9  1  0.24804319  0.61602065  0.37085927  1
  V  V10  1  0.12755245  0.49752028  0.13040334  1
  V  V11  1  0.75539433  0.37524040  0.12858138  1
  V  V12  1  0.50291676  -0.00135991  0.01216470  1
  V  V13  1  0.37743563  0.49927763  0.87597211  1
  V  V14  1  0.25623643  -0.00079237  0.74283508  1
  V  V15  1  0.12401833  0.74729682  0.37387663  1
  V  V16  1  0.87528849  0.62524762  0.24924849  1
  V  V17  1  0.62124307  0.87239688  0.24283849  1
  V  V18  1  -0.00046694  0.87285852  0.37075725  1
  V  V19  1  0.62870338  0.88232375  0.75891369  1
  V  V20  1  0.49876127  0.00514844  0.49671353  1
  V  V21  1  0.48908726  0.87447216  0.37517024  1
  V  V22  1  0.50188505  0.25053651  0.75289190  1
  V  V23  1  0.13346399  0.87737851  0.24421458  1
  V  V24  1  0.86658371  -0.00075884  0.37364045  1
  V  V25  1  0.61816031  0.62502834  0.50290952  1
  V  V26  1  0.25057836  0.12520406  0.87217272  1
  V  V27  1  0.36814979  0.26437929  0.62686358  1
  V  V28  1  -0.00361409  0.49394036  0.50123886  1
  V  V29  1  0.12680277  -0.00257326  0.61712517  1
  V  V30  1  0.74693112  0.88412282  0.62645976  1
  V  V31  1  0.87368805  0.25753591  0.61461641  1
  V  V32  1  0.00136413  0.37355174  0.87720975  1
  V  V33  1  0.50926412  0.74309171  0.75343921  1
  V  V34  1  0.25034447  0.62292034  0.87448924  1
  V  V35  1  0.50356370  0.37745182  0.88043883  1
  V  V36  1  0.87440167  0.87272777  0.49883548  1
  V  V37  1  0.37116990  0.61671764  0.24818364  1
  V  V38  1  0.24771666  0.87251777  0.62757781  1
  V  V39  1  0.00104128  0.50011265  0.00276086  1
  V  V40  1  -0.00206149  0.12481321  0.62034909  1
  V  V41  1  0.38929174  0.24113558  0.13156794  1
  V  V42  1  0.25199741  0.37550136  0.13068507  1
  V  V43  1  0.87387320  0.36877103  0.00638338  1
  V  V44  1  0.62220821  0.50020118  0.12633698  1
  V  V45  1  0.62348671  0.75099062  0.37670552  1
  V  V46  1  0.87238140  0.49574840  0.37797971  1
  V  V47  1  0.12570052  0.61767272  0.50448916  1
  V  V48  1  0.00349285  0.61853961  0.62515962  1
  V  V49  1  0.12583960  0.37840733  0.73920101  1
  V  V50  1  0.62129958  0.62439548  -0.00263195  1
  V  V51  1  0.63409149  0.25107064  0.87717626  1
  V  V52  1  0.38112731  0.74561958  0.62856833  1
  V  V53  1  0.50423828  0.36638634  0.37527855  1
  V  V54  1  0.12817006  -0.00211349  0.12580918  1
  V  V55  1  0.50826350  0.12495602  0.62502310  1
  V  V56  1  0.24925547  0.25007238  -0.00231520  1
  V  V57  1  0.87372604  0.49946725  0.87725490  1
  V  V58  1  0.38001884  -0.00290301  0.87400022  1
  V  V59  1  0.37721945  0.37740131  0.00143491  1
  V  V60  1  0.24941681  0.74699311  0.50261306  1
  V  V61  1  0.86783719  0.13334679  0.24767569  1
  V  V62  1  0.49707335  0.61998972  0.11999913  1
  V  V63  1  0.10027195  0.89750489  0.76901259  1
  V  V64  1  0.62005830  0.50381705  0.62733848  1
  V  V65  1  0.49889395  0.74775671  0.24892437  1
  V  V66  1  -0.00858224  0.12492810  0.12207039  1
  V  V67  1  0.74950111  0.75024546  -0.00026557  1
  V  V68  1  0.24699483  0.49681645  0.73872673  1
  V  V69  1  0.12985662  0.12986316  0.49362057  1
  V  V70  1  0.37553521  0.49308322  0.37625224  1
  V  V71  1  0.24730982  0.26654489  0.50114885  1
  V  V72  1  0.86877012  0.11344115  0.75098445  1
  V  V73  1  0.75191976  0.87424940  0.12503797  1
  V  V74  1  0.11609006  0.11843268  -0.00280117  1
  V  V75  1  0.88275474  0.89227742  -0.00929417  1
  V  V76  1  0.37718202  0.12501746  0.74385559  1
  V  V77  1  0.49577116  0.49753324  0.50348508  1
  V  V78  1  -0.00305067  0.25068915  0.75171912  1
  V  V79  1  0.12824854  0.36852846  0.25501648  1
  V  V80  1  0.74854977  0.49731006  0.75151450  1
  V  V81  1  0.74666821  -0.00287210  0.24851564  1
  V  V82  1  0.74607211  0.63287568  0.87590456  1
  V  V83  1  0.37114293  0.87346823  0.00621345  1
  V  V84  1  -0.00109106  0.74806400  0.75293746  1
  Zn  Zn85  1  0.37186784  0.87321244  0.49723780  1
  Zn  Zn86  1  0.62654988  0.37581083  0.75059731  1
  Zn  Zn87  1  0.18130560  0.19500619  0.33653542  1
  Zn  Zn88  1  0.32227519  0.06884057  0.31994524  1
  Zn  Zn89  1  0.62745277  0.00391682  0.62538379  1
  Zn  Zn90  1  0.37924438  0.62290719  0.74696085  1
  Zn  Zn91  1  0.74831386  0.62304916  0.37543464  1
  Zn  Zn92  1  -0.00045765  0.24767961  0.24824034  1
  Zn  Zn93  1  0.74619531  0.50127801  0.25432022  1
  Zn  Zn94  1  0.75241945  0.38027253  0.61827743  1
  Zn  Zn95  1  0.72502289  0.14086659  0.37092437  1
  Zn  Zn96  1  0.12383468  0.62529260  0.00285024  1
  Zn  Zn97  1  0.61331973  0.11840291  0.00049652  1
  Zn  Zn98  1  0.00102663  0.74921841  0.24387926  1
  Zn  Zn99  1  0.12335342  0.25010378  0.87388302  1
  Zn  Zn100  1  -0.00143339  -0.00030944  0.49614845  1
  Zn  Zn101  1  0.30924696  0.93840628  0.18570940  1
  Zn  Zn102  1  0.00055365  0.62414802  0.12690259  1
  Zn  Zn103  1  0.74785680  0.11006739  0.87304802  1
  Zn  Zn104  1  0.50128534  0.86881124  0.87621305  1
  Zn  Zn105  1  0.87975326  0.74920786  0.12126599  1
  Zn  Zn106  1  0.36934282  0.74885337  0.12538283  1
  Zn  Zn107  1  0.19738212  0.17924474  0.17568359  1
  Zn  Zn108  1  0.18620241  0.18810934  0.68252737  1
  Zn  Zn109  1  0.18441947  0.68509535  0.18862241  1
  Zn  Zn110  1  0.18539579  0.68714719  0.69129876  1
  Zn  Zn111  1  0.64872817  0.14956809  0.18889387  1
  Zn  Zn112  1  0.69047790  0.19182615  0.68758050  1
  Zn  Zn113  1  0.68944952  0.68600845  0.18663558  1
  Zn  Zn114  1  0.68619291  0.68714994  0.68767067  1
  Zn  Zn115  1  0.31990542  0.30848453  0.31061333  1
  Zn  Zn116  1  0.31112196  0.31503754  0.81127557  1
  Zn  Zn117  1  0.31057860  0.80217111  0.31218378  1
  Zn  Zn118  1  0.31134433  0.81284545  0.81164823  1
  Zn  Zn119  1  0.80783302  0.31542328  0.31708570  1
  Zn  Zn120  1  0.81573584  0.31194934  0.81241918  1
  Zn  Zn121  1  0.81132394  0.80785171  0.31310217  1
  Zn  Zn122  1  0.81133531  0.93441230  0.81385421  1
  Zn  Zn123  1  0.18443425  0.43761167  0.43845898  1
  Zn  Zn124  1  0.18670885  0.43583949  0.93536288  1
  Zn  Zn125  1  0.19046110  0.93749573  0.42836916  1
  Zn  Zn126  1  0.18950243  0.93999067  0.93842346  1
  Zn  Zn127  1  0.68772658  0.43230687  0.43934066  1
  Zn  Zn128  1  0.68848642  0.43914343  0.94320938  1
  Zn  Zn129  1  0.64243351  0.98505842  0.39817562  1
  Zn  Zn130  1  0.68487682  0.93340678  0.94077241  1
  Zn  Zn131  1  0.31077520  0.06461137  0.05839145  1
  Zn  Zn132  1  0.29892257  0.04660357  0.50983044  1
  Zn  Zn133  1  0.30985436  0.55969296  0.06038421  1
  Zn  Zn134  1  0.31493024  0.56203804  0.56208076  1
  Zn  Zn135  1  0.79710493  0.06588747  0.06555721  1
  Zn  Zn136  1  0.81022273  0.06706592  0.55581221  1
  Zn  Zn137  1  0.81175475  0.55977736  0.06508872  1
  Zn  Zn138  1  0.81109608  0.56254098  0.56205345  1
  Zn  Zn139  1  0.44070148  0.43468862  0.18990040  1
  Zn  Zn140  1  0.44114283  0.44100667  0.69313165  1
  Zn  Zn141  1  0.45261843  1.06878473  0.18633685  1
  Zn  Zn142  1  0.44182460  0.93283917  0.68378143  1
  Zn  Zn143  1  0.93943195  0.43862421  0.19260841  1
  Zn  Zn144  1  0.93855359  0.43735989  0.68805491  1
  Zn  Zn145  1  0.93798295  0.93989735  0.18133667  1
  Zn  Zn146  1  0.93837055  0.93697749  0.68045604  1
  Zn  Zn147  1  0.05626629  0.05679224  0.30675310  1
  Zn  Zn148  1  0.06413036  0.06886860  0.80610195  1
  Zn  Zn149  1  0.06045430  0.55647178  0.31197653  1
  Zn  Zn150  1  0.06527393  0.56125770  0.81481200  1
  Zn  Zn151  1  0.52539200  0.11649565  0.32953179  1
  Zn  Zn152  1  0.56590061  0.06255633  0.81768342  1
  Zn  Zn153  1  0.56161290  0.56131159  0.31384661  1
  Zn  Zn154  1  0.56081850  0.56376850  0.81420372  1
  Zn  Zn155  1  0.42626462  0.19001410  0.44716619  1
  Zn  Zn156  1  0.43879176  0.18668778  0.93924498  1
  Zn  Zn157  1  0.43540387  0.68510338  0.43869129  1
  Zn  Zn158  1  0.43671600  0.68765598  0.93519713  1
  Zn  Zn159  1  0.93197176  0.18282664  0.43443052  1
  Zn  Zn160  1  0.92585384  0.18185721  0.94022336  1
  Zn  Zn161  1  0.93699222  0.68424504  0.43547744  1
  Zn  Zn162  1  0.93494256  0.69016748  0.93754037  1
  Zn  Zn163  1  0.06218190  0.30657390  0.06552233  1
  Zn  Zn164  1  0.06187224  0.31228202  0.56143487  1
  Zn  Zn165  1  0.05757842  0.81443844  0.06084427  1
  Zn  Zn166  1  0.06148031  0.80961908  0.56282043  1
  Zn  Zn167  1  0.56596192  0.31671759  0.06128970  1
  Zn  Zn168  1  0.55871997  0.31886537  0.56733711  1
  Zn  Zn169  1  0.56009439  0.80921755  0.06134156  1
  Zn  Zn170  1  0.56175103  0.81646855  0.56503383  1
  O  O171  1  0.11893001  0.11867882  0.11389657  1
  O  O172  1  0.11635626  0.11953505  0.61616629  1
  O  O173  1  0.12458718  0.61113819  0.12310368  1
  O  O174  1  0.11621697  0.62937803  0.61655546  1
  O  O175  1  0.69275878  0.13763742  0.08139980  1
  O  O176  1  0.61249198  0.12569164  0.63529793  1
  O  O177  1  0.61760586  0.61924038  0.11841466  1
  O  O178  1  0.62912377  0.61344426  0.61765657  1
  O  O179  1  0.38420457  0.38830355  0.36600812  1
  O  O180  1  0.38096979  0.37966856  0.88171095  1
  O  O181  1  0.38565263  0.86313682  0.37389313  1
  O  O182  1  0.37490820  0.88314438  0.88087002  1
  O  O183  1  0.88344449  0.38847722  0.36796129  1
  O  O184  1  0.88118116  0.38061462  0.88350764  1
  O  O185  1  0.88169336  0.87569187  0.37947502  1
  O  O186  1  0.87071551  0.87540295  0.89114199  1
  O  O187  1  0.26547070  0.01332484  0.40435326  1
  O  O188  1  0.26144005  0.00619043  0.86715402  1
  O  O189  1  0.25799353  0.50882088  0.38204928  1
  O  O190  1  0.25854919  0.50500331  0.87131870  1
  O  O191  1  0.76070891  -0.01245554  0.36789363  1
  O  O192  1  0.74051288  -0.00127548  0.87137606  1
  O  O193  1  0.75874336  0.50102634  0.37754487  1
  O  O194  1  0.75456160  0.50582645  0.87021959  1
  O  O195  1  0.24245631  0.48488450  0.11864684  1
  O  O196  1  0.25396597  0.50521586  0.63975687  1
  O  O197  1  0.23520501  1.00108240  0.11779362  1
  O  O198  1  0.24607833  0.98614849  0.61821902  1
  O  O199  1  0.74076133  0.49094569  0.12760006  1
  O  O200  1  0.74479913  0.49995444  0.63482229  1
  O  O201  1  0.74908273  0.98234614  0.13396341  1
  O  O202  1  0.74852242  0.98769343  0.61569551  1
  O  O203  1  0.00785878  0.36983905  0.25729572  1
  O  O204  1  0.00280622  0.36853754  0.75721816  1
  O  O205  1  0.00698533  0.87283232  0.25740321  1
  O  O206  1  0.00041284  0.85208214  0.72888719  1
  O  O207  1  0.51462634  0.37546828  0.25658987  1
  O  O208  1  0.50094867  0.36874975  0.76463422  1
  O  O209  1  0.50562237  0.85671018  0.25440283  1
  O  O210  1  0.51257784  0.86555878  0.75072098  1
  O  O211  1  0.54476194  0.12256151  0.21740502  1
  O  O212  1  0.49469844  0.13165882  0.74899170  1
  O  O213  1  0.49339060  0.63157209  0.24445248  1
  O  O214  1  0.50026998  0.63795970  0.74994025  1
  O  O215  1  0.98652961  0.12650582  0.24440009  1
  O  O216  1  0.99503950  0.13212934  0.73608479  1
  O  O217  1  0.99080488  0.62438524  0.25077230  1
  O  O218  1  0.99921390  0.62803508  0.74254437  1
  O  O219  1  0.36847459  0.25992175  0.00203843  1
  O  O220  1  0.36110517  0.25070165  0.51814251  1
  O  O221  1  0.36613140  0.75623905  -0.00236103  1
  O  O222  1  0.36737129  0.74895301  0.50901656  1
  O  O223  1  0.87291934  0.26675289  0.00237547  1
  O  O224  1  0.87748494  0.24837855  0.51433406  1
  O  O225  1  0.86061135  0.75040809  0.00057309  1
  O  O226  1  0.86724484  0.74958762  0.50520275  1
  O  O227  1  0.13719466  0.24525193  0.50672089  1
  O  O228  1  0.13338854  0.24028725  0.99837071  1
  O  O229  1  0.12818173  0.73803414  0.49402964  1
  O  O230  1  0.12988642  0.74897314  0.99198035  1
  O  O231  1  0.63232039  0.25017982  0.51020954  1
  O  O232  1  0.63609117  0.25265410  0.99463176  1
  O  O233  1  0.62922759  0.74336759  0.49943631  1
  O  O234  1  0.63693756  0.73837429  1.00541446  1
  O  O235  1  0.48671629  0.25464061  0.11369032  1
  O  O236  1  0.49051125  0.24559077  0.63072032  1
  O  O237  1  0.49597515  0.73744247  0.13205909  1
  O  O238  1  0.49087041  0.75563602  0.63732686  1
  O  O239  1  1.00254960  0.23225996  0.12893602  1
  O  O240  1  0.99017806  0.24470266  0.62938177  1
  O  O241  1  0.99770453  0.74221697  0.12567846  1
  O  O242  1  0.99460445  0.73488825  0.62686939  1
  O  O243  1  -0.00800215  0.26354186  0.37664716  1
  O  O244  1  -0.00362035  0.25456232  0.86640594  1
  O  O245  1  0.00567837  0.75935432  0.37534008  1
  O  O246  1  0.00906180  0.74202817  0.86416971  1
  O  O247  1  0.49687182  0.26893624  0.39227435  1
  O  O248  1  0.51087221  0.25706715  0.87457331  1
  O  O249  1  0.50403651  0.75050371  0.36839648  1
  O  O250  1  0.49512983  0.75090353  0.85780283  1
  O  O251  1  0.23684371  0.14169276  0.51108861  1
  O  O252  1  0.24284083  0.13236819  0.99104832  1
  O  O253  1  0.24166320  0.62687191  0.49498456  1
  O  O254  1  0.24811200  0.62897754  0.98784326  1
  O  O255  1  0.75446401  0.14563171  0.49682239  1
  O  O256  1  0.79518436  0.14533233  0.97594169  1
  O  O257  1  0.73979565  0.63480491  0.50138505  1
  O  O258  1  0.74345007  0.62756797  0.99583124  1
  O  O259  1  0.25568248  0.36683577  0.00432457  1
  O  O260  1  0.24036865  0.36543407  0.50902953  1
  O  O261  1  0.25727067  0.86310602  -0.00907437  1
  O  O262  1  0.24660302  0.86290352  0.50866474  1
  O  O263  1  0.75666713  0.37028616  0.01035916  1
  O  O264  1  0.74805053  0.35958238  0.50367607  1
  O  O265  1  0.75092293  0.86533032  0.00866050  1
  O  O266  1  0.75529608  0.85847827  0.51029816  1
  O  O267  1  0.12083364  0.48718807  0.23718070  1
  O  O268  1  0.13426523  0.49097208  0.75615057  1
  O  O269  1  0.12447973  0.98955361  0.24131810  1
  O  O270  1  0.14066671  1.00794076  0.72965669  1
  O  O271  1  0.62545444  0.50135423  0.23760960  1
  O  O272  1  0.63136047  0.50181073  0.74464964  1
  O  O273  1  0.64095275  0.98146172  0.25735333  1
  O  O274  1  0.61805216  0.98522694  0.74721105  1
  O  O275  1  0.37629681  0.00640686  0.24003976  1
  O  O276  1  0.37450946  0.00538548  0.75336354  1
  O  O277  1  0.38087201  0.51040753  0.25758050  1
  O  O278  1  0.36679950  0.50150218  0.75881397  1
  O  O279  1  0.86425617  0.00148960  0.25529345  1
  O  O280  1  0.87357324  0.00833778  0.74190289  1
  O  O281  1  0.87351381  0.50906692  0.25919664  1
  O  O282  1  0.86829302  0.50459505  0.75566857  1
  O  O283  1  0.11595710  0.38217426  0.36463778  1
  O  O284  1  0.11537408  0.37064103  0.86965238  1
  O  O285  1  0.11806238  0.87119464  0.36783291  1
  O  O286  1  0.13739320  0.85921268  0.87053232  1
  O  O287  1  0.61920708  0.38209789  0.35904008  1
  O  O288  1  0.61776921  0.37314705  0.87661166  1
  O  O289  1  0.61172449  0.86815145  0.36332159  1
  O  O290  1  0.62289359  0.87011159  0.86117340  1
  O  O291  1  0.37592962  0.13732199  0.11849995  1
  O  O292  1  0.38490418  0.13480444  0.63974898  1
  O  O293  1  0.37960887  0.62166306  0.13024973  1
  O  O294  1  0.36615176  0.64116391  0.62913476  1
  O  O295  1  0.87966541  0.11616395  0.13595694  1
  O  O296  1  0.88042926  0.13166429  0.63196529  1
  O  O297  1  0.87665515  0.62267762  0.13583542  1
  O  O298  1  0.88137907  0.62742238  0.63132459  1
  O  O299  1  0.25887633  0.25712810  0.11103663  1
  O  O300  1  0.26184841  0.25283505  0.62450537  1
  O  O301  1  0.24859465  0.73961707  0.10841243  1
  O  O302  1  0.25097717  0.75864072  0.62462597  1
  O  O303  1  0.75592802  0.26842823  0.12274871  1
  O  O304  1  0.76063748  0.25300404  0.61830292  1
  O  O305  1  0.75330626  0.75706177  0.11876466  1
  O  O306  1  0.75578051  0.75356393  0.62116777  1
  O  O307  1  0.25770335  0.25967444  0.39508915  1
  O  O308  1  0.25012036  0.24571356  0.88422582  1
  O  O309  1  0.24381713  0.73574057  0.38222836  1
  O  O310  1  0.24502045  0.73970410  0.87926154  1
  O  O311  1  0.74670553  0.25321851  0.39031827  1
  O  O312  1  0.73876855  0.25639589  0.87870379  1
  O  O313  1  0.74184532  0.74879047  0.38632258  1
  O  O314  1  0.74833896  0.73322707  0.88291571  1
  O  O315  1  0.00579716  0.12891098  0.00535009  1
  O  O316  1  0.00277176  0.12538344  0.51015658  1
  O  O317  1  -0.00005902  0.60965619  -0.00147694  1
  O  O318  1  0.00610557  0.61743968  0.50609414  1
  O  O319  1  0.49655296  0.10617217  -0.00153640  1
  O  O320  1  0.49293159  0.11363110  0.51258897  1
  O  O321  1  0.50774029  0.63095853  0.00781519  1
  O  O322  1  0.51137051  0.61684122  0.49681980  1
  O  O323  1  0.50750631  0.39140872  0.49265400  1
  O  O324  1  0.49248702  0.37380968  0.98869963  1
  O  O325  1  0.49544410  0.87300624  0.48969945  1
  O  O326  1  0.49094227  0.87882064  0.99553348  1
  O  O327  1  1.00647031  0.38621225  0.49339799  1
  O  O328  1  0.99503417  0.38189415  0.99880842  1
  O  O329  1  0.99392887  0.87467300  0.49189247  1
  O  O330  1  0.98224945  0.87807494  1.00371767  1
  O  O331  1  0.49307464  0.49646227  0.38307159  1
  O  O332  1  0.48630272  0.49308061  0.87017512  1
  O  O333  1  0.50162627  0.98652671  0.39036172  1
  O  O334  1  0.48832213  0.99638392  0.87766311  1
  O  O335  1  0.99334504  0.49150865  0.38352885  1
  O  O336  1  0.99542429  0.49366989  0.88267571  1
  O  O337  1  0.98742826  0.98743588  0.37425719  1
  O  O338  1  1.03644679  0.96072715  0.82037672  1
  O  O339  1  0.01272031  0.01419180  0.12997526  1
  O  O340  1  0.00889610  0.00775500  0.62119522  1
  O  O341  1  0.00872036  0.49821876  0.11771256  1
  O  O342  1  -0.00606789  0.51032076  0.61785898  1
  O  O343  1  0.49484832  -0.01179098  0.10879665  1
  O  O344  1  0.50235944  0.00991972  0.62284539  1
  O  O345  1  0.50458833  0.51199648  0.12811205  1
  O  O346  1  0.50656930  0.49923715  0.61829179  1
  O  O347  1  0.24456100  0.36835480  0.23958685  1
  O  O348  1  0.23880309  0.38416758  0.75598848  1
  O  O349  1  0.23940014  0.86817309  0.24981136  1
  O  O350  1  0.24051947  0.88266134  0.74368625  1
  O  O351  1  0.73932383  0.37944343  0.24554705  1
  O  O352  1  0.75056710  0.38861172  0.75143121  1
  O  O353  1  0.74399439  0.87222756  0.24303416  1
  O  O354  1  0.73714724  0.87260276  0.74171582  1
  O  O355  1  0.24371142  0.13549631  0.26459047  1
  O  O356  1  0.25797264  0.12072630  0.75168878  1
  O  O357  1  0.25785452  0.62675960  0.25941653  1
  O  O358  1  0.24887144  0.61786439  0.76187663  1
  O  O359  1  0.74928397  0.11200934  0.25185081  1
  O  O360  1  0.76648793  0.13209961  0.75296280  1
  O  O361  1  0.75867095  0.62226620  0.25398104  1
  O  O362  1  0.75147880  0.61589087  0.75816149  1
  O  O363  1  0.41533771  0.12887348  0.35695686  1
  O  O364  1  0.37189287  0.11983060  0.86443896  1
  O  O365  1  0.36774543  0.61659577  0.36799754  1
  O  O366  1  0.36835966  0.61525928  0.87356029  1
  O  O367  1  0.87089379  0.11215135  0.36631208  1
  O  O368  1  0.88822551  0.12074254  0.84991592  1
  O  O369  1  0.87390584  0.61397183  0.36927037  1
  O  O370  1  0.86679017  0.61832179  0.86990934  1
  O  O371  1  0.13342134  0.37599973  0.13127704  1
  O  O372  1  0.11520289  0.37559503  0.64042601  1
  O  O373  1  0.11882063  0.88375265  0.13286837  1
  O  O374  1  0.12607043  0.88356214  0.63231371  1
  O  O375  1  0.62957935  0.38165611  0.13470765  1
  O  O376  1  0.62745483  0.38991257  0.63048978  1
  O  O377  1  0.63022666  0.86365033  0.13722754  1
  O  O378  1  0.63371966  0.87362799  0.63561103  1
  O  O379  1  0.12451444  0.25943863  0.25175875  1
  O  O380  1  0.11159018  0.25336619  0.74901854  1
  O  O381  1  0.12322047  0.75575153  0.25747201  1
  O  O382  1  0.11680420  0.75719395  0.75782847  1
  O  O383  1  0.63227846  0.26089738  0.24595981  1
  O  O384  1  0.62064045  0.25409238  0.75886095  1
  O  O385  1  0.61779202  0.74952983  0.25611610  1
  O  O386  1  0.61345312  0.75583439  0.74522559  1
  O  O387  1  0.37876969  0.25526541  0.22972619  1
  O  O388  1  0.37867919  0.24469672  0.74513035  1
  O  O389  1  0.38116474  0.73579000  0.24666808  1
  O  O390  1  0.38444180  0.74928917  0.74445263  1
  O  O391  1  0.86923742  0.23550043  0.25734826  1
  O  O392  1  0.88380322  0.24406158  0.74082769  1
  O  O393  1  0.87728768  0.73593432  0.25151070  1
  O  O394  1  0.88456982  0.73825740  0.74253668  1
  O  O395  1  0.38492269  0.50693638  0.49098483  1
  O  O396  1  0.36907995  0.48539884  0.99199674  1
  O  O397  1  0.39477280  0.98753405  0.51683683  1
  O  O398  1  0.37823965  0.99211126  0.99160397  1
  O  O399  1  0.88539696  0.50562979  0.49258820  1
  O  O400  1  0.88157343  0.49218856  0.99598340  1
  O  O401  1  0.87537035  0.99304095  0.49100024  1
  O  O402  1  0.86517341  0.99023832  1.00493292  1
  O  O403  1  0.12632611  0.01183931  0.00211331  1
  O  O404  1  0.12268773  0.00776452  0.50696515  1
  O  O405  1  0.11714177  0.49677725  0.00888851  1
  O  O406  1  0.11488477  0.51167080  0.49682645  1
  O  O407  1  0.60671586  -0.00447714  -0.00102886  1
  O  O408  1  0.60200311  -0.01353075  0.51024505  1
  O  O409  1  0.62794182  0.50805183  0.01566734  1
  O  O410  1  0.62057973  0.50752475  0.50729049  1
  O  O411  1  0.36999088  0.37180442  0.11798007  1
  O  O412  1  0.38003453  0.36213270  0.63407281  1
  O  O413  1  0.36724859  0.86891611  0.10976721  1
  O  O414  1  0.36322884  0.86305458  0.62840671  1
  O  O415  1  0.86660433  0.38700724  0.11929207  1
  O  O416  1  0.87452705  0.36071674  0.63011639  1
  O  O417  1  0.86621365  0.87093744  0.11882761  1
  O  O418  1  0.86760120  0.86784874  0.61793075  1
  O  O419  1  0.10792702  0.12408772  0.39020702  1
  O  O420  1  0.12943886  0.12761713  0.87912121  1
  O  O421  1  0.13121249  0.62454987  0.37959459  1
  O  O422  1  0.13249865  0.63387016  0.87759148  1
  O  O423  1  0.62353086  0.09718888  0.37986611  1
  O  O424  1  0.62870860  0.13558348  0.88221118  1
  O  O425  1  0.62602159  0.63162487  0.38469304  1
  O  O426  1  0.63090485  0.61470150  0.88965692  1
