# generated using pymatgen
data_V85Zn86O256
_symmetry_space_group_name_H-M   'P 1'
_cell_length_a   16.95650819
_cell_length_b   16.93682967
_cell_length_c   16.95832384
_cell_angle_alpha   90.12894231
_cell_angle_beta   90.00751601
_cell_angle_gamma   90.07455379
_symmetry_Int_Tables_number   1
_chemical_formula_structural   V85Zn86O256
_chemical_formula_sum   'V85 Zn86 O256'
_cell_volume   4870.23589180
_cell_formula_units_Z   1
loop_
 _symmetry_equiv_pos_site_id
 _symmetry_equiv_pos_as_xyz
  1  'x, y, z'
loop_
 _atom_site_type_symbol
 _atom_site_label
 _atom_site_symmetry_multiplicity
 _atom_site_fract_x
 _atom_site_fract_y
 _atom_site_fract_z
 _atom_site_occupancy
  V  V0  1  0.12074330  0.12125044  0.49263240  1
  V  V1  1  0.75149899  0.11841339  0.37281817  1
  V  V2  1  0.00469794  0.37631263  0.88291590  1
  V  V3  1  0.87955193  0.88193214  0.49795489  1
  V  V4  1  0.36230697  0.73580268  0.11915574  1
  V  V5  1  0.24919844  0.12859458  0.36846491  1
  V  V6  1  0.36533957  0.62325280  0.75031252  1
  V  V7  1  0.63049213  0.73519595  0.87307726  1
  V  V8  1  0.50046189  0.00210209  0.00573194  1
  V  V9  1  0.87317170  0.11751323  0.24816082  1
  V  V10  1  0.12636424  0.49788494  0.62572220  1
  V  V11  1  0.37806988  0.24550191  0.12361292  1
  V  V12  1  0.74162738  0.74527170  0.49813577  1
  V  V13  1  0.50518532  0.24308119  0.24532262  1
  V  V14  1  0.12682737  0.38733664  0.25427374  1
  V  V15  1  0.00272669  0.24990325  0.25223017  1
  V  V16  1  0.37212039  -0.00160225  0.87225556  1
  V  V17  1  0.24397322  0.12500467  0.86747349  1
  V  V18  1  0.51099161  0.26053697  0.76616439  1
  V  V19  1  0.74950799  0.25547258  0.00412468  1
  V  V20  1  0.12516898  0.00328151  0.62221595  1
  V  V21  1  0.62834264  0.87766402  0.25155258  1
  V  V22  1  0.13045328  0.87871812  0.74829457  1
  V  V23  1  -0.00238281  0.74991771  0.25340897  1
  V  V24  1  0.87545197  0.38013715  0.50839237  1
  V  V25  1  0.00150597  0.75173850  0.74670661  1
  V  V26  1  0.50029303  0.73856397  0.23596674  1
  V  V27  1  0.50262897  0.00152008  0.49888691  1
  V  V28  1  0.50998053  0.62483236  0.61781480  1
  V  V29  1  0.47394930  0.37156177  0.37563000  1
  V  V30  1  0.74974207  0.87557655  0.62404333  1
  V  V31  1  0.87702956  0.12778304  0.74967254  1
  V  V32  1  0.00151731  0.37908597  0.38476650  1
  V  V33  1  -0.00178043  0.61559215  0.62184916  1
  V  V34  1  -0.00120370  0.00425593  -0.00143783  1
  V  V35  1  0.38627453  0.37446006  -0.00295985  1
  V  V36  1  0.87615419  0.50153502  0.37401313  1
  V  V37  1  0.62395867  0.62752753  0.01917632  1
  V  V38  1  0.87357051  0.00258727  0.87481958  1
  V  V39  1  0.25679228  0.37750717  0.61781466  1
  V  V40  1  0.69809537  0.44293413  0.79479398  1
  V  V41  1  0.62550431  0.00061626  0.62673751  1
  V  V42  1  0.87334059  0.87615439  -0.00171980  1
  V  V43  1  0.00107346  0.12681745  0.12387492  1
  V  V44  1  0.63450907  0.48689557  0.61925944  1
  V  V45  1  0.75281458  0.38692346  0.13265500  1
  V  V46  1  0.12476782  0.62102063  0.49871964  1
  V  V47  1  0.13037840  -0.00777232  0.12179568  1
  V  V48  1  0.12615384  0.12708581  -0.00390066  1
  V  V49  1  0.74953791  0.00315484  0.75194152  1
  V  V50  1  0.74599024  0.13542161  0.87601340  1
  V  V51  1  0.50035543  0.74884259  0.74906493  1
  V  V52  1  0.24652017  0.25160458  -0.00710960  1
  V  V53  1  -0.00637313  0.61624389  0.11910231  1
  V  V54  1  0.37557082  0.12580100  0.75111054  1
  V  V55  1  0.75058118  0.88099724  0.12761305  1
  V  V56  1  0.62589383  0.87557403  0.75418215  1
  V  V57  1  -0.00091869  0.12464437  0.61993437  1
  V  V58  1  0.49664121  0.87165850  0.37129059  1
  V  V59  1  0.63136728  0.38119241  0.25621886  1
  V  V60  1  0.86630166  0.62171408  0.75267811  1
  V  V61  1  0.12109489  0.49802354  0.11433523  1
  V  V62  1  0.87384825  0.74810515  0.62185096  1
  V  V63  1  0.25295960  -0.01593791  0.24490352  1
  V  V64  1  0.37437575  0.87810737  0.49861185  1
  V  V65  1  0.36382058  0.87073122  0.00670161  1
  V  V66  1  0.62015330  0.13206948  0.00124716  1
  V  V67  1  0.62582705  0.00636625  0.12883506  1
  V  V68  1  0.88276202  0.50876173  0.87814152  1
  V  V69  1  0.37478071  0.49324702  0.86865321  1
  V  V70  1  0.49072767  0.49506589  0.50162714  1
  V  V71  1  0.87275734  0.74903416  0.12737708  1
  V  V72  1  0.37559451  -0.00005244  0.37140335  1
  V  V73  1  0.73968162  0.61676287  0.37366695  1
  V  V74  1  0.12703096  0.75153425  0.37605156  1
  V  V75  1  0.25315579  0.88983018  0.62391131  1
  V  V76  1  0.50183228  0.87519008  0.87702938  1
  V  V77  1  0.24984302  0.37761431  0.12627005  1
  V  V78  1  0.75285105  0.25359734  0.50698724  1
  V  V79  1  0.13388918  0.37817654  0.75516817  1
  V  V80  1  0.62798984  0.25123611  0.37691561  1
  V  V81  1  0.37230215  0.74912196  0.62361188  1
  V  V82  1  0.37639944  0.12485806  0.24473881  1
  V  V83  1  0.00872408  0.25093553  0.75558927  1
  V  V84  1  0.50328682  0.12958173  0.62754173  1
  Zn  Zn85  1  0.36816128  0.51100622  0.36811841  1
  Zn  Zn86  1  0.00146586  0.87848483  0.87114684  1
  Zn  Zn87  1  0.12707879  0.25172933  0.37549077  1
  Zn  Zn88  1  0.87922074  0.38244176  0.00422901  1
  Zn  Zn89  1  0.12499140  0.87213668  0.24759612  1
  Zn  Zn90  1  0.49654933  0.50844925  0.00637888  1
  Zn  Zn91  1  0.13534611  0.75161409  0.87915051  1
  Zn  Zn92  1  0.25013657  0.74820542  0.49990054  1
  Zn  Zn93  1  0.87566696  0.25444705  0.12603892  1
  Zn  Zn94  1  0.87858328  0.00145536  0.37446842  1
  Zn  Zn95  1  0.00359614  0.88202294  0.37812157  1
  Zn  Zn96  1  0.37924833  0.25829880  0.62368235  1
  Zn  Zn97  1  0.25568736  0.25109886  0.49691488  1
  Zn  Zn98  1  0.61972081  0.74561533  0.37784882  1
  Zn  Zn99  1  0.12304443  0.62885884  -0.00520670  1
  Zn  Zn100  1  0.24588579  0.60855265  0.34806568  1
  Zn  Zn101  1  0.87414354  0.25706752  0.62901115  1
  Zn  Zn102  1  0.25131679  0.63118570  0.88873971  1
  Zn  Zn103  1  0.62831113  0.12520942  0.50078900  1
  Zn  Zn104  1  0.75622904  0.74408347  -0.00983950  1
  Zn  Zn105  1  0.86879191  0.61928454  0.25099391  1
  Zn  Zn106  1  0.61551574  0.50420124  0.13744708  1
  Zn  Zn107  1  0.18794359  0.18780439  0.18520502  1
  Zn  Zn108  1  0.18829290  0.19136777  0.68672194  1
  Zn  Zn109  1  0.18277405  0.68517908  0.17594886  1
  Zn  Zn110  1  0.18709352  0.69156237  0.68586560  1
  Zn  Zn111  1  0.69175739  0.19011825  0.18672539  1
  Zn  Zn112  1  0.68622372  0.19393131  0.68960009  1
  Zn  Zn113  1  0.69123578  0.69388189  0.19366209  1
  Zn  Zn114  1  0.68749461  0.68608413  0.68751856  1
  Zn  Zn115  1  0.31807492  0.32863137  0.30883572  1
  Zn  Zn116  1  0.31626705  0.30988383  0.80844396  1
  Zn  Zn117  1  0.29741552  0.77068863  0.28913595  1
  Zn  Zn118  1  0.31088349  0.81295848  0.81129114  1
  Zn  Zn119  1  0.81614034  0.30940197  0.31665776  1
  Zn  Zn120  1  0.82104600  0.31318177  0.81634256  1
  Zn  Zn121  1  0.80938387  0.80995681  0.31480034  1
  Zn  Zn122  1  0.81374634  0.81123205  0.81044026  1
  Zn  Zn123  1  0.18864013  0.44255935  0.44106475  1
  Zn  Zn124  1  0.19495672  0.44296790  0.93491709  1
  Zn  Zn125  1  0.18744697  0.93863209  0.43565903  1
  Zn  Zn126  1  0.18821407  0.93889408  0.93229226  1
  Zn  Zn127  1  0.68492718  0.43742903  0.44550189  1
  Zn  Zn128  1  0.69453813  0.45019800  0.95394050  1
  Zn  Zn129  1  0.68936302  0.93637498  0.43759570  1
  Zn  Zn130  1  0.68802122  0.93925499  0.93908127  1
  Zn  Zn131  1  0.31141508  0.06181912  0.05971255  1
  Zn  Zn132  1  0.32223371  0.08446556  0.55164513  1
  Zn  Zn133  1  0.30728841  0.55865511  0.05946453  1
  Zn  Zn134  1  0.31039201  0.56232955  0.56036486  1
  Zn  Zn135  1  0.81032236  0.06550863  0.06398912  1
  Zn  Zn136  1  0.81165281  0.06602147  0.56281492  1
  Zn  Zn137  1  0.80623611  0.56581982  0.05921143  1
  Zn  Zn138  1  0.81205162  0.56182183  0.55729089  1
  Zn  Zn139  1  0.44032422  0.43535301  0.19065678  1
  Zn  Zn140  1  0.44164620  0.43927206  0.68907410  1
  Zn  Zn141  1  0.44053913  0.93406585  0.18570278  1
  Zn  Zn142  1  0.43890767  0.93981941  0.68890869  1
  Zn  Zn143  1  0.93702109  0.43642647  0.19462719  1
  Zn  Zn144  1  0.93886677  0.43838771  0.69476349  1
  Zn  Zn145  1  0.94096632  0.93815890  0.18799875  1
  Zn  Zn146  1  0.93946885  0.94036933  0.68302481  1
  Zn  Zn147  1  0.06124598  0.05641826  0.30976407  1
  Zn  Zn148  1  0.06393350  0.06020878  0.80814049  1
  Zn  Zn149  1  0.05769156  0.56445194  0.31188666  1
  Zn  Zn150  1  0.06346365  0.56367116  0.81071609  1
  Zn  Zn151  1  0.56412470  0.06390048  0.31206699  1
  Zn  Zn152  1  0.56152729  0.06698342  0.81655055  1
  Zn  Zn153  1  0.55725103  0.56009688  0.31951545  1
  Zn  Zn154  1  0.55109453  0.55865027  0.80971934  1
  Zn  Zn155  1  0.43498137  0.19389358  0.43890172  1
  Zn  Zn156  1  0.43683515  0.18708384  0.93771765  1
  Zn  Zn157  1  0.43389669  0.68414685  0.43616493  1
  Zn  Zn158  1  0.43896415  0.68629860  0.93702106  1
  Zn  Zn159  1  0.93691402  0.19010683  0.43658705  1
  Zn  Zn160  1  0.93520206  0.19322139  0.93695599  1
  Zn  Zn161  1  0.93645514  0.68748677  0.43893945  1
  Zn  Zn162  1  0.96153153  0.69769073  0.94375122  1
  Zn  Zn163  1  0.06493426  0.31129195  0.06297411  1
  Zn  Zn164  1  0.06726577  0.30694058  0.56337392  1
  Zn  Zn165  1  0.05774669  0.81231611  0.06160320  1
  Zn  Zn166  1  0.06250989  0.81055915  0.56286697  1
  Zn  Zn167  1  0.56586309  0.31611985  0.06733063  1
  Zn  Zn168  1  0.56303550  0.31417776  0.56048915  1
  Zn  Zn169  1  0.56397067  0.81274307  0.05894985  1
  Zn  Zn170  1  0.56107538  0.81395951  0.56291453  1
  O  O171  1  0.12011714  0.11604259  0.11705978  1
  O  O172  1  0.12163961  0.11996397  0.61776789  1
  O  O173  1  0.11115163  0.61483996  0.12394786  1
  O  O174  1  0.11724373  0.61830843  0.62320696  1
  O  O175  1  0.63402702  0.11594030  0.11563612  1
  O  O176  1  0.61841665  0.11816268  0.62621084  1
  O  O177  1  0.62860141  0.62747627  0.12220222  1
  O  O178  1  0.61228932  0.62317445  0.62919115  1
  O  O179  1  0.38712981  0.32630871  0.40319376  1
  O  O180  1  0.36871045  0.38482269  0.88079725  1
  O  O181  1  0.38479719  0.88212702  0.37856280  1
  O  O182  1  0.38231858  0.88152448  0.88212479  1
  O  O183  1  0.88314664  0.38015551  0.38366970  1
  O  O184  1  0.88744560  0.38672929  0.87652360  1
  O  O185  1  0.87030726  0.87525855  0.38964583  1
  O  O186  1  0.87315016  0.88413916  0.88235639  1
  O  O187  1  0.25514143  0.00649368  0.36283687  1
  O  O188  1  0.26167899  0.01096401  0.87863784  1
  O  O189  1  0.25252887  0.49767752  0.37083902  1
  O  O190  1  0.26958963  0.50839708  0.87747055  1
  O  O191  1  0.75312398  0.01433563  0.37892986  1
  O  O192  1  0.75514009  0.01049152  0.87173518  1
  O  O193  1  0.75386569  0.51247286  0.38431198  1
  O  O194  1  0.76217592  0.49450255  0.86276272  1
  O  O195  1  0.24262910  0.48385671  0.12550416  1
  O  O196  1  0.24135119  0.48724732  0.62293395  1
  O  O197  1  0.24181760  1.00416645  0.13158276  1
  O  O198  1  0.24654514  0.99355794  0.61885883  1
  O  O199  1  0.74503455  0.48960429  0.12576248  1
  O  O200  1  0.73308918  0.50669893  0.61865973  1
  O  O201  1  0.74194350  0.98887849  0.12072427  1
  O  O202  1  0.74269023  0.99793055  0.63117862  1
  O  O203  1  0.00807139  0.36718471  0.25971842  1
  O  O204  1  0.00908817  0.36778501  0.75821363  1
  O  O205  1  -0.00106935  0.86064966  0.24880982  1
  O  O206  1  0.01170244  0.87123267  0.74194036  1
  O  O207  1  0.51722315  0.35583393  0.26194672  1
  O  O208  1  0.49579689  0.35845319  0.74662819  1
  O  O209  1  0.50976693  0.87038708  0.25542946  1
  O  O210  1  0.50575130  0.86948250  0.75603234  1
  O  O211  1  0.49394667  0.13517934  0.25362585  1
  O  O212  1  0.49540757  0.13111901  0.74574720  1
  O  O213  1  0.50371222  0.64101271  0.25621761  1
  O  O214  1  0.48952003  0.63240467  0.73925226  1
  O  O215  1  0.99614379  0.13171743  0.24262291  1
  O  O216  1  0.99772765  0.13276037  0.74512972  1
  O  O217  1  0.99303105  0.63542320  0.24349430  1
  O  O218  1  0.99271935  0.63444931  0.73884589  1
  O  O219  1  0.36769022  0.25304764  0.00551680  1
  O  O220  1  0.35996712  0.20473356  0.52239947  1
  O  O221  1  0.38452830  0.76197941  0.00966435  1
  O  O222  1  0.37688580  0.75922923  0.51191297  1
  O  O223  1  0.86128891  0.25389601  0.00221943  1
  O  O224  1  0.86876002  0.25922633  0.50193937  1
  O  O225  1  0.87636673  0.75954011  0.00679475  1
  O  O226  1  0.86524686  0.75778401  0.50593192  1
  O  O227  1  0.13148425  0.23454296  0.49642628  1
  O  O228  1  0.13827383  0.24249003  1.00378060  1
  O  O229  1  0.12314696  0.74334449  0.49211208  1
  O  O230  1  0.07686285  0.73919185  0.98071126  1
  O  O231  1  0.63393115  0.24838018  0.49322585  1
  O  O232  1  0.63576035  0.24264815  1.00671068  1
  O  O233  1  0.63751123  0.75864777  0.49807180  1
  O  O234  1  0.62820813  0.74238672  0.99160650  1
  O  O235  1  0.49173074  0.25365894  0.13393842  1
  O  O236  1  0.50053737  0.23770283  0.62550858  1
  O  O237  1  0.50225608  0.75025850  0.13347998  1
  O  O238  1  0.49414942  0.74450196  0.62804573  1
  O  O239  1  0.99922679  0.24352198  0.13163512  1
  O  O240  1  1.00089240  0.23898401  0.63350958  1
  O  O241  1  0.98651273  0.74262945  0.13216161  1
  O  O242  1  0.99272993  0.74337749  0.63050136  1
  O  O243  1  0.00321066  0.25792461  0.36754012  1
  O  O244  1  -0.00272684  0.25949910  0.86555680  1
  O  O245  1  0.00601462  0.75194734  0.36878475  1
  O  O246  1  -0.01180717  0.76038701  0.85101654  1
  O  O247  1  0.51252811  0.24965181  0.37036705  1
  O  O248  1  0.49733102  0.24872081  0.86525819  1
  O  O249  1  0.49912051  0.76089016  0.36788630  1
  O  O250  1  0.50782387  0.75681506  0.86784411  1
  O  O251  1  0.23629615  0.11602070  0.48202739  1
  O  O252  1  0.24644789  0.13172332  0.99020096  1
  O  O253  1  0.23136098  0.62952125  0.51040028  1
  O  O254  1  0.23657283  0.62295206  1.00431649  1
  O  O255  1  0.75087577  0.13317926  0.49106876  1
  O  O256  1  0.74346321  0.13350111  0.99467804  1
  O  O257  1  0.75453429  0.63580325  0.48796330  1
  O  O258  1  0.73125163  0.62970321  0.99940738  1
  O  O259  1  0.25579860  0.36633837  0.00516731  1
  O  O260  1  0.24439636  0.36960558  0.51443280  1
  O  O261  1  0.26604523  0.88026525  -0.00484340  1
  O  O262  1  0.25894601  0.87673586  0.50671715  1
  O  O263  1  0.75043993  0.36953066  0.01289090  1
  O  O264  1  0.76229098  0.36548073  0.49486209  1
  O  O265  1  0.76030607  0.87486874  0.00755560  1
  O  O266  1  0.75738358  0.86853307  0.50636877  1
  O  O267  1  0.12126067  0.48974981  0.24400657  1
  O  O268  1  0.11809779  0.49051154  0.73621671  1
  O  O269  1  0.13560022  0.99680988  0.23885251  1
  O  O270  1  0.12363539  0.99383692  0.73340488  1
  O  O271  1  0.62105770  0.48470574  0.25795147  1
  O  O272  1  0.62791094  0.50318217  0.73907803  1
  O  O273  1  0.61861693  0.99413950  0.23653133  1
  O  O274  1  0.63018424  0.99659240  0.74757405  1
  O  O275  1  0.37085610  0.00348256  0.25022505  1
  O  O276  1  0.38392285  0.00479784  0.76651679  1
  O  O277  1  0.39251393  0.42496475  0.29274314  1
  O  O278  1  0.38077150  0.50812192  0.76003523  1
  O  O279  1  0.87612957  0.01406820  0.24637369  1
  O  O280  1  0.86927204  0.00666303  0.75394309  1
  O  O281  1  0.87308271  0.49841231  0.26831409  1
  O  O282  1  0.87832221  0.50988002  0.76121787  1
  O  O283  1  0.11856192  0.37404482  0.36995792  1
  O  O284  1  0.11895704  0.38671329  0.86607768  1
  O  O285  1  0.12090878  0.86752178  0.37319439  1
  O  O286  1  0.12162735  0.87698930  0.86224758  1
  O  O287  1  0.62809794  0.36236727  0.37208442  1
  O  O288  1  0.64216215  0.39673150  0.86291837  1
  O  O289  1  0.61806857  0.87640304  0.36616617  1
  O  O290  1  0.61892173  0.87326773  0.87086124  1
  O  O291  1  0.36977269  0.13753247  0.12735918  1
  O  O292  1  0.38774575  0.10859136  0.64418619  1
  O  O293  1  0.37396127  0.63715012  0.11660971  1
  O  O294  1  0.38044333  0.63403908  0.62767657  1
  O  O295  1  0.88169104  0.12856534  0.13098517  1
  O  O296  1  0.88381593  0.12608993  0.63153085  1
  O  O297  1  0.87329072  0.63184055  0.12922709  1
  O  O298  1  0.88115124  0.62862151  0.62790458  1
  O  O299  1  0.25627740  0.25579541  0.11528730  1
  O  O300  1  0.24957037  0.26628726  0.62550423  1
  O  O301  1  0.26430787  0.75393131  0.11989805  1
  O  O302  1  0.25885671  0.76327640  0.62238151  1
  O  O303  1  0.75402624  0.25955615  0.11822556  1
  O  O304  1  0.75371391  0.24219627  0.61117568  1
  O  O305  1  0.75986576  0.76127224  0.12388644  1
  O  O306  1  0.75463321  0.75445813  0.61774843  1
  O  O307  1  0.24914940  0.23650980  0.37082853  1
  O  O308  1  0.25788693  0.23954428  0.88324943  1
  O  O309  1  0.23275862  0.75779865  0.38333960  1
  O  O310  1  0.24840639  0.74613847  0.87091539  1
  O  O311  1  0.74570186  0.24146985  0.38429009  1
  O  O312  1  0.75515625  0.24058485  0.88261687  1
  O  O313  1  0.74595380  0.74079128  0.38324642  1
  O  O314  1  0.73632180  0.75847380  0.87453819  1
  O  O315  1  0.00501346  0.12388491  0.00307078  1
  O  O316  1  0.00772771  0.13078303  0.50758016  1
  O  O317  1  -0.01042040  0.61329399  0.01767069  1
  O  O318  1  0.01029153  0.63211744  0.51135777  1
  O  O319  1  0.51063005  0.11799799  -0.00381416  1
  O  O320  1  0.50509892  0.11809783  0.50939327  1
  O  O321  1  0.52006422  0.63020543  -0.00303698  1
  O  O322  1  0.49760726  0.61682512  0.50968539  1
  O  O323  1  0.50504882  0.38198712  0.48730934  1
  O  O324  1  0.48747489  0.36791402  1.00026373  1
  O  O325  1  0.49559157  0.88103200  0.49173028  1
  O  O326  1  0.49650621  0.88356779  0.99310465  1
  O  O327  1  0.99615387  0.36566333  0.48930504  1
  O  O328  1  1.00009096  0.36726131  0.98677604  1
  O  O329  1  0.98200530  0.86872401  0.50221896  1
  O  O330  1  0.98498539  0.88634955  0.99952896  1
  O  O331  1  0.49567703  0.48901753  0.38611833  1
  O  O332  1  0.48106349  0.50534291  0.88343452  1
  O  O333  1  0.49725161  0.99150160  0.37711755  1
  O  O334  1  0.49519965  0.99628425  0.88654790  1
  O  O335  1  0.99259719  0.48983413  0.37339929  1
  O  O336  1  0.98964203  0.49272794  0.87201111  1
  O  O337  1  0.99220151  0.99463000  0.36958467  1
  O  O338  1  0.99176413  1.00097381  0.87992311  1
  O  O339  1  0.00671853  0.00852418  0.11845753  1
  O  O340  1  0.00849071  0.01565069  0.62732093  1
  O  O341  1  0.00706562  0.50560171  0.13491121  1
  O  O342  1  0.00397008  0.51111064  0.62827406  1
  O  O343  1  0.50886185  -0.00321131  0.11297941  1
  O  O344  1  0.50892187  0.00713236  0.62244475  1
  O  O345  1  0.50260896  0.49031178  0.12142852  1
  O  O346  1  0.50735485  0.50679485  0.62085823  1
  O  O347  1  0.23519319  0.36008710  0.23766084  1
  O  O348  1  0.23774357  0.37000040  0.74367549  1
  O  O349  1  0.25121592  0.88210830  0.25255941  1
  O  O350  1  0.23862630  0.87551988  0.73926167  1
  O  O351  1  0.74298636  0.36415240  0.24528303  1
  O  O352  1  0.75275398  0.37350313  0.74657247  1
  O  O353  1  0.73713923  0.87109386  0.24387516  1
  O  O354  1  0.74638860  0.88293241  0.74300275  1
  O  O355  1  0.25568596  0.11722013  0.25321652  1
  O  O356  1  0.25974296  0.13130899  0.75726085  1
  O  O357  1  0.25858962  0.66631733  0.25312732  1
  O  O358  1  0.26480211  0.62873367  0.74173851  1
  O  O359  1  0.76206432  0.13390972  0.25923102  1
  O  O360  1  0.75427777  0.12376705  0.75844075  1
  O  O361  1  0.75125231  0.63031687  0.26924046  1
  O  O362  1  0.76747354  0.63333339  0.74804418  1
  O  O363  1  0.36816574  0.11860755  0.36529234  1
  O  O364  1  0.37005912  0.11770875  0.86742376  1
  O  O365  1  0.36002992  0.62337475  0.38175472  1
  O  O366  1  0.37519440  0.62072479  0.86490980  1
  O  O367  1  0.86863545  0.12580055  0.36677541  1
  O  O368  1  0.86744640  0.12109800  0.86980286  1
  O  O369  1  0.86748565  0.61683595  0.37672520  1
  O  O370  1  0.88787489  0.61553863  0.86830388  1
  O  O371  1  0.12877854  0.37987211  0.13248621  1
  O  O372  1  0.13030151  0.38123894  0.63053658  1
  O  O373  1  0.11813668  0.88796536  0.12296510  1
  O  O374  1  0.13255705  0.88355261  0.62494830  1
  O  O375  1  0.63506734  0.37439173  0.13953289  1
  O  O376  1  0.62588178  0.38734469  0.62443354  1
  O  O377  1  0.63262815  0.88150404  0.12959885  1
  O  O378  1  0.62951168  0.88096454  0.63334377  1
  O  O379  1  0.11343254  0.25378484  0.24966446  1
  O  O380  1  0.11522309  0.25911995  0.74745263  1
  O  O381  1  0.11342787  0.75207458  0.25650999  1
  O  O382  1  0.11592508  0.76092399  0.74506798  1
  O  O383  1  0.62137342  0.24986572  0.25784973  1
  O  O384  1  0.61043918  0.24584558  0.75283859  1
  O  O385  1  0.61399493  0.75975002  0.25221316  1
  O  O386  1  0.62065775  0.75593971  0.75547122  1
  O  O387  1  0.38415971  0.24643202  0.24063503  1
  O  O388  1  0.38522267  0.23946354  0.74463538  1
  O  O389  1  0.39257255  0.76289555  0.22627784  1
  O  O390  1  0.38140539  0.74830584  0.73819018  1
  O  O391  1  0.88927728  0.24307664  0.25020332  1
  O  O392  1  0.88688318  0.24433201  0.74772082  1
  O  O393  1  0.87798784  0.74958543  0.24277760  1
  O  O394  1  0.87949895  0.74780665  0.73723478  1
  O  O395  1  0.38795220  0.49793936  0.50535697  1
  O  O396  1  0.37622138  0.48881804  0.99326633  1
  O  O397  1  0.38321630  0.99857914  0.49195615  1
  O  O398  1  0.38290657  0.99392959  0.99385258  1
  O  O399  1  0.87300063  0.49067015  0.48963449  1
  O  O400  1  0.86399380  0.50057314  0.98156867  1
  O  O401  1  0.86889521  0.98440972  0.50318312  1
  O  O402  1  0.87716168  0.99700230  0.99500176  1
  O  O403  1  0.12058850  0.00564754  0.00373554  1
  O  O404  1  0.12547765  0.00809706  0.51033905  1
  O  O405  1  0.12326907  0.49318368  0.01305134  1
  O  O406  1  0.12177868  0.50691678  0.51396049  1
  O  O407  1  0.61902368  0.00636320  0.00877243  1
  O  O408  1  0.62060377  -0.00004975  0.50842261  1
  O  O409  1  0.62131813  0.51763740  0.00717044  1
  O  O410  1  0.61381281  0.49854622  0.51316310  1
  O  O411  1  0.36594941  0.36402745  0.11730062  1
  O  O412  1  0.36004077  0.37689327  0.63112614  1
  O  O413  1  0.37901765  0.87558585  0.10811316  1
  O  O414  1  0.36999018  0.87265905  0.62211037  1
  O  O415  1  0.86860852  0.37585016  0.12469731  1
  O  O416  1  0.88613257  0.37644415  0.61233647  1
  O  O417  1  0.86848357  0.87172599  0.12000222  1
  O  O418  1  0.86920381  0.87013824  0.61704949  1
  O  O419  1  0.13048613  0.12358376  0.37761736  1
  O  O420  1  0.13706708  0.11809686  0.87774339  1
  O  O421  1  0.12446590  0.63045714  0.38275691  1
  O  O422  1  0.12702973  0.62852026  0.87410984  1
  O  O423  1  0.63358787  0.13354979  0.37530473  1
  O  O424  1  0.63556320  0.11911660  0.88903662  1
  O  O425  1  0.63587582  0.62499925  0.37659875  1
  O  O426  1  0.62110478  0.63460120  0.86900639  1
