# generated using pymatgen
data_V85Zn86O256
_symmetry_space_group_name_H-M   'P 1'
_cell_length_a   16.92634448
_cell_length_b   16.93654780
_cell_length_c   16.93267111
_cell_angle_alpha   90.01936451
_cell_angle_beta   89.99506022
_cell_angle_gamma   90.04823997
_symmetry_Int_Tables_number   1
_chemical_formula_structural   V85Zn86O256
_chemical_formula_sum   'V85 Zn86 O256'
_cell_volume   4854.15187278
_cell_formula_units_Z   1
loop_
 _symmetry_equiv_pos_site_id
 _symmetry_equiv_pos_as_xyz
  1  'x, y, z'
loop_
 _atom_site_type_symbol
 _atom_site_label
 _atom_site_symmetry_multiplicity
 _atom_site_fract_x
 _atom_site_fract_y
 _atom_site_fract_z
 _atom_site_occupancy
  V  V0  1  0.12960500  0.00198195  0.63143023  1
  V  V1  1  0.25444939  0.50010894  0.25549064  1
  V  V2  1  0.00865388  -0.00368331  -0.01421630  1
  V  V3  1  0.50919696  0.37231299  0.86977515  1
  V  V4  1  0.87515176  0.50030841  0.37712112  1
  V  V5  1  0.25196332  0.37348812  0.12539001  1
  V  V6  1  0.37259046  -0.00035595  0.87490964  1
  V  V7  1  0.36737376  0.62644575  0.75103701  1
  V  V8  1  0.37193276  0.51329374  0.37569437  1
  V  V9  1  0.86568771  0.11341029  0.75375016  1
  V  V10  1  0.49679341  0.50096797  0.50468210  1
  V  V11  1  0.51636916  0.25408427  0.25064909  1
  V  V12  1  0.00017482  0.75834676  0.75373313  1
  V  V13  1  0.00326480  0.25036507  0.25067610  1
  V  V14  1  0.49070817  0.74576531  0.24959614  1
  V  V15  1  0.62072312  0.74638703  0.86526163  1
  V  V16  1  0.88113760  0.62320795  0.74444874  1
  V  V17  1  0.49817696  0.00027704  0.49330701  1
  V  V18  1  0.63208163  -0.00125258  0.62906064  1
  V  V19  1  0.37783344  0.75252182  0.63104265  1
  V  V20  1  0.19055305  0.68006458  0.32772994  1
  V  V21  1  0.87685877  0.63038565  0.25212768  1
  V  V22  1  0.36891796  0.49712940  0.87279700  1
  V  V23  1  0.87684484  0.24982719  0.12569302  1
  V  V24  1  0.24631631  0.24151684  0.00164537  1
  V  V25  1  0.75372735  0.24850012  -0.01252668  1
  V  V26  1  0.12505420  0.49651228  0.12623452  1
  V  V27  1  0.13103145  0.62809321  -0.00304758  1
  V  V28  1  0.75723850  0.74626888  0.00169501  1
  V  V29  1  0.24142298  0.12051398  0.87497898  1
  V  V30  1  0.12111260  0.26318212  0.87218478  1
  V  V31  1  0.75728657  0.87923039  0.13025725  1
  V  V32  1  0.37176353  0.87824210  0.49733790  1
  V  V33  1  0.87210695  0.87460690  0.49670447  1
  V  V34  1  0.13289724  0.25230865  0.37790103  1
  V  V35  1  0.62801833  0.12021043  -0.00015422  1
  V  V36  1  0.12406494  0.00985233  0.12891425  1
  V  V37  1  0.00060988  0.00095083  0.49616782  1
  V  V38  1  0.12772390  0.75981103  0.87958191  1
  V  V39  1  0.87230285  0.12667621  0.25901358  1
  V  V40  1  0.37422941  0.86690165  0.00083595  1
  V  V41  1  0.74623040  0.49768161  0.25022607  1
  V  V42  1  0.62387793  0.75176010  0.37385015  1
  V  V43  1  0.24927299  0.87730841  0.63449183  1
  V  V44  1  0.25894741  0.12476067  0.37672399  1
  V  V45  1  0.37293601  0.11979383  0.74988429  1
  V  V46  1  0.50204964  0.62788572  0.63422870  1
  V  V47  1  0.50156489  0.12351844  0.62296039  1
  V  V48  1  0.87173939  0.37512033  0.50073272  1
  V  V49  1  0.74296960  0.24799693  0.48590691  1
  V  V50  1  0.13168548  0.13097106  0.50121963  1
  V  V51  1  0.62286848  0.49639966  0.13005365  1
  V  V52  1  0.25308128  -0.00521967  0.25679939  1
  V  V53  1  0.12914545  0.49397858  0.63883109  1
  V  V54  1  0.62412805  0.62547200  0.00157401  1
  V  V55  1  0.74376652  0.37196007  0.12818106  1
  V  V56  1  0.61945206  0.49172349  0.62995712  1
  V  V57  1  0.74813453  0.62642536  0.37597788  1
  V  V58  1  0.74454996  0.00605917  0.25400299  1
  V  V59  1  0.87816334  0.49932445  0.87451512  1
  V  V60  1  0.00236579  0.49713584  -0.00442260  1
  V  V61  1  0.50791499  0.25063816  0.74697269  1
  V  V62  1  0.49609779  0.86969567  0.86550966  1
  V  V63  1  0.87968588  0.74556839  0.62163240  1
  V  V64  1  -0.00175553  0.12774381  0.62626896  1
  V  V65  1  0.88095397  0.37379240  0.00120140  1
  V  V66  1  0.37824804  0.24665160  0.12831577  1
  V  V67  1  0.12663099  0.63007257  0.51508109  1
  V  V68  1  0.50512161  0.11706525  0.12500011  1
  V  V69  1  0.36753295  0.24828282  0.61856102  1
  V  V70  1  0.01312722  0.86817938  0.37120709  1
  V  V71  1  0.50142228  0.49567027  -0.00038936  1
  V  V72  1  0.36429363  0.37153814  0.49698006  1
  V  V73  1  0.62742213  0.12674561  0.48514168  1
  V  V74  1  0.51010842  0.37512540  0.37114103  1
  V  V75  1  0.86976262  0.24828994  0.62406267  1
  V  V76  1  0.83474085  0.92625883  -0.05213986  1
  V  V77  1  0.24064644  0.87253601  0.12000582  1
  V  V78  1  -0.00233077  0.62680161  0.12408755  1
  V  V79  1  0.62160416  0.87841980  0.23966098  1
  V  V80  1  0.74658080  0.49097752  0.74961042  1
  V  V81  1  0.00045135  0.50417564  0.50896492  1
  V  V82  1  0.49134443  0.62343363  0.12880949  1
  V  V83  1  0.49627936  0.87761269  0.37269654  1
  V  V84  1  0.74979270  0.62323177  0.87370948  1
  Zn  Zn85  1  0.63297029  0.24637857  0.86572103  1
  Zn  Zn86  1  0.37839306  0.37079346  -0.00076870  1
  Zn  Zn87  1  0.73987905  0.36856441  0.62750567  1
  Zn  Zn88  1  0.87209003  0.00201441  0.37514375  1
  Zn  Zn89  1  0.01364643  0.75385829  0.25067828  1
  Zn  Zn90  1  0.88198273  0.75614435  0.12274691  1
  Zn  Zn91  1  0.12242105  0.88484992  0.75800421  1
  Zn  Zn92  1  0.00309212  0.37524332  0.37749612  1
  Zn  Zn93  1  0.50206999  -0.00323643  0.00313993  1
  Zn  Zn94  1  0.75550928  0.87675725  0.63312233  1
  Zn  Zn95  1  0.24683454  0.74960538  0.49898417  1
  Zn  Zn96  1  0.23957252  0.36864890  0.63644134  1
  Zn  Zn97  1  0.12611957  0.37517341  0.25382294  1
  Zn  Zn98  1  0.62338493  0.62632930  0.50218153  1
  Zn  Zn99  1  0.74830577  0.75192529  0.50131493  1
  Zn  Zn100  1  0.75326176  0.10079184  0.87349827  1
  Zn  Zn101  1  0.24994175  0.62618223  0.87537388  1
  Zn  Zn102  1  0.37950388  0.12149128  0.25328319  1
  Zn  Zn103  1  0.36995811  0.74736654  0.12322074  1
  Zn  Zn104  1  0.62727634  0.87426628  0.74801351  1
  Zn  Zn105  1  0.00998878  0.26290502  0.74610904  1
  Zn  Zn106  1  0.00208867  0.12575945  0.12059948  1
  Zn  Zn107  1  0.19030229  0.18511870  0.19264728  1
  Zn  Zn108  1  0.18930366  0.18713186  0.69345240  1
  Zn  Zn109  1  0.18868893  0.68551246  0.16722210  1
  Zn  Zn110  1  0.18707957  0.69073863  0.68883328  1
  Zn  Zn111  1  0.68944617  0.18633479  0.18452397  1
  Zn  Zn112  1  0.69082553  0.18049437  0.68272756  1
  Zn  Zn113  1  0.68436869  0.68867373  0.18736498  1
  Zn  Zn114  1  0.69355466  0.68485020  0.68545094  1
  Zn  Zn115  1  0.31796567  0.31372159  0.31307972  1
  Zn  Zn116  1  0.31551005  0.30577854  0.81436102  1
  Zn  Zn117  1  0.31381428  0.82040070  0.30945499  1
  Zn  Zn118  1  0.30820020  0.81056154  0.81217649  1
  Zn  Zn119  1  0.81215781  0.31373700  0.31203713  1
  Zn  Zn120  1  0.84676739  0.32360113  0.80105225  1
  Zn  Zn121  1  0.81480895  0.81500274  0.31401452  1
  Zn  Zn122  1  0.80758195  0.81132136  0.80641155  1
  Zn  Zn123  1  0.18711763  0.44159149  0.44219657  1
  Zn  Zn124  1  0.19035504  0.43587639  0.94065337  1
  Zn  Zn125  1  0.18877358  0.94073419  0.44364064  1
  Zn  Zn126  1  0.18787878  0.94150511  0.94162759  1
  Zn  Zn127  1  0.68600044  0.43930490  0.44195476  1
  Zn  Zn128  1  0.68869119  0.43401682  0.93836495  1
  Zn  Zn129  1  0.68588530  0.93812583  0.43524468  1
  Zn  Zn130  1  0.67140607  0.93155357  0.94198425  1
  Zn  Zn131  1  0.31501002  0.05907723  0.06152849  1
  Zn  Zn132  1  0.31271057  0.06099376  0.56243355  1
  Zn  Zn133  1  0.31384357  0.55901690  0.06077405  1
  Zn  Zn134  1  0.30809021  0.56244444  0.56495594  1
  Zn  Zn135  1  0.81234417  0.06658535  0.07171444  1
  Zn  Zn136  1  0.81064642  0.06482016  0.55632167  1
  Zn  Zn137  1  0.81341771  0.56143398  0.06412614  1
  Zn  Zn138  1  0.80803150  0.56238223  0.56434982  1
  Zn  Zn139  1  0.43458150  0.43620426  0.19130066  1
  Zn  Zn140  1  0.39895989  0.41781973  0.70678319  1
  Zn  Zn141  1  0.43236211  0.93690148  0.18616740  1
  Zn  Zn142  1  0.44074828  0.93939838  0.68617427  1
  Zn  Zn143  1  0.93650732  0.43757704  0.18821096  1
  Zn  Zn144  1  0.94048533  0.43486154  0.68626616  1
  Zn  Zn145  1  0.93882352  0.93959491  0.19249564  1
  Zn  Zn146  1  0.93976140  0.93604491  0.68272180  1
  Zn  Zn147  1  0.06606246  0.06379148  0.31199286  1
  Zn  Zn148  1  0.05771757  0.07131211  0.80971193  1
  Zn  Zn149  1  0.05850049  0.55630545  0.31327659  1
  Zn  Zn150  1  0.06067471  0.56803734  0.81347284  1
  Zn  Zn151  1  0.56047199  0.06139232  0.30883304  1
  Zn  Zn152  1  0.56113524  0.06342786  0.81478210  1
  Zn  Zn153  1  0.56085390  0.56101099  0.31313709  1
  Zn  Zn154  1  0.55872995  0.56135774  0.81052659  1
  Zn  Zn155  1  0.44242148  0.19086795  0.43525665  1
  Zn  Zn156  1  0.43790325  0.18719555  0.93828150  1
  Zn  Zn157  1  0.43665370  0.69090461  0.44384101  1
  Zn  Zn158  1  0.43779333  0.68596835  0.93776229  1
  Zn  Zn159  1  0.94045276  0.19071950  0.43773543  1
  Zn  Zn160  1  0.94179151  0.17859850  0.93781205  1
  Zn  Zn161  1  0.94386466  0.68778114  0.43901030  1
  Zn  Zn162  1  0.94053370  0.68887061  0.93392114  1
  Zn  Zn163  1  0.06616676  0.30983301  0.06093792  1
  Zn  Zn164  1  0.06093829  0.31479338  0.56115925  1
  Zn  Zn165  1  0.05793386  0.81870312  0.05781332  1
  Zn  Zn166  1  0.05917221  0.81422741  0.56576637  1
  Zn  Zn167  1  0.56614696  0.30675707  0.05956453  1
  Zn  Zn168  1  0.55683784  0.31199016  0.55877249  1
  Zn  Zn169  1  0.56191879  0.80998823  0.05879128  1
  Zn  Zn170  1  0.56106580  0.81325271  0.56130923  1
  O  O171  1  0.12781682  0.11313780  0.12524240  1
  O  O172  1  0.11982490  0.12362260  0.62035981  1
  O  O173  1  0.11359066  0.61702157  0.11820379  1
  O  O174  1  0.12408776  0.61583494  0.61982753  1
  O  O175  1  0.61636319  0.13138247  0.11444956  1
  O  O176  1  0.61991629  0.11304637  0.61519521  1
  O  O177  1  0.61657804  0.61780900  0.11978487  1
  O  O178  1  0.61712865  0.61961588  0.62370767  1
  O  O179  1  0.38184571  0.38298377  0.38282603  1
  O  O180  1  0.38796663  0.38215474  0.87995957  1
  O  O181  1  0.38199938  0.87188625  0.38551989  1
  O  O182  1  0.37724013  0.87908908  0.87857464  1
  O  O183  1  0.87456396  0.38162650  0.38593415  1
  O  O184  1  0.86566492  0.38599119  0.89640393  1
  O  O185  1  0.88550869  0.87747644  0.38301228  1
  O  O186  1  0.88030004  0.86658484  0.88305697  1
  O  O187  1  0.24365647  0.00561774  0.36316774  1
  O  O188  1  0.26226907  0.00597383  0.87897934  1
  O  O189  1  0.25765258  0.49509427  0.36726205  1
  O  O190  1  0.26524638  0.50284836  0.88473999  1
  O  O191  1  0.75240547  -0.00608152  0.35930106  1
  O  O192  1  0.76651947  -0.01766384  0.89396651  1
  O  O193  1  0.75426416  0.50691123  0.37119214  1
  O  O194  1  0.75365445  0.50440892  0.86943612  1
  O  O195  1  0.24805541  0.49250727  0.13153185  1
  O  O196  1  0.23221352  0.49800895  0.62478703  1
  O  O197  1  0.24175435  0.99455655  0.13079869  1
  O  O198  1  0.24035652  0.99258022  0.62057360  1
  O  O199  1  0.74450887  0.49247400  0.12905229  1
  O  O200  1  0.73780407  0.49894079  0.63238632  1
  O  O201  1  0.75190246  0.99030783  0.13701901  1
  O  O202  1  0.73468415  0.99881585  0.61524395  1
  O  O203  1  0.00056308  0.36384366  0.25317186  1
  O  O204  1  -0.04566212  0.35852053  0.76434624  1
  O  O205  1  0.00102466  0.87420500  0.26624470  1
  O  O206  1  0.00273104  0.86292570  0.74567067  1
  O  O207  1  0.49605713  0.36727149  0.25853603  1
  O  O208  1  0.49287810  0.36294559  0.75797315  1
  O  O209  1  0.50503216  0.87026011  0.25116629  1
  O  O210  1  0.50296782  0.87601710  0.76178447  1
  O  O211  1  0.49924654  0.13364462  0.24284002  1
  O  O212  1  0.49440342  0.12898975  0.74335843  1
  O  O213  1  0.50499735  0.63341165  0.24086922  1
  O  O214  1  0.49267214  0.62643507  0.73862565  1
  O  O215  1  0.99561444  0.13674665  0.24932294  1
  O  O216  1  0.99158637  0.13457554  0.73732348  1
  O  O217  1  0.99356120  0.62557892  0.24368092  1
  O  O218  1  0.98600723  0.63451440  0.75385948  1
  O  O219  1  0.36708044  0.24967506  0.01095088  1
  O  O220  1  0.37966717  0.25752426  0.50617488  1
  O  O221  1  0.37698622  0.76224053  0.00046664  1
  O  O222  1  0.37280387  0.76143514  0.51105971  1
  O  O223  1  0.87353581  0.25528324  0.00424023  1
  O  O224  1  0.86824551  0.25532453  0.50477973  1
  O  O225  1  0.86255238  0.73985468  0.00314206  1
  O  O226  1  0.87630220  0.75594904  0.50522581  1
  O  O227  1  0.12152713  0.23924657  0.49400820  1
  O  O228  1  0.13921123  0.25099001  0.99210248  1
  O  O229  1  0.12237477  0.73437209  0.50901926  1
  O  O230  1  0.11637328  0.74384593  0.98827081  1
  O  O231  1  0.63042873  0.23977927  0.50445165  1
  O  O232  1  0.63667838  0.23883070  0.99466102  1
  O  O233  1  0.62471594  0.74943328  0.48600644  1
  O  O234  1  0.63666814  0.74522179  0.99337817  1
  O  O235  1  0.49416378  0.24413921  0.12983033  1
  O  O236  1  0.49371383  0.24141386  0.62905161  1
  O  O237  1  0.50063201  0.74058106  0.13177660  1
  O  O238  1  0.49102353  0.74057866  0.61787449  1
  O  O239  1  0.99687026  0.24873320  0.13252241  1
  O  O240  1  0.99132356  0.24324098  0.62290058  1
  O  O241  1  1.00206271  0.74268652  0.13015695  1
  O  O242  1  0.98745667  0.75128302  0.63277164  1
  O  O243  1  0.01338754  0.25122299  0.36904338  1
  O  O244  1  0.02042474  0.24242724  0.88062479  1
  O  O245  1  0.00063619  0.76374151  0.37304122  1
  O  O246  1  0.01369551  0.74601441  0.86664560  1
  O  O247  1  0.49653887  0.26170351  0.36266227  1
  O  O248  1  0.50158328  0.25521627  0.86617556  1
  O  O249  1  0.50520108  0.75349066  0.36832470  1
  O  O250  1  0.50907472  0.75624326  0.88053679  1
  O  O251  1  0.24159434  0.11864913  0.49175708  1
  O  O252  1  0.25747215  0.13164889  0.99040291  1
  O  O253  1  0.23241744  0.62654616  0.50256109  1
  O  O254  1  0.23441850  0.62338795  1.00595637  1
  O  O255  1  0.74011793  0.13417578  0.49814199  1
  O  O256  1  0.74810468  0.13115810  0.99694961  1
  O  O257  1  0.74813816  0.62667151  0.48631309  1
  O  O258  1  0.74398172  0.62888546  0.99712592  1
  O  O259  1  0.25436663  0.36758131  0.01250300  1
  O  O260  1  0.26222380  0.37845430  0.50676651  1
  O  O261  1  0.25673841  0.88118389  0.01345102  1
  O  O262  1  0.25704287  0.87371627  0.50877568  1
  O  O263  1  0.75626772  0.36869278  0.01090205  1
  O  O264  1  0.75509933  0.36946629  0.50304662  1
  O  O265  1  0.75833687  0.87028451  0.00634711  1
  O  O266  1  0.76179480  0.87387635  0.49779851  1
  O  O267  1  0.13508120  0.49774507  0.24540997  1
  O  O268  1  0.11537618  0.50327832  0.73716982  1
  O  O269  1  0.13803987  1.00412994  0.23932781  1
  O  O270  1  0.11565335  1.00254685  0.73556364  1
  O  O271  1  0.63400150  0.50465780  0.24241757  1
  O  O272  1  0.63360162  0.50560152  0.74242936  1
  O  O273  1  0.63001142  0.98955632  0.25109078  1
  O  O274  1  0.61664807  1.00195216  0.73130341  1
  O  O275  1  0.35839751  0.00312880  0.24626383  1
  O  O276  1  0.38131461  0.01113820  0.75619757  1
  O  O277  1  0.36297033  0.50067035  0.25773848  1
  O  O278  1  0.38960842  0.51499169  0.76534730  1
  O  O279  1  0.86796734  0.01063592  0.25246414  1
  O  O280  1  0.88362488  0.01576896  0.74139216  1
  O  O281  1  0.86881738  0.51081585  0.25468611  1
  O  O282  1  0.86884358  0.50808013  0.75260289  1
  O  O283  1  0.12607216  0.36651133  0.37658392  1
  O  O284  1  0.12956223  0.36236130  0.87803395  1
  O  O285  1  0.11159196  0.87755530  0.38501469  1
  O  O286  1  0.12971248  0.86441743  0.87629906  1
  O  O287  1  0.60952975  0.38432877  0.37710202  1
  O  O288  1  0.61367422  0.36994289  0.87816053  1
  O  O289  1  0.61790155  0.86789596  0.36519922  1
  O  O290  1  0.61360592  0.86404222  0.87417217  1
  O  O291  1  0.38389278  0.13152460  0.12509569  1
  O  O292  1  0.38073319  0.12790354  0.62957153  1
  O  O293  1  0.38681106  0.62684274  0.11968625  1
  O  O294  1  0.37938790  0.63134088  0.63105454  1
  O  O295  1  0.87805823  0.13466574  0.13847263  1
  O  O296  1  0.88139761  0.12946429  0.62448795  1
  O  O297  1  0.88533284  0.62481045  0.13216104  1
  O  O298  1  0.87050503  0.63152796  0.63272439  1
  O  O299  1  0.25546342  0.25335040  0.12125015  1
  O  O300  1  0.26365260  0.24747432  0.62708421  1
  O  O301  1  0.25249236  0.76729291  0.12752412  1
  O  O302  1  0.25728643  0.75866746  0.62233139  1
  O  O303  1  0.75708922  0.25679552  0.11669941  1
  O  O304  1  0.75459198  0.25048834  0.61415971  1
  O  O305  1  0.75030190  0.75704151  0.11747040  1
  O  O306  1  0.76296296  0.75138858  0.62042262  1
  O  O307  1  0.24033347  0.24201381  0.36751530  1
  O  O308  1  0.24652172  0.24282123  0.88364899  1
  O  O309  1  0.25125886  0.74740120  0.37718238  1
  O  O310  1  0.23307052  0.74582673  0.87225837  1
  O  O311  1  0.74983755  0.25560445  0.38644467  1
  O  O312  1  0.75586333  0.25786389  0.88540052  1
  O  O313  1  0.74152712  0.74362675  0.37337752  1
  O  O314  1  0.74374551  0.74190666  0.88334314  1
  O  O315  1  -0.00617199  0.10463483  0.00658806  1
  O  O316  1  0.00580956  0.12030756  0.50791566  1
  O  O317  1  0.00619938  0.61862824  0.00771672  1
  O  O318  1  0.01288567  0.61592740  0.49676955  1
  O  O319  1  0.50925687  0.12578313  0.00679784  1
  O  O320  1  0.50423006  0.11778555  0.50287741  1
  O  O321  1  0.50549583  0.61640638  0.00699053  1
  O  O322  1  0.49824469  0.61425828  0.50886056  1
  O  O323  1  0.49351461  0.38628935  0.49162310  1
  O  O324  1  0.50062744  0.38071866  0.99508277  1
  O  O325  1  0.49318380  0.88202564  0.49378603  1
  O  O326  1  0.49346430  0.87676924  0.99171122  1
  O  O327  1  0.98933100  0.38242609  0.49823175  1
  O  O328  1  0.99329335  0.38465139  1.00835998  1
  O  O329  1  0.99351045  0.88305181  0.49380463  1
  O  O330  1  0.99222823  0.89638101  1.00808120  1
  O  O331  1  0.49180782  0.49639845  0.38171102  1
  O  O332  1  0.49782353  0.49292982  0.88343194  1
  O  O333  1  0.50135073  0.99512125  0.38542292  1
  O  O334  1  0.48899821  0.99190542  0.87701916  1
  O  O335  1  0.99177799  0.49689395  0.38606421  1
  O  O336  1  0.99531122  0.50612995  0.88872410  1
  O  O337  1  1.00173668  0.99561632  0.38477278  1
  O  O338  1  1.01008672  1.00047104  0.88588204  1
  O  O339  1  0.01705880  0.00126069  0.13369935  1
  O  O340  1  0.00607987  0.00751585  0.61266661  1
  O  O341  1  0.00399524  0.50664262  0.11859877  1
  O  O342  1  0.00671049  0.49643196  0.61527623  1
  O  O343  1  0.49583210  0.01334491  0.12575641  1
  O  O344  1  0.50693600  0.00393218  0.61193590  1
  O  O345  1  0.50200939  0.50385610  0.12061091  1
  O  O346  1  0.50388017  0.50810107  0.61898169  1
  O  O347  1  0.25122258  0.38198164  0.24077643  1
  O  O348  1  0.29166573  0.37963746  0.73636631  1
  O  O349  1  0.25197513  0.88738940  0.23857686  1
  O  O350  1  0.24524871  0.87467403  0.73848670  1
  O  O351  1  0.75737307  0.38074464  0.23609400  1
  O  O352  1  0.75793785  0.38799268  0.74819261  1
  O  O353  1  0.74170255  0.87869887  0.24482599  1
  O  O354  1  0.74142291  0.87466521  0.74602637  1
  O  O355  1  0.25343830  0.11429757  0.25866669  1
  O  O356  1  0.26222848  0.12803922  0.76048919  1
  O  O357  1  0.24241624  0.62192338  0.25747070  1
  O  O358  1  0.26343575  0.62628930  0.74978892  1
  O  O359  1  0.75733807  0.11775728  0.24559330  1
  O  O360  1  0.76024067  0.11584636  0.75120321  1
  O  O361  1  0.75537487  0.62132449  0.25864798  1
  O  O362  1  0.76012945  0.61660289  0.75581527  1
  O  O363  1  0.36257697  0.12985111  0.37606570  1
  O  O364  1  0.37135414  0.11730232  0.86882553  1
  O  O365  1  0.37726040  0.61283157  0.38309279  1
  O  O366  1  0.37325728  0.62019714  0.86915632  1
  O  O367  1  0.88027701  0.12601522  0.36329034  1
  O  O368  1  0.87222454  0.12859893  0.85787737  1
  O  O369  1  0.86968676  0.62157574  0.36983816  1
  O  O370  1  0.86904570  0.61779727  0.86946727  1
  O  O371  1  0.13497678  0.37935821  0.12756907  1
  O  O372  1  0.12378957  0.38687184  0.62475743  1
  O  O373  1  0.13666248  0.88333349  0.12150060  1
  O  O374  1  0.13198757  0.88533839  0.62348049  1
  O  O375  1  0.63424017  0.38100889  0.11871890  1
  O  O376  1  0.62054119  0.38786091  0.62176591  1
  O  O377  1  0.63313248  0.86780220  0.13492479  1
  O  O378  1  0.62306514  0.88812551  0.62223213  1
  O  O379  1  0.11942687  0.25114844  0.25771489  1
  O  O380  1  0.12616071  0.25196005  0.76479165  1
  O  O381  1  0.13341533  0.73450977  0.26184963  1
  O  O382  1  0.11680818  0.75087564  0.75992314  1
  O  O383  1  0.61560556  0.25161628  0.24384791  1
  O  O384  1  0.61325234  0.24114121  0.74656219  1
  O  O385  1  0.61624782  0.75656963  0.25809556  1
  O  O386  1  0.62849476  0.74437392  0.76276167  1
  O  O387  1  0.37890392  0.24703841  0.23761028  1
  O  O388  1  0.38748426  0.23511951  0.74264985  1
  O  O389  1  0.38757567  0.75492947  0.24700280  1
  O  O390  1  0.37383373  0.74502598  0.73924847  1
  O  O391  1  0.88259731  0.24679868  0.24705423  1
  O  O392  1  0.86376062  0.23266987  0.73019778  1
  O  O393  1  0.87495354  0.73693475  0.24898396  1
  O  O394  1  0.88095884  0.74327992  0.74381909  1
  O  O395  1  0.37926569  0.49419549  0.49672829  1
  O  O396  1  0.38853862  0.49895082  0.99390202  1
  O  O397  1  0.38342687  0.98726834  0.50649728  1
  O  O398  1  0.37872080  0.98909584  0.99165423  1
  O  O399  1  0.87949177  0.49431721  0.49954034  1
  O  O400  1  0.88363874  0.49432172  0.99907151  1
  O  O401  1  0.88302572  0.99446291  0.49710273  1
  O  O402  1  0.88363506  0.99832233  1.00407310  1
  O  O403  1  0.11621412  -0.00180467  0.01309967  1
  O  O404  1  0.11831784  0.01229710  0.50795535  1
  O  O405  1  0.11881882  0.50544120  0.00467918  1
  O  O406  1  0.11733286  0.50840612  0.50866276  1
  O  O407  1  0.62186026  0.01390975  -0.00012170  1
  O  O408  1  0.61743514  0.00518424  0.50410890  1
  O  O409  1  0.61611118  0.50321361  0.00597112  1
  O  O410  1  0.61486684  0.50429800  0.50901341  1
  O  O411  1  0.36859497  0.36678939  0.12327905  1
  O  O412  1  0.38755776  0.36095584  0.60787124  1
  O  O413  1  0.36521167  0.87454888  0.11625089  1
  O  O414  1  0.36998640  0.86998341  0.62244451  1
  O  O415  1  0.86872302  0.37104076  0.11714108  1
  O  O416  1  0.87006009  0.36642981  0.61230413  1
  O  O417  1  0.86321778  0.87143133  0.13605214  1
  O  O418  1  0.87589863  0.86844112  0.61277609  1
  O  O419  1  0.13410099  0.13126325  0.38301518  1
  O  O420  1  0.13924052  0.12958541  0.86957584  1
  O  O421  1  0.12696744  0.62251529  0.38467462  1
  O  O422  1  0.12806619  0.63159573  0.88282665  1
  O  O423  1  0.61935727  0.12236407  0.38586430  1
  O  O424  1  0.63552807  0.12434653  0.88011800  1
  O  O425  1  0.63186318  0.63280970  0.37475222  1
  O  O426  1  0.62752115  0.62867805  0.88178748  1
