# generated using pymatgen
data_V85Zn86O256
_symmetry_space_group_name_H-M   'P 1'
_cell_length_a   16.94897602
_cell_length_b   16.93388352
_cell_length_c   16.93950236
_cell_angle_alpha   89.98998019
_cell_angle_beta   89.97975412
_cell_angle_gamma   90.07741694
_symmetry_Int_Tables_number   1
_chemical_formula_structural   V85Zn86O256
_chemical_formula_sum   'V85 Zn86 O256'
_cell_volume   4861.83539517
_cell_formula_units_Z   1
loop_
 _symmetry_equiv_pos_site_id
 _symmetry_equiv_pos_as_xyz
  1  'x, y, z'
loop_
 _atom_site_type_symbol
 _atom_site_label
 _atom_site_symmetry_multiplicity
 _atom_site_fract_x
 _atom_site_fract_y
 _atom_site_fract_z
 _atom_site_occupancy
  V  V0  1  0.36950781  -0.01314505  0.36966460  1
  V  V1  1  0.50134243  0.12606207  0.12476279  1
  V  V2  1  0.87222944  0.74438048  0.62808566  1
  V  V3  1  0.75135926  0.12363946  0.35966771  1
  V  V4  1  0.37377070  0.61973391  0.24907624  1
  V  V5  1  0.49689109  0.12475874  0.62595419  1
  V  V6  1  0.74988081  -0.00539737  0.74645652  1
  V  V7  1  0.75631895  0.36925049  0.62632726  1
  V  V8  1  0.00757877  0.74967103  0.25179328  1
  V  V9  1  0.25630497  0.75472460  0.49212678  1
  V  V10  1  0.24877728  0.74968757  0.00049060  1
  V  V11  1  0.00511230  0.88502129  0.38197596  1
  V  V12  1  0.11980721  0.37536286  0.76158067  1
  V  V13  1  0.75183950  0.37708267  0.12337189  1
  V  V14  1  0.13518238  0.24921055  0.37865320  1
  V  V15  1  0.62617763  0.36476046  0.75741634  1
  V  V16  1  0.23906816  0.24688355  0.00097386  1
  V  V17  1  0.50953893  0.50158701  -0.00257397  1
  V  V18  1  0.00372144  0.00966045  -0.00171799  1
  V  V19  1  0.13034781  0.00942437  0.12419846  1
  V  V20  1  0.24345120  0.12599296  0.87891680  1
  V  V21  1  0.50312326  0.76002620  0.25359543  1
  V  V22  1  0.74854055  0.74807228  0.00133908  1
  V  V23  1  0.11876502  0.50266208  0.60947091  1
  V  V24  1  0.12655376  0.00154332  0.62486547  1
  V  V25  1  0.24581307  -0.00152889  0.75279501  1
  V  V26  1  -0.04622810  0.05801836  0.56043685  1
  V  V27  1  0.87422517  0.24939069  0.12809030  1
  V  V28  1  0.87647790  0.75273943  0.12831370  1
  V  V29  1  0.50236142  0.00072113  0.00015081  1
  V  V30  1  0.62309490  -0.00755049  0.62286180  1
  V  V31  1  0.49808875  0.25038943  0.25615064  1
  V  V32  1  0.49744277  0.87531964  0.87603740  1
  V  V33  1  0.24882794  0.87847548  0.12968179  1
  V  V34  1  0.49859258  0.48805156  0.49493170  1
  V  V35  1  0.37340875  0.24886876  0.12198272  1
  V  V36  1  0.24506156  0.37120199  0.61703321  1
  V  V37  1  0.12623017  0.75602386  0.86995143  1
  V  V38  1  0.74480916  0.62351054  0.87432993  1
  V  V39  1  0.62224516  0.25467730  0.37716815  1
  V  V40  1  0.50957772  0.62644365  0.12206359  1
  V  V41  1  0.74949773  0.50474903  0.75067948  1
  V  V42  1  0.49891900  0.74761803  0.74983334  1
  V  V43  1  0.00107333  0.37622576  0.38163878  1
  V  V44  1  0.62429214  0.49799426  0.62438763  1
  V  V45  1  0.25171416  0.62139684  0.37591249  1
  V  V46  1  0.74805226  0.87972721  0.13927078  1
  V  V47  1  0.08446247  0.69383095  0.43273893  1
  V  V48  1  0.36999210  0.25002503  0.62203106  1
  V  V49  1  0.74912169  0.50078630  0.25186666  1
  V  V50  1  0.62677937  0.87401122  0.74925374  1
  V  V51  1  -0.00820645  0.24328806  0.74413452  1
  V  V52  1  0.12757214  0.88125162  0.25467861  1
  V  V53  1  0.87306584  0.87753988  0.50396649  1
  V  V54  1  0.37540370  0.49080400  0.37195454  1
  V  V55  1  0.74488139  0.75721270  0.50551567  1
  V  V56  1  0.00141182  0.24830401  0.25121489  1
  V  V57  1  0.92064990  0.57663277  0.80454539  1
  V  V58  1  0.62289870  0.74782528  0.88143592  1
  V  V59  1  -0.00482868  0.12538707  0.12635454  1
  V  V60  1  -0.00029230  0.61601770  0.12288210  1
  V  V61  1  0.37636817  0.49661402  0.87173059  1
  V  V62  1  0.37524829  0.74954365  0.12631019  1
  V  V63  1  0.62299415  0.62402826  0.49542426  1
  V  V64  1  0.75942315  0.24948742  0.50032272  1
  V  V65  1  0.87582658  0.87812645  0.00048160  1
  V  V66  1  0.25116748  0.38419531  0.12828117  1
  V  V67  1  0.13778715  0.12503396  0.50310468  1
  V  V68  1  0.87463151  0.00350305  0.87374509  1
  V  V69  1  0.62118727  0.12536587  0.49770092  1
  V  V70  1  0.37490804  0.75379638  0.62051515  1
  V  V71  1  0.24817301  0.87322350  0.62792141  1
  V  V72  1  0.00214330  0.75666862  0.74702867  1
  V  V73  1  0.61964257  0.37799883  0.25085675  1
  V  V74  1  0.62106963  0.76505758  0.37340374  1
  V  V75  1  0.87338226  0.00437019  0.35621924  1
  V  V76  1  0.49598228  0.62256179  0.62288419  1
  V  V77  1  0.87604623  0.49764966  0.38300470  1
  V  V78  1  0.88565742  0.38933085  -0.01109585  1
  V  V79  1  0.87488663  0.62463873  0.25071324  1
  V  V80  1  0.74520990  0.12779623  0.87268131  1
  V  V81  1  0.12335202  0.61886321  0.00060796  1
  V  V82  1  0.74710615  0.25152899  -0.00524033  1
  V  V83  1  0.62779753  -0.00180261  0.13829217  1
  V  V84  1  0.49178562  -0.01354072  0.49380015  1
  Zn  Zn85  1  0.74661654  0.62658186  0.37410453  1
  Zn  Zn86  1  0.00503309  0.87918402  0.87267983  1
  Zn  Zn87  1  0.37089180  0.62289148  0.74758861  1
  Zn  Zn88  1  0.62805002  0.50485346  0.12057627  1
  Zn  Zn89  1  0.11237462  0.24784156  0.88021507  1
  Zn  Zn90  1  0.62189821  0.13135892  -0.00595177  1
  Zn  Zn91  1  0.12796649  0.50089210  0.12722976  1
  Zn  Zn92  1  0.49951615  0.24489860  0.75700580  1
  Zn  Zn93  1  0.25145961  0.11854718  0.36828707  1
  Zn  Zn94  1  0.37463001  0.87535460  0.00111871  1
  Zn  Zn95  1  0.36656000  0.11823007  0.25067582  1
  Zn  Zn96  1  0.37768719  0.37359879  -0.00251397  1
  Zn  Zn97  1  0.12947937  0.38060337  0.25249427  1
  Zn  Zn98  1  0.50532921  0.36323280  0.88165773  1
  Zn  Zn99  1  0.87638487  0.12634508  0.73609390  1
  Zn  Zn100  1  0.37291819  0.36721709  0.49413621  1
  Zn  Zn101  1  0.88072439  0.37568815  0.50695273  1
  Zn  Zn102  1  0.25030652  0.49845686  0.74603286  1
  Zn  Zn103  1  0.25379734  0.62570353  0.87224164  1
  Zn  Zn104  1  0.37354059  0.00116861  0.87477760  1
  Zn  Zn105  1  0.00297543  0.62288043  0.61000313  1
  Zn  Zn106  1  0.37124835  0.12614645  0.75143635  1
  Zn  Zn107  1  0.18750983  0.18894365  0.19159100  1
  Zn  Zn108  1  0.18415869  0.18868178  0.69101740  1
  Zn  Zn109  1  0.18725560  0.68708979  0.19073681  1
  Zn  Zn110  1  0.18861668  0.68286367  0.68541172  1
  Zn  Zn111  1  0.68344721  0.18973599  0.18380194  1
  Zn  Zn112  1  0.68996166  0.18295527  0.68457338  1
  Zn  Zn113  1  0.68751028  0.69162114  0.19017603  1
  Zn  Zn114  1  0.68492131  0.68667081  0.68618455  1
  Zn  Zn115  1  0.31316147  0.30904946  0.30803246  1
  Zn  Zn116  1  0.31042634  0.31222823  0.80866676  1
  Zn  Zn117  1  0.31476177  0.81258150  0.31129165  1
  Zn  Zn118  1  0.31301036  0.81240461  0.80903897  1
  Zn  Zn119  1  0.81221332  0.31225959  0.31152511  1
  Zn  Zn120  1  0.81921287  0.31314769  0.81252941  1
  Zn  Zn121  1  0.81428693  0.81299904  0.31993094  1
  Zn  Zn122  1  0.81428041  0.81279262  0.81304338  1
  Zn  Zn123  1  0.18998177  0.43682943  0.43455686  1
  Zn  Zn124  1  0.19350110  0.43652774  0.94160074  1
  Zn  Zn125  1  0.18851282  0.93804810  0.44522056  1
  Zn  Zn126  1  0.18676491  0.93713157  0.94076529  1
  Zn  Zn127  1  0.68913268  0.43507738  0.43741624  1
  Zn  Zn128  1  0.69328092  0.43904793  0.93670633  1
  Zn  Zn129  1  0.68921916  0.94089171  0.43581070  1
  Zn  Zn130  1  0.68655938  0.93816827  0.94157200  1
  Zn  Zn131  1  0.31524528  0.06344594  0.06039232  1
  Zn  Zn132  1  0.31423231  0.06032808  0.56020248  1
  Zn  Zn133  1  0.32018196  0.56440971  0.05584195  1
  Zn  Zn134  1  0.30893594  0.56115228  0.55809712  1
  Zn  Zn135  1  0.81125010  0.06458706  0.06393977  1
  Zn  Zn136  1  0.79184047  0.05904831  0.55520084  1
  Zn  Zn137  1  0.81217835  0.56488216  0.06199369  1
  Zn  Zn138  1  0.80934629  0.56448545  0.56292056  1
  Zn  Zn139  1  0.43790460  0.43833500  0.18409640  1
  Zn  Zn140  1  0.43798960  0.43273206  0.68694164  1
  Zn  Zn141  1  0.43742945  0.93744346  0.18711699  1
  Zn  Zn142  1  0.43371298  0.93717915  0.68821632  1
  Zn  Zn143  1  0.93683682  0.43443565  0.19199292  1
  Zn  Zn144  1  0.94533784  0.43279732  0.68468627  1
  Zn  Zn145  1  0.94192354  0.93600343  0.18708905  1
  Zn  Zn146  1  0.93266309  0.92864892  0.69213336  1
  Zn  Zn147  1  0.06393131  0.06464769  0.31245180  1
  Zn  Zn148  1  0.06343523  0.06779466  0.80892959  1
  Zn  Zn149  1  0.06159375  0.55261895  0.30535567  1
  Zn  Zn150  1  0.08322021  0.56845502  0.80635509  1
  Zn  Zn151  1  0.55717278  0.06429121  0.31433801  1
  Zn  Zn152  1  0.56253688  0.06261566  0.81158516  1
  Zn  Zn153  1  0.55829913  0.56563474  0.31211876  1
  Zn  Zn154  1  0.56289735  0.56031473  0.81185556  1
  Zn  Zn155  1  0.43243085  0.18126078  0.43855027  1
  Zn  Zn156  1  0.43299365  0.18685092  0.93358027  1
  Zn  Zn157  1  0.43756860  0.68689678  0.43571106  1
  Zn  Zn158  1  0.43577046  0.68417098  0.93955058  1
  Zn  Zn159  1  0.93665949  0.18842505  0.42912399  1
  Zn  Zn160  1  0.93395055  0.19410215  0.93507535  1
  Zn  Zn161  1  0.92156404  0.68991461  0.43553455  1
  Zn  Zn162  1  0.94121074  0.69261775  0.94148724  1
  Zn  Zn163  1  0.06201160  0.31661562  0.06223057  1
  Zn  Zn164  1  0.06428155  0.30830245  0.56260216  1
  Zn  Zn165  1  0.06364371  0.81382662  0.06266079  1
  Zn  Zn166  1  0.06040782  0.82070285  0.56914117  1
  Zn  Zn167  1  0.56392223  0.31453572  0.06270569  1
  Zn  Zn168  1  0.56480891  0.30985567  0.56883331  1
  Zn  Zn169  1  0.56418077  0.81526299  0.06587138  1
  Zn  Zn170  1  0.56071501  0.81196162  0.56253475  1
  O  O171  1  0.11362603  0.11486384  0.12870835  1
  O  O172  1  0.13031048  0.11394773  0.61796399  1
  O  O173  1  0.11681608  0.62745876  0.11914476  1
  O  O174  1  0.12330980  0.60742745  0.62562094  1
  O  O175  1  0.61472693  0.12024115  0.12076556  1
  O  O176  1  0.61764456  0.11330819  0.62015131  1
  O  O177  1  0.61356239  0.62569489  0.12902364  1
  O  O178  1  0.61826358  0.61942837  0.61391739  1
  O  O179  1  0.36954050  0.38599795  0.37359376  1
  O  O180  1  0.37836744  0.38533498  0.87421584  1
  O  O181  1  0.37742035  0.88659195  0.37262937  1
  O  O182  1  0.38767359  0.87452315  0.87614367  1
  O  O183  1  0.88097436  0.38135937  0.37606922  1
  O  O184  1  0.87092274  0.37787347  0.88977523  1
  O  O185  1  0.87991963  0.88540298  0.38617521  1
  O  O186  1  0.87699166  0.88629050  0.88259227  1
  O  O187  1  0.26608434  -0.00464968  0.38167429  1
  O  O188  1  0.24834535  0.00308452  0.86964619  1
  O  O189  1  0.26076211  0.50988808  0.37950053  1
  O  O190  1  0.26560101  0.50056312  0.87583251  1
  O  O191  1  0.75998504  0.01164087  0.38059358  1
  O  O192  1  0.75660894  0.00351466  0.86942032  1
  O  O193  1  0.75528496  0.50003164  0.36698435  1
  O  O194  1  0.74868092  0.51368057  0.86797084  1
  O  O195  1  0.25801820  0.48593600  0.11623980  1
  O  O196  1  0.24219067  0.48914672  0.62372542  1
  O  O197  1  0.24091634  0.99167007  0.11611780  1
  O  O198  1  0.24591835  0.99236322  0.62972689  1
  O  O199  1  0.74814893  0.49446358  0.13225833  1
  O  O200  1  0.74375636  0.49598446  0.63205056  1
  O  O201  1  0.74100453  0.99196897  0.11945141  1
  O  O202  1  0.73660932  0.99978510  0.63347842  1
  O  O203  1  0.00028906  0.36345247  0.25844887  1
  O  O204  1  0.01378585  0.36899599  0.75085650  1
  O  O205  1  0.00469766  0.86797246  0.26181453  1
  O  O206  1  0.00111414  0.86158024  0.75339738  1
  O  O207  1  0.51253838  0.36776661  0.24179765  1
  O  O208  1  0.51921359  0.37414417  0.74724539  1
  O  O209  1  0.50018911  0.85882329  0.24111408  1
  O  O210  1  0.50487889  0.86908772  0.75764275  1
  O  O211  1  0.49917914  0.13546488  0.24092445  1
  O  O212  1  0.49736951  0.11966224  0.73668313  1
  O  O213  1  0.49196156  0.63207400  0.24123968  1
  O  O214  1  0.50194476  0.63055837  0.73931796  1
  O  O215  1  1.00237211  0.13856046  0.24233107  1
  O  O216  1  0.99597501  0.13616725  0.74579413  1
  O  O217  1  0.99597740  0.63385790  0.24485101  1
  O  O218  1  0.99083077  0.63200537  0.74738866  1
  O  O219  1  0.37017025  0.24950922  0.01287024  1
  O  O220  1  0.38408079  0.25220302  0.51520133  1
  O  O221  1  0.36622764  0.75136210  0.00701537  1
  O  O222  1  0.36805536  0.74709283  0.50725587  1
  O  O223  1  0.86624949  0.25793831  0.01102344  1
  O  O224  1  0.86199179  0.25124529  0.49370677  1
  O  O225  1  0.86955624  0.75973310  0.00592591  1
  O  O226  1  0.86337642  0.76059220  0.50288004  1
  O  O227  1  0.11871507  0.23753458  0.49075439  1
  O  O228  1  0.13518653  0.25292015  0.99897208  1
  O  O229  1  0.13417857  0.75550596  0.50055615  1
  O  O230  1  0.13194506  0.74390826  0.99604297  1
  O  O231  1  0.62817627  0.24682974  0.49188658  1
  O  O232  1  0.64228904  0.25065621  1.00620915  1
  O  O233  1  0.62790403  0.74442058  0.49629666  1
  O  O234  1  0.63312445  0.75647630  0.98937838  1
  O  O235  1  0.49523811  0.24378758  0.13021613  1
  O  O236  1  0.49582288  0.23982445  0.63095369  1
  O  O237  1  0.49584304  0.74352420  0.12816692  1
  O  O238  1  0.49239309  0.74385296  0.62705848  1
  O  O239  1  0.99521440  0.24450814  0.12928616  1
  O  O240  1  1.00378961  0.25700830  0.64398039  1
  O  O241  1  0.99408411  0.74785752  0.13452325  1
  O  O242  1  0.99526707  0.74640604  0.63134616  1
  O  O243  1  0.00583685  0.25474787  0.36622730  1
  O  O244  1  -0.00067624  0.24614469  0.85932313  1
  O  O245  1  0.00948682  0.75252879  0.37279192  1
  O  O246  1  0.00737268  0.75160203  0.86661632  1
  O  O247  1  0.50545299  0.24471381  0.36411769  1
  O  O248  1  0.49966312  0.24979236  0.87070006  1
  O  O249  1  0.50857315  0.74584274  0.36673717  1
  O  O250  1  0.50644174  0.75438732  0.87370237  1
  O  O251  1  0.24057505  0.12251209  0.49518108  1
  O  O252  1  0.25355307  0.13504613  0.99428701  1
  O  O253  1  0.25146579  0.63542903  0.48548312  1
  O  O254  1  0.24461625  0.63708073  1.00138372  1
  O  O255  1  0.73876451  0.13434135  0.49062824  1
  O  O256  1  0.74993385  0.13363689  0.99141903  1
  O  O257  1  0.73832358  0.63319807  0.49853610  1
  O  O258  1  0.75530882  0.64002654  0.99227593  1
  O  O259  1  0.25631239  0.36460947  0.00895921  1
  O  O260  1  0.25117745  0.37454678  0.51324360  1
  O  O261  1  0.24962600  0.86505114  0.01059260  1
  O  O262  1  0.24912578  0.86595765  0.51400147  1
  O  O263  1  0.75567997  0.37059403  0.00756649  1
  O  O264  1  0.74973293  0.36617275  0.50886590  1
  O  O265  1  0.76028017  0.86697669  0.00341631  1
  O  O266  1  0.75861887  0.86970201  0.49859737  1
  O  O267  1  0.12761173  0.49376532  0.24083489  1
  O  O268  1  0.12608962  0.48700468  0.74071804  1
  O  O269  1  0.11731670  0.98841461  0.23943664  1
  O  O270  1  0.13637326  1.00354507  0.74223617  1
  O  O271  1  0.62897678  0.49318215  0.25066562  1
  O  O272  1  0.63367227  0.49232845  0.74434163  1
  O  O273  1  0.61836530  1.00420380  0.23757958  1
  O  O274  1  0.63032366  0.99443702  0.74237773  1
  O  O275  1  0.38575700  0.00040633  0.26596273  1
  O  O276  1  0.35991856  0.00011052  0.75114470  1
  O  O277  1  0.38269787  0.51133945  0.25613998  1
  O  O278  1  0.37760640  0.49945625  0.76023357  1
  O  O279  1  0.87440308  -0.00453008  0.25728927  1
  O  O280  1  0.86789554  0.00021265  0.75574483  1
  O  O281  1  0.86770323  0.50415083  0.25779554  1
  O  O282  1  0.87009097  0.50602107  0.74542720  1
  O  O283  1  0.11855865  0.36745881  0.37548235  1
  O  O284  1  0.13016973  0.37686276  0.86385547  1
  O  O285  1  0.11766060  0.88535189  0.36794417  1
  O  O286  1  0.12290257  0.86035413  0.88221641  1
  O  O287  1  0.62902342  0.36259591  0.36687704  1
  O  O288  1  0.62905757  0.37864766  0.85982502  1
  O  O289  1  0.62697171  0.86443665  0.37899312  1
  O  O290  1  0.61527550  0.86902940  0.87129065  1
  O  O291  1  0.38654275  0.12991209  0.12694641  1
  O  O292  1  0.38038001  0.13056614  0.62529897  1
  O  O293  1  0.38120520  0.62980037  0.13250855  1
  O  O294  1  0.37936653  0.63285161  0.62357391  1
  O  O295  1  0.88611389  0.13282045  0.12227364  1
  O  O296  1  0.88358601  0.11018636  0.61348467  1
  O  O297  1  0.88095585  0.63356515  0.13026735  1
  O  O298  1  0.88228632  0.64017829  0.61016747  1
  O  O299  1  0.25691020  0.25433944  0.11832447  1
  O  O300  1  0.25391516  0.26171991  0.62832350  1
  O  O301  1  0.25306764  0.75704540  0.11930642  1
  O  O302  1  0.25539113  0.75391964  0.61796959  1
  O  O303  1  0.75723869  0.25667182  0.12069311  1
  O  O304  1  0.74559086  0.25669631  0.61414545  1
  O  O305  1  0.75499560  0.75604667  0.11787420  1
  O  O306  1  0.75460707  0.74685030  0.61413263  1
  O  O307  1  0.23772527  0.25170757  0.37303873  1
  O  O308  1  0.25009092  0.24414255  0.88477951  1
  O  O309  1  0.25380280  0.74635620  0.38529070  1
  O  O310  1  0.24566665  0.75100788  0.88290534  1
  O  O311  1  0.74228511  0.24537969  0.38031098  1
  O  O312  1  0.75860799  0.24035846  0.88207766  1
  O  O313  1  0.74279664  0.74883540  0.38770947  1
  O  O314  1  0.74218327  0.74708757  0.88039815  1
  O  O315  1  -0.00671983  0.11550025  0.00620689  1
  O  O316  1  0.00491646  0.12286243  0.50074115  1
  O  O317  1  0.00973159  0.63420277  0.01189007  1
  O  O318  1  0.01323523  0.64177883  0.48851687  1
  O  O319  1  0.50131976  0.11812009  0.00643757  1
  O  O320  1  0.50442044  0.11698478  0.51091041  1
  O  O321  1  0.49672622  0.61713495  0.01094855  1
  O  O322  1  0.50613884  0.61785203  0.50558015  1
  O  O323  1  0.50087993  0.38570755  0.50584429  1
  O  O324  1  0.49823474  0.38446191  1.00048740  1
  O  O325  1  0.50103132  0.88825816  0.50234224  1
  O  O326  1  0.49974307  0.88081409  0.99271485  1
  O  O327  1  0.99659036  0.36607794  0.48637521  1
  O  O328  1  0.98459572  0.37475997  1.00467436  1
  O  O329  1  0.99235044  0.86907551  0.48776231  1
  O  O330  1  0.98808381  0.88339370  1.00115003  1
  O  O331  1  0.48988911  0.50509788  0.38405664  1
  O  O332  1  0.49449536  0.49668405  0.88037500  1
  O  O333  1  0.49493533  1.00274288  0.38922263  1
  O  O334  1  0.50040905  0.99197462  0.88130181  1
  O  O335  1  0.98890000  0.48911083  0.36975842  1
  O  O336  1  0.98395566  0.52833430  0.86205095  1
  O  O337  1  0.98989939  0.99377521  0.37052661  1
  O  O338  1  0.99444806  1.00126171  0.88061298  1
  O  O339  1  0.00372304  0.00808459  0.11900405  1
  O  O340  1  0.00570108  -0.00283537  0.62728068  1
  O  O341  1  -0.00288875  0.51364351  0.13027053  1
  O  O342  1  0.01267240  0.50148068  0.62105168  1
  O  O343  1  0.50497050  0.00644277  0.11897478  1
  O  O344  1  0.50193880  0.00366006  0.61625693  1
  O  O345  1  0.50233489  0.50861329  0.11644551  1
  O  O346  1  0.50439147  0.50401874  0.61755698  1
  O  O347  1  0.25085006  0.36853212  0.23132984  1
  O  O348  1  0.23716910  0.37623923  0.73976872  1
  O  O349  1  0.24082380  0.86918381  0.23924191  1
  O  O350  1  0.25075628  0.87974628  0.73753412  1
  O  O351  1  0.74118365  0.37956519  0.24338426  1
  O  O352  1  0.74471855  0.38308467  0.74629871  1
  O  O353  1  0.75614294  0.86734920  0.23788793  1
  O  O354  1  0.74400494  0.88690991  0.75633794  1
  O  O355  1  0.25260287  0.12487513  0.25301228  1
  O  O356  1  0.24973003  0.11676693  0.75742294  1
  O  O357  1  0.26179168  0.63525450  0.26239591  1
  O  O358  1  0.25214659  0.61745478  0.75362233  1
  O  O359  1  0.74552754  0.13214075  0.26051436  1
  O  O360  1  0.75502259  0.11425833  0.75364515  1
  O  O361  1  0.75620606  0.61959254  0.25086257  1
  O  O362  1  0.74510623  0.61380361  0.75529898  1
  O  O363  1  0.37309141  0.11135199  0.37357005  1
  O  O364  1  0.36062523  0.11984847  0.87186068  1
  O  O365  1  0.36968258  0.61710029  0.36752238  1
  O  O366  1  0.37664892  0.61164225  0.87210914  1
  O  O367  1  0.86529071  0.11560400  0.37651534  1
  O  O368  1  0.86557489  0.11266061  0.87510442  1
  O  O369  1  0.87007055  0.61615285  0.36759161  1
  O  O370  1  0.86398848  0.63810723  0.86855041  1
  O  O371  1  0.14076418  0.37700572  0.12131143  1
  O  O372  1  0.13190151  0.38115904  0.62808735  1
  O  O373  1  0.12999157  0.88424952  0.13184607  1
  O  O374  1  0.13292012  0.89023209  0.62250194  1
  O  O375  1  0.63732723  0.37659363  0.13276822  1
  O  O376  1  0.63673371  0.38050868  0.63293981  1
  O  O377  1  0.63652747  0.88472959  0.12164550  1
  O  O378  1  0.61863625  0.88510437  0.63140837  1
  O  O379  1  0.11629539  0.25600006  0.25778959  1
  O  O380  1  0.11836509  0.26142356  0.75415894  1
  O  O381  1  0.11407091  0.76303223  0.24483103  1
  O  O382  1  0.11574937  0.74114387  0.75785777  1
  O  O383  1  0.61753805  0.25758054  0.25553118  1
  O  O384  1  0.62997132  0.26278685  0.74452491  1
  O  O385  1  0.61677475  0.74427923  0.26286714  1
  O  O386  1  0.62037482  0.75494320  0.75873791  1
  O  O387  1  0.38471607  0.24946733  0.23917152  1
  O  O388  1  0.37700369  0.24815189  0.73636958  1
  O  O389  1  0.38314789  0.74125722  0.24552414  1
  O  O390  1  0.38289791  0.74601380  0.74209853  1
  O  O391  1  0.88116250  0.25560681  0.23580361  1
  O  O392  1  0.88477198  0.24686669  0.74659372  1
  O  O393  1  0.88710321  0.74650939  0.25160334  1
  O  O394  1  0.88038428  0.75642300  0.73752644  1
  O  O395  1  0.38314536  0.49682483  0.49112046  1
  O  O396  1  0.38702207  0.49828388  0.98784722  1
  O  O397  1  0.38669134  0.99925410  0.49293782  1
  O  O398  1  0.38919337  0.99590506  0.99905218  1
  O  O399  1  0.86733378  0.49869513  0.48659694  1
  O  O400  1  0.87107359  0.48831071  1.00395425  1
  O  O401  1  0.88419785  0.99853836  0.50379642  1
  O  O402  1  0.87999921  0.99506820  0.99364771  1
  O  O403  1  0.11260487  -0.00648431  0.01038987  1
  O  O404  1  0.12281763  0.01025993  0.50964710  1
  O  O405  1  0.13175208  0.51517230  0.00297605  1
  O  O406  1  0.12615341  0.49626687  0.51073368  1
  O  O407  1  0.61342261  0.00185121  0.00638930  1
  O  O408  1  0.61645114  0.00364185  0.50591052  1
  O  O409  1  0.61457730  0.49739738  -0.00053651  1
  O  O410  1  0.61911136  0.50574414  0.50193519  1
  O  O411  1  0.36766110  0.36664310  0.12342397  1
  O  O412  1  0.36195771  0.36971271  0.62440967  1
  O  O413  1  0.36487092  0.86967579  0.12512770  1
  O  O414  1  0.36844305  0.86069659  0.62870884  1
  O  O415  1  0.86419850  0.37036409  0.12250799  1
  O  O416  1  0.86079776  0.38220156  0.62464365  1
  O  O417  1  0.87039142  0.87196685  0.11843643  1
  O  O418  1  0.88115155  0.86485922  0.61071227  1
  O  O419  1  0.12613786  0.13107317  0.38321654  1
  O  O420  1  0.13808763  0.12736135  0.87339751  1
  O  O421  1  0.13261802  0.62624980  0.36828600  1
  O  O422  1  0.13040549  0.63671254  0.88471521  1
  O  O423  1  0.62885086  0.13533179  0.37783220  1
  O  O424  1  0.64068462  0.11803164  0.87489255  1
  O  O425  1  0.62410411  0.63009046  0.38647696  1
  O  O426  1  0.63424635  0.63468663  0.87169735  1
