# generated using pymatgen
data_V85Zn86O256
_symmetry_space_group_name_H-M   'P 1'
_cell_length_a   16.95719978
_cell_length_b   16.95834127
_cell_length_c   16.95980923
_cell_angle_alpha   90.02510110
_cell_angle_beta   90.10747682
_cell_angle_gamma   89.94414527
_symmetry_Int_Tables_number   1
_chemical_formula_structural   V85Zn86O256
_chemical_formula_sum   'V85 Zn86 O256'
_cell_volume   4877.05281464
_cell_formula_units_Z   1
loop_
 _symmetry_equiv_pos_site_id
 _symmetry_equiv_pos_as_xyz
  1  'x, y, z'
loop_
 _atom_site_type_symbol
 _atom_site_label
 _atom_site_symmetry_multiplicity
 _atom_site_fract_x
 _atom_site_fract_y
 _atom_site_fract_z
 _atom_site_occupancy
  V  V0  1  0.37799442  0.37704762  0.51455996  1
  V  V1  1  0.87785455  0.25119520  0.62641645  1
  V  V2  1  0.87784992  0.24594159  0.12509459  1
  V  V3  1  0.37324764  0.00407018  0.87377297  1
  V  V4  1  0.87371058  0.12617533  0.25597913  1
  V  V5  1  0.74422212  0.62534187  0.37345427  1
  V  V6  1  0.37496301  0.12285920  0.24892703  1
  V  V7  1  0.62842153  0.23849369  0.37524861  1
  V  V8  1  0.26674202  0.50491284  0.25048297  1
  V  V9  1  0.12308851  0.87086370  0.26371056  1
  V  V10  1  0.88078936  -0.00503572  0.37558143  1
  V  V11  1  0.37679237  0.87138976  0.00199114  1
  V  V12  1  0.87984862  0.87343654  0.00150340  1
  V  V13  1  0.49584241  0.38060111  0.38148740  1
  V  V14  1  0.75226055  -0.00061036  0.74680247  1
  V  V15  1  0.75042672  0.75084354  0.00023786  1
  V  V16  1  0.12378634  0.87371763  0.75234506  1
  V  V17  1  0.48674036  0.63159625  0.62403974  1
  V  V18  1  0.74910170  0.25048461  0.00035049  1
  V  V19  1  0.88449225  0.63014867  0.75109446  1
  V  V20  1  0.49996789  0.12242625  0.12041726  1
  V  V21  1  0.74902381  0.23468064  0.49389332  1
  V  V22  1  0.61827189  0.75701885  0.87235817  1
  V  V23  1  0.12997942  -0.00014297  0.62608495  1
  V  V24  1  0.49793433  0.24825747  0.24722338  1
  V  V25  1  0.74952279  0.50250468  0.74402943  1
  V  V26  1  0.62253494  0.50135744  0.12586366  1
  V  V27  1  0.00341724  0.12782952  0.62672653  1
  V  V28  1  0.74983503  0.75458490  0.50083242  1
  V  V29  1  0.48747261  0.63117906  0.12647416  1
  V  V30  1  0.75152467  0.87545113  0.12666212  1
  V  V31  1  -0.00158162  0.62960942  0.12728063  1
  V  V32  1  0.13241123  0.25030417  0.37818849  1
  V  V33  1  0.87912608  0.12811378  0.74912894  1
  V  V34  1  0.24887764  0.36866414  0.11601988  1
  V  V35  1  0.62244114  0.37547671  0.74687849  1
  V  V36  1  0.00390465  0.24281275  0.24757700  1
  V  V37  1  0.88149842  0.75335231  0.62817800  1
  V  V38  1  0.00229034  0.75131850  0.26837782  1
  V  V39  1  0.87441959  0.50087488  0.37384951  1
  V  V40  1  0.12863727  0.37733736  0.24952120  1
  V  V41  1  0.12442515  0.62604756  0.00026519  1
  V  V42  1  0.25596666  0.01322345  0.74988815  1
  V  V43  1  0.49146383  0.38074483  0.87102868  1
  V  V44  1  0.49341944  0.01038546  0.49406999  1
  V  V45  1  0.10502192  0.36730570  0.75712434  1
  V  V46  1  0.74751610  0.50058511  0.24868274  1
  V  V47  1  0.25995510  0.86201763  0.62934948  1
  V  V48  1  0.62059580  0.75380123  0.37528441  1
  V  V49  1  0.00634767  -0.01087897  0.49695663  1
  V  V50  1  0.62562132  0.62513605  -0.00118656  1
  V  V51  1  0.87841951  0.00027021  0.87592450  1
  V  V52  1  0.48466416  0.75267337  0.24668759  1
  V  V53  1  0.62461368  0.12446424  -0.00187867  1
  V  V54  1  0.74971161  0.62726140  0.87283311  1
  V  V55  1  -0.00076419  0.49857567  -0.00104333  1
  V  V56  1  0.25126604  0.75183865  0.00996115  1
  V  V57  1  0.00775273  0.62406118  0.62021668  1
  V  V58  1  0.62539183  0.00806964  0.61694853  1
  V  V59  1  0.87504761  0.49826611  0.87492073  1
  V  V60  1  -0.00206715  0.01220045  0.00974816  1
  V  V61  1  0.50300095  -0.00685905  -0.00908173  1
  V  V62  1  0.00065274  0.37366132  0.37425479  1
  V  V63  1  0.62433065  0.87351319  0.24992158  1
  V  V64  1  0.49066789  0.50075956  -0.00447416  1
  V  V65  1  0.87187322  0.37586905  0.49810303  1
  V  V66  1  0.75120173  0.12649973  0.87391321  1
  V  V67  1  0.37425940  0.86829409  0.49900273  1
  V  V68  1  0.61786473  0.87824554  0.74929505  1
  V  V69  1  0.49336533  0.13025671  0.63955869  1
  V  V70  1  0.19159201  0.67641109  0.44080356  1
  V  V71  1  0.11966189  0.00660019  0.12896240  1
  V  V72  1  0.74926081  0.00380620  0.25962924  1
  V  V73  1  0.10790210  0.24337163  0.88598261  1
  V  V74  1  0.87576618  0.37400409  -0.00478876  1
  V  V75  1  0.25457422  -0.00473516  0.25474964  1
  V  V76  1  0.62077131  0.25233392  0.86858961  1
  V  V77  1  0.12821301  0.12710433  0.50116662  1
  V  V78  1  0.62199215  0.37394921  0.24902501  1
  V  V79  1  0.37287882  0.24591585  0.10176105  1
  V  V80  1  0.62685299  0.00003862  0.12392108  1
  V  V81  1  0.37275422  0.62675245  0.76962710  1
  V  V82  1  0.26025180  0.12343494  0.37636078  1
  V  V83  1  0.12201419  0.75489811  0.87616266  1
  V  V84  1  0.62115488  0.61965922  0.50419267  1
  Zn  Zn85  1  0.49051275  0.88166231  0.37224855  1
  Zn  Zn86  1  0.25166503  0.49268069  0.76028027  1
  Zn  Zn87  1  0.87410263  0.62656378  0.25057315  1
  Zn  Zn88  1  0.33715433  0.55031199  0.40753328  1
  Zn  Zn89  1  0.12944265  0.49355789  0.62751156  1
  Zn  Zn90  1  0.23873938  0.13949557  -0.08521586  1
  Zn  Zn91  1  0.36366996  0.37708252  -0.01001817  1
  Zn  Zn92  1  0.75254406  0.87732974  0.62226640  1
  Zn  Zn93  1  0.62092273  0.50033726  0.62020823  1
  Zn  Zn94  1  0.25122673  0.61870677  0.88242550  1
  Zn  Zn95  1  0.74856700  0.37497266  0.12385171  1
  Zn  Zn96  1  0.87470372  0.74909969  0.12923554  1
  Zn  Zn97  1  0.01413120  0.50753993  0.49196955  1
  Zn  Zn98  1  0.38018728  0.25118487  0.66405251  1
  Zn  Zn99  1  0.24374895  0.37114747  0.63423063  1
  Zn  Zn100  1  0.88309737  0.87120927  0.49660761  1
  Zn  Zn101  1  0.12579437  0.49902035  0.12536995  1
  Zn  Zn102  1  0.48673745  0.76049274  0.74762715  1
  Zn  Zn103  1  0.25161184  0.86959964  0.13215303  1
  Zn  Zn104  1  0.74647262  0.37427918  0.62034135  1
  Zn  Zn105  1  0.00318841  0.87642149  0.87383319  1
  Zn  Zn106  1  0.26277381  0.24671233  0.51311782  1
  Zn  Zn107  1  0.19136507  0.18696949  0.18542884  1
  Zn  Zn108  1  0.18766064  0.19914114  0.69276951  1
  Zn  Zn109  1  0.18490589  0.68549548  0.19192386  1
  Zn  Zn110  1  0.19057577  0.68823328  0.69359552  1
  Zn  Zn111  1  0.68998009  0.18656865  0.18772010  1
  Zn  Zn112  1  0.68836668  0.18777434  0.68347896  1
  Zn  Zn113  1  0.68244115  0.68716662  0.18764314  1
  Zn  Zn114  1  0.68925576  0.69120924  0.68615116  1
  Zn  Zn115  1  0.31570328  0.31331048  0.30789113  1
  Zn  Zn116  1  0.28905553  0.30426854  0.81510320  1
  Zn  Zn117  1  0.30684303  0.80864319  0.32346126  1
  Zn  Zn118  1  0.30936866  0.81247150  0.82093585  1
  Zn  Zn119  1  0.80947289  0.31260299  0.31264777  1
  Zn  Zn120  1  0.81190730  0.31419479  0.81030943  1
  Zn  Zn121  1  0.81462437  0.81279277  0.31319639  1
  Zn  Zn122  1  0.81136245  0.81415867  0.81257169  1
  Zn  Zn123  1  0.19393605  0.43780934  0.44200391  1
  Zn  Zn124  1  0.18041275  0.43356327  0.92750795  1
  Zn  Zn125  1  0.19441073  0.93630963  0.44010680  1
  Zn  Zn126  1  0.19607850  0.95684360  0.94976559  1
  Zn  Zn127  1  0.68520676  0.43388412  0.43373257  1
  Zn  Zn128  1  0.68657953  0.43823623  0.93582380  1
  Zn  Zn129  1  0.68534509  0.93894044  0.43809408  1
  Zn  Zn130  1  0.69182338  0.93645215  0.93483266  1
  Zn  Zn131  1  0.31366224  0.05433967  0.06681174  1
  Zn  Zn132  1  0.31662740  0.06294859  0.56573044  1
  Zn  Zn133  1  0.30745849  0.55898442  0.06518811  1
  Zn  Zn134  1  0.30926228  0.55573666  0.57446896  1
  Zn  Zn135  1  0.81450452  0.06405753  0.06707053  1
  Zn  Zn136  1  0.81795020  0.06072581  0.56093395  1
  Zn  Zn137  1  0.81234714  0.56330259  0.06441797  1
  Zn  Zn138  1  0.81352743  0.56628321  0.56151764  1
  Zn  Zn139  1  0.43782481  0.43287037  0.18025427  1
  Zn  Zn140  1  0.44134362  0.45095390  0.68836897  1
  Zn  Zn141  1  0.43619872  0.93673690  0.18373060  1
  Zn  Zn142  1  0.43724520  0.94465553  0.68528682  1
  Zn  Zn143  1  0.93821568  0.43481857  0.18552072  1
  Zn  Zn144  1  0.93751911  0.44030651  0.68532206  1
  Zn  Zn145  1  0.93993644  0.93328306  0.19127256  1
  Zn  Zn146  1  0.94154063  0.93826944  0.68447099  1
  Zn  Zn147  1  0.06596269  0.06261009  0.31387140  1
  Zn  Zn148  1  0.06412859  0.06225638  0.81349126  1
  Zn  Zn149  1  0.06631683  0.56330352  0.31331991  1
  Zn  Zn150  1  0.06553623  0.55740065  0.81535808  1
  Zn  Zn151  1  0.56042571  0.06122565  0.31171949  1
  Zn  Zn152  1  0.56418012  0.06006398  0.81276731  1
  Zn  Zn153  1  0.51780706  0.58346284  0.33327940  1
  Zn  Zn154  1  0.55963968  0.56579769  0.80745051  1
  Zn  Zn155  1  0.44183139  0.19192967  0.43893202  1
  Zn  Zn156  1  0.41731801  0.20397597  0.87286562  1
  Zn  Zn157  1  0.43621374  0.69600977  0.44193631  1
  Zn  Zn158  1  0.44048789  0.69331154  0.94065239  1
  Zn  Zn159  1  0.93988267  0.18418873  0.43747796  1
  Zn  Zn160  1  0.94181163  0.18864562  0.93762510  1
  Zn  Zn161  1  0.93463760  0.68413837  0.44071608  1
  Zn  Zn162  1  0.94027182  0.68955731  0.93700955  1
  Zn  Zn163  1  0.05892619  0.31325873  0.06412969  1
  Zn  Zn164  1  0.06207319  0.31753088  0.56084873  1
  Zn  Zn165  1  0.06658154  0.81623363  0.07126274  1
  Zn  Zn166  1  0.07272639  0.80537579  0.56239395  1
  Zn  Zn167  1  0.55889918  0.31252063  0.05742679  1
  Zn  Zn168  1  0.56351451  0.30761417  0.56192744  1
  Zn  Zn169  1  0.56238951  0.81236888  0.06221515  1
  Zn  Zn170  1  0.55948897  0.81569507  0.56551720  1
  O  O171  1  0.12675513  0.10614502  0.13522132  1
  O  O172  1  0.12010274  0.12384833  0.62087064  1
  O  O173  1  0.11588301  0.62210902  0.11574445  1
  O  O174  1  0.10830766  0.62679119  0.63889719  1
  O  O175  1  0.62249615  0.11840660  0.11894966  1
  O  O176  1  0.61800565  0.11377361  0.62879996  1
  O  O177  1  0.62047601  0.61717711  0.11664623  1
  O  O178  1  0.62791104  0.62552909  0.61522957  1
  O  O179  1  0.39352812  0.37224468  0.37052988  1
  O  O180  1  0.39006490  0.37626766  0.87512568  1
  O  O181  1  0.37167481  0.87609215  0.39372009  1
  O  O182  1  0.36989059  0.88801305  0.89047050  1
  O  O183  1  0.87814660  0.38063433  0.37860259  1
  O  O184  1  0.86877093  0.37955517  0.88791050  1
  O  O185  1  0.87419017  0.89018791  0.37564303  1
  O  O186  1  0.87671545  0.88197765  0.88333939  1
  O  O187  1  0.24606709  0.01096927  0.36469855  1
  O  O188  1  0.25644654  -0.00954900  0.85467850  1
  O  O189  1  0.25558581  0.48595967  0.35568034  1
  O  O190  1  0.24433379  0.50620997  0.87473185  1
  O  O191  1  0.75615984  -0.00234021  0.36463687  1
  O  O192  1  0.75727737  0.00678376  0.86638496  1
  O  O193  1  0.75316104  0.50517596  0.36781990  1
  O  O194  1  0.75504096  0.50736761  0.86647447  1
  O  O195  1  0.24684256  0.48813746  0.13473553  1
  O  O196  1  0.24791397  0.49074988  0.64003781  1
  O  O197  1  0.23892589  0.99521866  0.14339246  1
  O  O198  1  0.24836071  0.99648257  0.63580881  1
  O  O199  1  0.74131684  0.49840741  0.13052244  1
  O  O200  1  0.75152920  0.49973910  0.63486455  1
  O  O201  1  0.74611987  0.99498361  0.13507075  1
  O  O202  1  0.74476284  1.00170464  0.62934660  1
  O  O203  1  0.00701959  0.36470661  0.25519619  1
  O  O204  1  0.00479703  0.37570014  0.74875232  1
  O  O205  1  0.00551560  0.85856734  0.25073960  1
  O  O206  1  0.01909291  0.88453917  0.75040868  1
  O  O207  1  0.50867448  0.36833719  0.25144919  1
  O  O208  1  0.51510141  0.38698459  0.75662743  1
  O  O209  1  0.50718196  0.87105869  0.24875594  1
  O  O210  1  0.51354277  0.87829981  0.74478916  1
  O  O211  1  0.49422665  0.12666637  0.24091624  1
  O  O212  1  0.50219943  0.12100953  0.73903094  1
  O  O213  1  0.50883439  0.63800620  0.23202994  1
  O  O214  1  0.48915612  0.63305016  0.74475474  1
  O  O215  1  0.99437405  0.13737735  0.25566545  1
  O  O216  1  0.99408530  0.11536514  0.73378252  1
  O  O217  1  1.00088819  0.63426889  0.24491982  1
  O  O218  1  0.98723580  0.62170838  0.74538083  1
  O  O219  1  0.38122302  0.25061811  0.00120077  1
  O  O220  1  0.37875427  0.26887709  0.49353080  1
  O  O221  1  0.36664676  0.75978015  -0.00450777  1
  O  O222  1  0.38088233  0.76936102  0.50753161  1
  O  O223  1  0.87160047  0.25516931  0.00705212  1
  O  O224  1  0.86584463  0.25449820  0.50089342  1
  O  O225  1  0.86836933  0.75762480  0.00129333  1
  O  O226  1  0.86748172  0.75229647  0.50638468  1
  O  O227  1  0.12990972  0.24578640  0.49173052  1
  O  O228  1  0.10599186  0.24820969  0.98783429  1
  O  O229  1  0.14098179  0.73694707  0.50561598  1
  O  O230  1  0.12925788  0.74464178  0.99951068  1
  O  O231  1  0.64123200  0.25306152  0.49144858  1
  O  O232  1  0.63136392  0.24437484  0.99311822  1
  O  O233  1  0.63165107  0.74909764  0.49328592  1
  O  O234  1  0.63135108  0.74783077  0.99173053  1
  O  O235  1  0.49323524  0.24205994  0.12586200  1
  O  O236  1  0.50178091  0.23312787  0.62338079  1
  O  O237  1  0.50420682  0.73901609  0.12936515  1
  O  O238  1  0.51143255  0.73695244  0.63399138  1
  O  O239  1  0.99001900  0.25450283  0.13683809  1
  O  O240  1  0.98569330  0.24107963  0.61416756  1
  O  O241  1  0.99823827  0.73808978  0.12795791  1
  O  O242  1  0.98925395  0.74090273  0.62044069  1
  O  O243  1  0.01176559  0.25313733  0.36989483  1
  O  O244  1  0.00564731  0.24569857  0.86805217  1
  O  O245  1  -0.00260974  0.74535579  0.36672914  1
  O  O246  1  0.01526286  0.75760948  0.88356437  1
  O  O247  1  0.51029432  0.25664093  0.36654432  1
  O  O248  1  0.51638814  0.26194085  0.88175247  1
  O  O249  1  0.50716743  0.76005485  0.36550376  1
  O  O250  1  0.51561579  0.75009250  0.87180586  1
  O  O251  1  0.24891144  0.12727424  0.49318555  1
  O  O252  1  0.23251652  0.06257221  0.99322156  1
  O  O253  1  0.26595885  0.61261943  0.48413576  1
  O  O254  1  0.23967745  0.63059651  1.00442281  1
  O  O255  1  0.75615039  0.13621259  0.49786932  1
  O  O256  1  0.74569278  0.12942631  0.99470339  1
  O  O257  1  0.74410604  0.63720798  0.49344392  1
  O  O258  1  0.74453531  0.63015318  0.99454291  1
  O  O259  1  0.24662787  0.38230239  0.01306487  1
  O  O260  1  0.26808974  0.36851360  0.50576401  1
  O  O261  1  0.25727145  0.86797421  0.00449095  1
  O  O262  1  0.26468453  0.88568006  0.51604522  1
  O  O263  1  0.75676017  0.36893412  0.00156734  1
  O  O264  1  0.76082164  0.36906832  0.49793815  1
  O  O265  1  0.76061677  0.87267815  0.00598065  1
  O  O266  1  0.75214532  0.86390542  0.49894804  1
  O  O267  1  0.12375211  0.48462554  0.24837291  1
  O  O268  1  0.11907132  0.48514061  0.74940940  1
  O  O269  1  0.12757844  0.99255354  0.24589203  1
  O  O270  1  0.13684439  0.99426583  0.74500764  1
  O  O271  1  0.62653789  0.49152522  0.23589626  1
  O  O272  1  0.63569198  0.49627449  0.74879629  1
  O  O273  1  0.63275419  0.99438911  0.24687261  1
  O  O274  1  0.63445360  0.99562415  0.74423508  1
  O  O275  1  0.36669599  0.00820700  0.24507338  1
  O  O276  1  0.36553199  -0.00166626  0.75771014  1
  O  O277  1  0.36633845  0.49731316  0.24241205  1
  O  O278  1  0.37640888  0.52270426  0.74850410  1
  O  O279  1  0.87103031  0.00647101  0.25529072  1
  O  O280  1  0.86983842  0.00518261  0.75307268  1
  O  O281  1  0.86879790  0.49742891  0.25985666  1
  O  O282  1  0.86777318  0.50676679  0.75577239  1
  O  O283  1  0.12354523  0.36567770  0.36805169  1
  O  O284  1  0.11443768  0.36277528  0.86730688  1
  O  O285  1  0.12825062  0.88247350  0.36388655  1
  O  O286  1  0.12861119  0.87168898  0.86928189  1
  O  O287  1  0.62026397  0.36321197  0.36568299  1
  O  O288  1  0.62244213  0.36897184  0.86709558  1
  O  O289  1  0.62452532  0.86562576  0.36970198  1
  O  O290  1  0.63309234  0.86833991  0.86397195  1
  O  O291  1  0.37925112  0.12908393  0.12560520  1
  O  O292  1  0.39036600  0.12649463  0.62748740  1
  O  O293  1  0.38957897  0.62377530  0.11976504  1
  O  O294  1  0.38560604  0.63040750  0.62562288  1
  O  O295  1  0.87120087  0.13823377  0.13709965  1
  O  O296  1  0.88336359  0.13117663  0.62764427  1
  O  O297  1  0.88251362  0.62701867  0.12978221  1
  O  O298  1  0.88076629  0.63329318  0.63267240  1
  O  O299  1  0.26081416  0.25454078  0.12460854  1
  O  O300  1  0.26549371  0.25315609  0.63014288  1
  O  O301  1  0.24349178  0.74963224  0.11476571  1
  O  O302  1  0.25147708  0.76400390  0.62965236  1
  O  O303  1  0.75680220  0.25164200  0.11726953  1
  O  O304  1  0.75876594  0.24980839  0.61071536  1
  O  O305  1  0.74948689  0.75689162  0.11901424  1
  O  O306  1  0.76126035  0.75232716  0.61606407  1
  O  O307  1  0.24148178  0.24418996  0.37032633  1
  O  O308  1  0.22692892  0.24760646  0.88976019  1
  O  O309  1  0.24195913  0.73382374  0.37409475  1
  O  O310  1  0.23756066  0.74525860  0.89117472  1
  O  O311  1  0.74502435  0.25095641  0.38525612  1
  O  O312  1  0.74266249  0.24569235  0.88113704  1
  O  O313  1  0.74309209  0.74486727  0.37973650  1
  O  O314  1  0.74391740  0.74564101  0.88108749  1
  O  O315  1  -0.01226652  0.11102516  0.00778390  1
  O  O316  1  0.00697719  0.11781867  0.50908496  1
  O  O317  1  0.00293128  0.62038106  0.00927906  1
  O  O318  1  -0.00481851  0.62310943  0.51584952  1
  O  O319  1  0.51188252  0.11055744  0.00602081  1
  O  O320  1  0.49773310  0.11355614  0.50500434  1
  O  O321  1  0.50661732  0.62123474  0.00831758  1
  O  O322  1  0.51044528  0.63680025  0.51502421  1
  O  O323  1  0.49581238  0.37034214  0.48880876  1
  O  O324  1  0.50133825  0.38642165  0.99017503  1
  O  O325  1  0.48867734  0.88591342  0.50338449  1
  O  O326  1  0.49501757  0.88379935  1.00299702  1
  O  O327  1  0.98442389  0.37183991  0.49060082  1
  O  O328  1  0.98688181  0.38763231  1.00945372  1
  O  O329  1  1.00619477  0.88602491  0.50636487  1
  O  O330  1  0.98617715  0.87833660  1.00629668  1
  O  O331  1  0.51781731  0.47675954  0.37126717  1
  O  O332  1  0.51123243  0.49376444  0.88555125  1
  O  O333  1  0.50530307  0.99847997  0.38972616  1
  O  O334  1  0.49298224  1.00335525  0.88329992  1
  O  O335  1  0.99036035  0.49313794  0.37414573  1
  O  O336  1  0.98881256  0.50933750  0.89117918  1
  O  O337  1  0.99388732  1.00701728  0.38539246  1
  O  O338  1  0.99475320  0.99784874  0.88782249  1
  O  O339  1  0.00859760  -0.00141361  0.12625482  1
  O  O340  1  0.00927917  0.00739061  0.61587748  1
  O  O341  1  -0.00196051  0.51097718  0.11840611  1
  O  O342  1  -0.00550309  0.51707848  0.62167352  1
  O  O343  1  0.50950495  0.00333849  0.11706684  1
  O  O344  1  0.50722234  0.01071914  0.61702215  1
  O  O345  1  0.50609978  0.50973467  0.11934372  1
  O  O346  1  0.50704751  0.52537251  0.62904920  1
  O  O347  1  0.24409017  0.37727031  0.23890964  1
  O  O348  1  0.23126355  0.37608960  0.75289426  1
  O  O349  1  0.24476531  0.88033064  0.25426978  1
  O  O350  1  0.24604058  0.87996049  0.74012105  1
  O  O351  1  0.73674243  0.37972134  0.24857373  1
  O  O352  1  0.74152906  0.38566518  0.74762396  1
  O  O353  1  0.74534841  0.88154525  0.24518131  1
  O  O354  1  0.74674112  0.88932323  0.74798527  1
  O  O355  1  0.25618874  0.11831526  0.25741000  1
  O  O356  1  0.24598899  0.11161052  0.74854215  1
  O  O357  1  0.24464910  0.60295768  0.24361118  1
  O  O358  1  0.26385688  0.62745324  0.75730238  1
  O  O359  1  0.76004240  0.11518950  0.24671508  1
  O  O360  1  0.75581573  0.11541122  0.75244207  1
  O  O361  1  0.74867034  0.61884332  0.25612312  1
  O  O362  1  0.75773972  0.61895993  0.75344732  1
  O  O363  1  0.36542891  0.13267273  0.36979851  1
  O  O364  1  0.36257446  0.10706121  0.89089923  1
  O  O365  1  0.41433636  0.61799322  0.36770241  1
  O  O366  1  0.37805556  0.62476459  0.87221481  1
  O  O367  1  0.87837800  0.11624535  0.36309454  1
  O  O368  1  0.86966384  0.12014329  0.86940757  1
  O  O369  1  0.86649792  0.61547220  0.37334854  1
  O  O370  1  0.86975081  0.62310816  0.86816967  1
  O  O371  1  0.13125586  0.37274203  0.13336582  1
  O  O372  1  0.12103732  0.36790350  0.64113336  1
  O  O373  1  0.12820051  0.88278395  0.14258167  1
  O  O374  1  0.13791579  0.87980090  0.63092755  1
  O  O375  1  0.62291119  0.38102335  0.13065562  1
  O  O376  1  0.62619114  0.37845502  0.63086473  1
  O  O377  1  0.63246554  0.88096085  0.12925036  1
  O  O378  1  0.63003423  0.88744775  0.63208577  1
  O  O379  1  0.12028003  0.25580050  0.25454501  1
  O  O380  1  0.12019569  0.25968784  0.76090326  1
  O  O381  1  0.11095668  0.75496106  0.24941371  1
  O  O382  1  0.13204581  0.76058957  0.76327493  1
  O  O383  1  0.62071723  0.25673809  0.25175185  1
  O  O384  1  0.63525861  0.26118997  0.75792978  1
  O  O385  1  0.62014625  0.75731038  0.25735966  1
  O  O386  1  0.63203963  0.76312139  0.75730791  1
  O  O387  1  0.38271468  0.24151492  0.24039456  1
  O  O388  1  0.37731362  0.24773552  0.77686170  1
  O  O389  1  0.38611346  0.76234298  0.25146522  1
  O  O390  1  0.37441503  0.73835740  0.76061975  1
  O  O391  1  0.88031283  0.24442630  0.24699609  1
  O  O392  1  0.86533994  0.24285634  0.73621713  1
  O  O393  1  0.88817758  0.74884987  0.25030747  1
  O  O394  1  0.86899993  0.74249131  0.74125459  1
  O  O395  1  0.37483679  0.48075185  0.49825392  1
  O  O396  1  0.38807217  0.49778300  1.00616305  1
  O  O397  1  0.38992801  0.99467549  0.50538177  1
  O  O398  1  0.38882906  0.99189310  0.99624959  1
  O  O399  1  0.87217135  0.49313224  0.48758001  1
  O  O400  1  0.87663814  0.49219099  0.99667734  1
  O  O401  1  0.88666702  0.99795686  0.49251657  1
  O  O402  1  0.87873514  0.99252263  0.99880561  1
  O  O403  1  0.10656578  -0.01697646  0.02197949  1
  O  O404  1  0.12320488  0.00703417  0.50580653  1
  O  O405  1  0.11333480  0.50721262  0.00261712  1
  O  O406  1  0.12089537  0.48053723  0.51239713  1
  O  O407  1  0.62234785  0.00216760  0.00161697  1
  O  O408  1  0.61260371  -0.00541113  0.50816918  1
  O  O409  1  0.62027396  0.50341507  0.01032282  1
  O  O410  1  0.63450080  0.51638045  0.49776611  1
  O  O411  1  0.36803389  0.36222689  0.11799221  1
  O  O412  1  0.39037722  0.37115717  0.61972141  1
  O  O413  1  0.37007351  0.88157848  0.10856979  1
  O  O414  1  0.36554303  0.87910192  0.62212437  1
  O  O415  1  0.87071385  0.36383378  0.11868047  1
  O  O416  1  0.87274657  0.36779333  0.61583363  1
  O  O417  1  0.86723246  0.87355092  0.11992586  1
  O  O418  1  0.87471100  0.86752245  0.62232471  1
  O  O419  1  0.13585903  0.13257278  0.38007317  1
  O  O420  1  0.12306674  0.13730704  0.87177635  1
  O  O421  1  0.12488390  0.61831194  0.39060491  1
  O  O422  1  0.11903887  0.63317332  0.88941942  1
  O  O423  1  0.62391874  0.13919042  0.36533381  1
  O  O424  1  0.63117614  0.13294013  0.87729115  1
  O  O425  1  0.62032340  0.63867743  0.38264141  1
  O  O426  1  0.63091617  0.63334624  0.87883000  1
