# generated using pymatgen
data_V85Zn86O256
_symmetry_space_group_name_H-M   'P 1'
_cell_length_a   16.92656626
_cell_length_b   16.93574579
_cell_length_c   16.94392980
_cell_angle_alpha   90.00018883
_cell_angle_beta   89.89918587
_cell_angle_gamma   89.99291593
_symmetry_Int_Tables_number   1
_chemical_formula_structural   V85Zn86O256
_chemical_formula_sum   'V85 Zn86 O256'
_cell_volume   4857.20753002
_cell_formula_units_Z   1
loop_
 _symmetry_equiv_pos_site_id
 _symmetry_equiv_pos_as_xyz
  1  'x, y, z'
loop_
 _atom_site_type_symbol
 _atom_site_label
 _atom_site_symmetry_multiplicity
 _atom_site_fract_x
 _atom_site_fract_y
 _atom_site_fract_z
 _atom_site_occupancy
  V  V0  1  0.50107594  0.12127493  0.11958898  1
  V  V1  1  0.87557949  0.86676703  0.49380876  1
  V  V2  1  0.75964460  0.87698218  0.11687617  1
  V  V3  1  0.24956854  0.87387011  0.12685839  1
  V  V4  1  0.62031685  -0.00250496  0.11714885  1
  V  V5  1  0.12417638  0.25258647  0.37679005  1
  V  V6  1  0.37679751  0.50866934  0.87058401  1
  V  V7  1  0.76160258  0.62284550  0.87461756  1
  V  V8  1  0.76244912  0.50006268  0.74685394  1
  V  V9  1  0.11961309  0.00573303  0.63044514  1
  V  V10  1  0.24728771  -0.00300560  0.25198844  1
  V  V11  1  0.37756362  0.24855057  0.12119919  1
  V  V12  1  0.50384935  0.00557312  0.49863187  1
  V  V13  1  0.74215003  0.26102036  0.50898868  1
  V  V14  1  0.37584265  0.25250701  0.62646584  1
  V  V15  1  0.49990442  0.87344049  0.37527380  1
  V  V16  1  0.49535486  0.74438955  0.75136669  1
  V  V17  1  0.12199052  -0.00155049  0.12999187  1
  V  V18  1  0.62445977  0.74856771  0.87396451  1
  V  V19  1  -0.00667464  0.38391578  0.87886799  1
  V  V20  1  0.12257129  0.25016780  0.87673786  1
  V  V21  1  0.63608695  0.62922138  0.49779230  1
  V  V22  1  0.25001493  0.25267572  0.50023280  1
  V  V23  1  0.24612123  0.12852138  0.37672700  1
  V  V24  1  0.62953909  0.00137691  0.61979553  1
  V  V25  1  0.62654044  0.12718138  -0.01134539  1
  V  V26  1  0.49958743  0.87627255  0.87728529  1
  V  V27  1  0.37268074  0.12814297  0.24870818  1
  V  V28  1  0.87139110  0.72946899  0.12445710  1
  V  V29  1  0.37289528  0.74342649  0.13136616  1
  V  V30  1  0.11559145  0.63923148  -0.00190684  1
  V  V31  1  0.49783273  0.49838540  0.48814493  1
  V  V32  1  0.37929388  0.87627373  0.00203409  1
  V  V33  1  0.75264263  0.00466760  0.75248707  1
  V  V34  1  0.11830695  0.49742831  0.11342392  1
  V  V35  1  0.50306469  0.12431203  0.62167079  1
  V  V36  1  0.37521432  0.74869562  0.62782497  1
  V  V37  1  0.63865717  0.74887923  0.37759171  1
  V  V38  1  -0.00249977  0.86105306  0.88163599  1
  V  V39  1  0.87354669  0.51369069  0.37149562  1
  V  V40  1  0.25395670  0.51482111  0.74877260  1
  V  V41  1  0.75139873  0.24683221  -0.02050292  1
  V  V42  1  -0.00409953  0.24894709  0.25289987  1
  V  V43  1  0.37528143  0.87793127  0.50203147  1
  V  V44  1  0.25128067  0.12399807  0.87578444  1
  V  V45  1  0.38044116  0.37687322  0.49248095  1
  V  V46  1  -0.00148358  0.50344432  0.50030911  1
  V  V47  1  0.62354070  0.62467751  -0.00116912  1
  V  V48  1  -0.00446213  -0.00421022  -0.00067626  1
  V  V49  1  0.12461023  0.37985358  0.25119711  1
  V  V50  1  0.63598306  0.37268211  0.74734210  1
  V  V51  1  0.37864228  0.37509660  -0.00625071  1
  V  V52  1  0.25095024  0.24921829  -0.00162969  1
  V  V53  1  0.11972351  0.86082252  0.75802421  1
  V  V54  1  0.62191013  0.87427998  0.24811974  1
  V  V55  1  0.75265600  0.86428163  0.62086657  1
  V  V56  1  0.88249391  -0.00246865  0.37432209  1
  V  V57  1  0.37635473  0.12423802  0.75069552  1
  V  V58  1  0.24695005  0.87568640  0.62891960  1
  V  V59  1  0.49641576  0.62281406  0.13167860  1
  V  V60  1  -0.00298128  0.00409077  0.50531099  1
  V  V61  1  -0.00231495  0.12636252  0.12340005  1
  V  V62  1  0.74968131  0.00291924  0.24919266  1
  V  V63  1  0.62650256  0.87356860  0.74897555  1
  V  V64  1  0.75072978  0.36570026  0.13055849  1
  V  V65  1  0.26253639  0.62062840  0.37154202  1
  V  V66  1  0.62865520  0.49640361  0.62425085  1
  V  V67  1  0.49684698  0.62198790  0.62790249  1
  V  V68  1  0.75135795  0.51244725  0.25381170  1
  V  V69  1  0.50822594  0.25012627  0.75330987  1
  V  V70  1  0.00365588  0.24101641  0.74088425  1
  V  V71  1  0.12265790  0.63030780  0.50093913  1
  V  V72  1  0.12050690  0.50728353  0.62539131  1
  V  V73  1  0.51583051  0.37384287  0.87528433  1
  V  V74  1  0.25020687  0.75103795  0.50092368  1
  V  V75  1  0.62574233  0.49737037  0.12605786  1
  V  V76  1  0.37936726  0.00042937  0.88087260  1
  V  V77  1  0.50082171  0.25348856  0.25447922  1
  V  V78  1  0.62480668  0.37379051  0.26125988  1
  V  V79  1  0.74316359  0.12394710  0.38818317  1
  V  V80  1  0.25181021  0.37645578  0.12432004  1
  V  V81  1  0.88603707  0.63524954  0.74335006  1
  V  V82  1  0.87508289  0.00299052  0.87590476  1
  V  V83  1  0.12822343  0.37867522  0.75011475  1
  V  V84  1  0.12374586  0.76343115  0.36588904  1
  Zn  Zn85  1  0.11580766  0.13118766  0.50899176  1
  Zn  Zn86  1  -0.00408976  0.61461269  0.13370384  1
  Zn  Zn87  1  0.25846708  0.51085123  0.24636451  1
  Zn  Zn88  1  0.24861444  -0.00232512  0.75371635  1
  Zn  Zn89  1  0.50285573  0.49892389  -0.00225938  1
  Zn  Zn90  1  -0.00494168  0.37694282  0.37630686  1
  Zn  Zn91  1  0.88013972  0.12073196  0.74411917  1
  Zn  Zn92  1  0.37353816  0.00091923  0.37544968  1
  Zn  Zn93  1  0.49555430  0.74287208  0.25601983  1
  Zn  Zn94  1  0.88836307  0.74853383  0.61863001  1
  Zn  Zn95  1  -0.00604623  0.75411403  0.25296831  1
  Zn  Zn96  1  0.61926232  0.24497715  0.38022585  1
  Zn  Zn97  1  0.74888502  0.75647757  -0.00496930  1
  Zn  Zn98  1  0.88123574  0.39144157  0.00274323  1
  Zn  Zn99  1  0.12436150  0.12348960  -0.00025357  1
  Zn  Zn100  1  0.87554956  0.25110482  0.11986945  1
  Zn  Zn101  1  0.24413608  0.63453460  0.87458370  1
  Zn  Zn102  1  0.87059549  0.37871268  0.50426017  1
  Zn  Zn103  1  0.24383541  0.75121023  -0.00120645  1
  Zn  Zn104  1  0.87741636  0.24726051  0.61915648  1
  Zn  Zn105  1  0.87263563  0.12715837  0.25047521  1
  Zn  Zn106  1  0.25269152  0.37993129  0.62489027  1
  Zn  Zn107  1  0.18448954  0.18966103  0.18816399  1
  Zn  Zn108  1  0.18993771  0.18832178  0.68962443  1
  Zn  Zn109  1  0.18380089  0.68304685  0.18735121  1
  Zn  Zn110  1  0.06169936  0.68891109  0.68384629  1
  Zn  Zn111  1  0.68439126  0.18493262  0.18815954  1
  Zn  Zn112  1  0.68836067  0.18282992  0.68782340  1
  Zn  Zn113  1  0.68277529  0.69228918  0.18679471  1
  Zn  Zn114  1  0.68751321  0.68378771  0.68705405  1
  Zn  Zn115  1  0.32991989  0.34540060  0.29528652  1
  Zn  Zn116  1  0.31379311  0.31607693  0.81198166  1
  Zn  Zn117  1  0.31162073  0.81214295  0.31373664  1
  Zn  Zn118  1  0.30891738  0.80947490  0.81313757  1
  Zn  Zn119  1  0.81301501  0.31683077  0.32182953  1
  Zn  Zn120  1  0.81829265  0.31211048  0.80587025  1
  Zn  Zn121  1  0.81309286  0.81572348  0.30569414  1
  Zn  Zn122  1  0.81494701  0.81489804  0.81322723  1
  Zn  Zn123  1  0.18957277  0.43958618  0.43829836  1
  Zn  Zn124  1  0.19056245  0.43845541  0.93418762  1
  Zn  Zn125  1  0.18514463  0.94170246  0.44206873  1
  Zn  Zn126  1  0.18597186  0.93496418  0.94084715  1
  Zn  Zn127  1  0.68794279  0.44243143  0.43548399  1
  Zn  Zn128  1  0.71870375  0.45004536  0.94846777  1
  Zn  Zn129  1  0.69001084  0.93536158  0.43754332  1
  Zn  Zn130  1  0.68599128  0.94100480  0.93603496  1
  Zn  Zn131  1  0.31245152  0.06067529  0.06110711  1
  Zn  Zn132  1  0.31103766  0.06315461  0.56234792  1
  Zn  Zn133  1  0.30729555  0.56217794  0.05750247  1
  Zn  Zn134  1  0.31315377  0.56405901  0.56293728  1
  Zn  Zn135  1  0.81319960  0.06499331  0.05984119  1
  Zn  Zn136  1  0.81757432  0.06344377  0.56659482  1
  Zn  Zn137  1  0.80663803  0.55764404  0.06134033  1
  Zn  Zn138  1  0.81491179  0.56347808  0.56492926  1
  Zn  Zn139  1  0.43999227  0.43887704  0.18560727  1
  Zn  Zn140  1  0.44086260  0.43684573  0.68780427  1
  Zn  Zn141  1  0.43515008  0.93906758  0.18947975  1
  Zn  Zn142  1  0.43781895  0.93702528  0.69023923  1
  Zn  Zn143  1  0.93461138  0.43576046  0.19195606  1
  Zn  Zn144  1  0.93914902  0.43078618  0.68369059  1
  Zn  Zn145  1  0.93839099  0.93238743  0.19388549  1
  Zn  Zn146  1  0.93941408  0.92885159  0.68819299  1
  Zn  Zn147  1  0.06251708  0.06374405  0.31239548  1
  Zn  Zn148  1  0.06513775  0.05790667  0.81517750  1
  Zn  Zn149  1  0.06390183  0.56982577  0.31243322  1
  Zn  Zn150  1  0.06363572  0.56216883  0.81964575  1
  Zn  Zn151  1  0.56208027  0.06183515  0.30814258  1
  Zn  Zn152  1  0.56220587  0.05886312  0.80874604  1
  Zn  Zn153  1  0.56704892  0.56439624  0.31318688  1
  Zn  Zn154  1  0.56705360  0.55944866  0.81174207  1
  Zn  Zn155  1  0.43352848  0.18740266  0.43658387  1
  Zn  Zn156  1  0.44339117  0.18755217  0.93563189  1
  Zn  Zn157  1  0.44217476  0.68788682  0.44235669  1
  Zn  Zn158  1  0.43477047  0.69005937  0.94347881  1
  Zn  Zn159  1  0.93040598  0.18535946  0.43792737  1
  Zn  Zn160  1  0.93598178  0.18614049  0.93429238  1
  Zn  Zn161  1  0.94421596  0.68893758  0.43329481  1
  Zn  Zn162  1  0.93490172  0.68249827  0.94997372  1
  Zn  Zn163  1  0.06054132  0.31330706  0.06122056  1
  Zn  Zn164  1  0.06318938  0.32078671  0.56311149  1
  Zn  Zn165  1  0.04670488  0.82437052  0.09228122  1
  Zn  Zn166  1  0.06186724  0.82301942  0.55487647  1
  Zn  Zn167  1  0.56846495  0.30913955  0.06374815  1
  Zn  Zn168  1  0.56609363  0.31361967  0.56273564  1
  Zn  Zn169  1  0.56000168  0.80986091  0.06296855  1
  Zn  Zn170  1  0.56448906  0.81279609  0.56141152  1
  O  O171  1  0.11422569  0.11871766  0.12428339  1
  O  O172  1  0.13525203  0.10986986  0.62615341  1
  O  O173  1  0.12705846  0.61017343  0.11625336  1
  O  O174  1  0.12664310  0.62072487  0.61249262  1
  O  O175  1  0.61795785  0.11669491  0.11931280  1
  O  O176  1  0.61826812  0.10900036  0.62938650  1
  O  O177  1  0.61805877  0.62151240  0.11681714  1
  O  O178  1  0.61518438  0.62014854  0.61875412  1
  O  O179  1  0.38130757  0.35954017  0.39496004  1
  O  O180  1  0.38461949  0.37899443  0.88192634  1
  O  O181  1  0.38270166  0.87821567  0.38197956  1
  O  O182  1  0.37870843  0.88249846  0.88274479  1
  O  O183  1  0.87739341  0.38820886  0.38451779  1
  O  O184  1  0.89138839  0.36965861  0.87298411  1
  O  O185  1  0.86534264  0.88626256  0.38112855  1
  O  O186  1  0.89150573  0.88321506  0.87056595  1
  O  O187  1  0.24729871  0.00827842  0.36790191  1
  O  O188  1  0.25964689  0.00587880  0.87677129  1
  O  O189  1  0.24959095  0.51784054  0.37871249  1
  O  O190  1  0.25980255  0.50099156  0.86660109  1
  O  O191  1  0.75348647  0.00741956  0.36733981  1
  O  O192  1  0.76262077  -0.01136085  0.86623999  1
  O  O193  1  0.76201042  0.49960370  0.36848302  1
  O  O194  1  0.73345731  0.51661175  0.85467598  1
  O  O195  1  0.24027654  0.49145327  0.12564437  1
  O  O196  1  0.24169865  0.50108715  0.63145619  1
  O  O197  1  0.24366007  0.99759247  0.13261838  1
  O  O198  1  0.24545273  0.98807285  0.62543975  1
  O  O199  1  0.74340926  0.48698979  0.13620581  1
  O  O200  1  0.73730684  0.50621176  0.63237931  1
  O  O201  1  0.74432037  0.99369567  0.12899242  1
  O  O202  1  0.74347246  0.99162911  0.63095511  1
  O  O203  1  0.00953013  0.36723781  0.25217052  1
  O  O204  1  0.01268530  0.36666372  0.75908340  1
  O  O205  1  0.01629947  0.85625131  0.20360986  1
  O  O206  1  0.01177453  0.87590562  0.76510240  1
  O  O207  1  0.51180602  0.36322167  0.24197873  1
  O  O208  1  0.51097003  0.36793552  0.75518992  1
  O  O209  1  0.50399048  0.87756220  0.26054673  1
  O  O210  1  0.50737497  0.86743436  0.75541557  1
  O  O211  1  0.49381749  0.12940739  0.23886293  1
  O  O212  1  0.49669108  0.13238036  0.74430696  1
  O  O213  1  0.50261364  0.62222952  0.23632851  1
  O  O214  1  0.50635250  0.63354481  0.74213714  1
  O  O215  1  0.99746647  0.13205362  0.24273233  1
  O  O216  1  1.00961668  0.13927134  0.75324334  1
  O  O217  1  1.01284753  0.64001741  0.24384316  1
  O  O218  1  0.99029213  0.62290942  0.75390832  1
  O  O219  1  0.37205661  0.25532666  0.00014891  1
  O  O220  1  0.37300454  0.25400786  0.51084416  1
  O  O221  1  0.37505824  0.75959220  0.01484697  1
  O  O222  1  0.37066552  0.75809437  0.50744554  1
  O  O223  1  0.85970065  0.24757010  -0.00116596  1
  O  O224  1  0.85505042  0.24962547  0.49598971  1
  O  O225  1  0.86150918  0.74376333  0.01644440  1
  O  O226  1  0.88000826  0.76325441  0.49481017  1
  O  O227  1  0.12984962  0.25074774  0.49553777  1
  O  O228  1  0.13107408  0.24865737  0.99174204  1
  O  O229  1  0.13424828  0.74737600  0.49496346  1
  O  O230  1  0.11961047  0.73939104  1.01481511  1
  O  O231  1  0.63517210  0.24955280  0.49656005  1
  O  O232  1  0.63720182  0.23786980  1.00269027  1
  O  O233  1  0.62014576  0.74158359  0.49119596  1
  O  O234  1  0.62534929  0.74282083  0.99278388  1
  O  O235  1  0.49699911  0.24151476  0.13244347  1
  O  O236  1  0.49587883  0.24479787  0.63234519  1
  O  O237  1  0.49245485  0.73978392  0.12797337  1
  O  O238  1  0.49775266  0.74341523  0.63180208  1
  O  O239  1  0.99899660  0.24308598  0.13233777  1
  O  O240  1  1.01275668  0.25001999  0.63949516  1
  O  O241  1  0.97558150  0.73463377  0.11202130  1
  O  O242  1  1.00154465  0.75763258  0.62126783  1
  O  O243  1  0.00591695  0.24933206  0.37028940  1
  O  O244  1  0.01252877  0.25243224  0.86830467  1
  O  O245  1  0.01831348  0.75327669  0.37284778  1
  O  O246  1  -0.00725492  0.76282368  0.88596342  1
  O  O247  1  0.50123383  0.23762253  0.35904959  1
  O  O248  1  0.49774934  0.25791875  0.86094863  1
  O  O249  1  0.50321038  0.76287923  0.37639493  1
  O  O250  1  0.50215985  0.75413144  0.86814950  1
  O  O251  1  0.24868537  0.13244497  0.49202883  1
  O  O252  1  0.24984359  0.13133680  0.99235394  1
  O  O253  1  0.24660205  0.63533219  0.49675188  1
  O  O254  1  0.23250617  0.62598483  0.99906111  1
  O  O255  1  0.74675341  0.12351857  0.48944950  1
  O  O256  1  0.74165069  0.13759417  1.00321644  1
  O  O257  1  0.73506365  0.62132402  0.50554804  1
  O  O258  1  0.73602499  0.62851316  0.99042327  1
  O  O259  1  0.25948380  0.36881734  0.00264337  1
  O  O260  1  0.25982870  0.37071724  0.50320983  1
  O  O261  1  0.26232874  0.87666596  0.00882453  1
  O  O262  1  0.25525092  0.87154858  0.50689405  1
  O  O263  1  0.74104993  0.35277944  0.01131799  1
  O  O264  1  0.74536305  0.36373999  0.49831018  1
  O  O265  1  0.74087757  0.87567560  0.01422346  1
  O  O266  1  0.76082957  0.88163328  0.51028514  1
  O  O267  1  0.13269382  0.49148458  0.24405383  1
  O  O268  1  0.13050855  0.49675480  0.74468672  1
  O  O269  1  0.13132445  1.00456356  0.23802038  1
  O  O270  1  0.12791791  0.99073013  0.74460739  1
  O  O271  1  0.62976477  0.49111098  0.24726630  1
  O  O272  1  0.63109842  0.49190984  0.74022497  1
  O  O273  1  0.63138793  0.99580120  0.23852095  1
  O  O274  1  0.63077268  0.99103236  0.74313836  1
  O  O275  1  0.36541064  0.01092008  0.25174842  1
  O  O276  1  0.37240267  0.00684028  0.75786565  1
  O  O277  1  0.35364814  0.45100539  0.25207959  1
  O  O278  1  0.36607493  0.49054068  0.75786006  1
  O  O279  1  0.86775721  -0.00165847  0.25649601  1
  O  O280  1  0.86889322  -0.00338491  0.75531722  1
  O  O281  1  0.86754581  0.49804186  0.26312039  1
  O  O282  1  0.86626794  0.50730315  0.74175310  1
  O  O283  1  0.12462208  0.37025865  0.36718729  1
  O  O284  1  0.12050776  0.36781749  0.86989508  1
  O  O285  1  0.13398475  0.86189367  0.37900275  1
  O  O286  1  0.11637390  0.87772489  0.86565945  1
  O  O287  1  0.62700087  0.37191407  0.36413451  1
  O  O288  1  0.61744938  0.38155757  0.86754404  1
  O  O289  1  0.61804618  0.87084670  0.37039690  1
  O  O290  1  0.61896199  0.86896935  0.87093004  1
  O  O291  1  0.38172687  0.12937554  0.12701651  1
  O  O292  1  0.38087078  0.13403760  0.62953357  1
  O  O293  1  0.38237958  0.63114582  0.11725187  1
  O  O294  1  0.38860957  0.63200458  0.62093434  1
  O  O295  1  0.88632188  0.12640027  0.12833184  1
  O  O296  1  0.87221265  0.13334957  0.63192172  1
  O  O297  1  0.86577456  0.62636044  0.12924892  1
  O  O298  1  0.87385031  0.62998497  0.63911702  1
  O  O299  1  0.25623931  0.25289624  0.11691911  1
  O  O300  1  0.25951442  0.25237390  0.62051697  1
  O  O301  1  0.25512436  0.75792410  0.12474514  1
  O  O302  1  0.25503800  0.76337791  0.61300185  1
  O  O303  1  0.75348093  0.25823719  0.13206086  1
  O  O304  1  0.74410691  0.24648199  0.61032087  1
  O  O305  1  0.75281501  0.76336044  0.12572542  1
  O  O306  1  0.74984063  0.76228634  0.62872958  1
  O  O307  1  0.24152117  0.24343304  0.38020715  1
  O  O308  1  0.24180187  0.24611966  0.87730230  1
  O  O309  1  0.24787875  0.74599200  0.38665636  1
  O  O310  1  0.26003467  0.74601273  0.88643304  1
  O  O311  1  0.74663329  0.23605066  0.38112710  1
  O  O312  1  0.75092354  0.25198906  0.88117554  1
  O  O313  1  0.73760597  0.75736893  0.36956278  1
  O  O314  1  0.74274471  0.74291966  0.87269874  1
  O  O315  1  0.00167468  0.11927930  0.00744898  1
  O  O316  1  -0.00087903  0.11115313  0.49457270  1
  O  O317  1  0.01211891  0.61766681  0.00710628  1
  O  O318  1  0.01042846  0.61519145  0.49531590  1
  O  O319  1  0.50886654  0.13199883  0.01256945  1
  O  O320  1  0.49511266  0.11242524  0.50268814  1
  O  O321  1  0.51052996  0.62345270  0.00710942  1
  O  O322  1  0.50570424  0.61371709  0.50819581  1
  O  O323  1  0.49702969  0.39045189  0.50716430  1
  O  O324  1  0.49748752  0.37200245  0.99124324  1
  O  O325  1  0.49592079  0.88473173  0.49496285  1
  O  O326  1  0.48799979  0.87140674  0.99469755  1
  O  O327  1  1.00656551  0.39332220  0.49541442  1
  O  O328  1  0.99656918  0.36880349  0.98496577  1
  O  O329  1  0.98849643  0.89202486  0.49648225  1
  O  O330  1  1.00744522  0.88302191  0.99089046  1
  O  O331  1  0.50205047  0.50369663  0.38972354  1
  O  O332  1  0.49494746  0.49037360  0.87418989  1
  O  O333  1  0.50077504  0.99209011  0.38162101  1
  O  O334  1  0.48769827  0.99225987  0.86904540  1
  O  O335  1  0.99096970  0.50226570  0.37998233  1
  O  O336  1  1.00223253  0.48200914  0.87241808  1
  O  O337  1  0.98711787  1.00399305  0.37678028  1
  O  O338  1  0.99709063  0.99277031  0.88412439  1
  O  O339  1  0.00531407  0.00650456  0.11972485  1
  O  O340  1  0.00872674  -0.00495221  0.61982638  1
  O  O341  1  0.01395712  0.49551300  0.13081721  1
  O  O342  1  0.01343883  0.49914026  0.61917772  1
  O  O343  1  0.50813962  0.00819969  0.12898311  1
  O  O344  1  0.50679915  0.00251496  0.61806937  1
  O  O345  1  0.50644923  0.50535024  0.12032328  1
  O  O346  1  0.50974781  0.50740192  0.62349437  1
  O  O347  1  0.22960066  0.35509975  0.23744255  1
  O  O348  1  0.23829082  0.38009741  0.75059867  1
  O  O349  1  0.25769971  0.89021115  0.24384096  1
  O  O350  1  0.23986033  0.87551048  0.74431472  1
  O  O351  1  0.74304130  0.37855192  0.24651717  1
  O  O352  1  0.74357902  0.38316366  0.75467511  1
  O  O353  1  0.74227152  0.88686611  0.23876638  1
  O  O354  1  0.74522950  0.88112536  0.74208334  1
  O  O355  1  0.25212874  0.11901754  0.25543797  1
  O  O356  1  0.25867384  0.12435837  0.75991114  1
  O  O357  1  0.25081920  0.62654096  0.26619967  1
  O  O358  1  0.24847266  0.61316663  0.75464351  1
  O  O359  1  0.75120463  0.11253117  0.25102308  1
  O  O360  1  0.74723543  0.10766850  0.75131927  1
  O  O361  1  0.73768750  0.61079731  0.24614176  1
  O  O362  1  0.76038721  0.62049803  0.75432590  1
  O  O363  1  0.36102307  0.12474365  0.36874601  1
  O  O364  1  0.37309615  0.11829133  0.87253178  1
  O  O365  1  0.36142917  0.63267173  0.38211089  1
  O  O366  1  0.37910180  0.61041691  0.88142122  1
  O  O367  1  0.85995615  0.11541336  0.37121032  1
  O  O368  1  0.88384674  0.10787924  0.86567602  1
  O  O369  1  0.87590257  0.61325133  0.37858136  1
  O  O370  1  0.86594174  0.62937341  0.86665742  1
  O  O371  1  0.12771065  0.38226780  0.12869310  1
  O  O372  1  0.12924949  0.38622509  0.63464799  1
  O  O373  1  0.14406028  0.88588937  0.11564774  1
  O  O374  1  0.13137503  0.88290397  0.63549795  1
  O  O375  1  0.63255341  0.37801094  0.13389854  1
  O  O376  1  0.62177253  0.38489037  0.63534249  1
  O  O377  1  0.62690786  0.88147310  0.12855991  1
  O  O378  1  0.63117673  0.88244365  0.62839242  1
  O  O379  1  0.11243713  0.25323713  0.25653188  1
  O  O380  1  0.12202577  0.25795968  0.75683095  1
  O  O381  1  0.13890416  0.75331600  0.26603631  1
  O  O382  1  0.12653730  0.76273291  0.74931574  1
  O  O383  1  0.61763067  0.25584039  0.25164050  1
  O  O384  1  0.61957900  0.25848549  0.74413630  1
  O  O385  1  0.61775841  0.75725838  0.25784964  1
  O  O386  1  0.61587347  0.75388283  0.75391069  1
  O  O387  1  0.38149558  0.24871530  0.24090750  1
  O  O388  1  0.38294688  0.24658207  0.74380640  1
  O  O389  1  0.37764274  0.75702290  0.23611779  1
  O  O390  1  0.38854979  0.75775261  0.74337265  1
  O  O391  1  0.88711049  0.25177700  0.25297683  1
  O  O392  1  0.89534609  0.24709583  0.75127317  1
  O  O393  1  0.87248172  0.75778452  0.22865618  1
  O  O394  1  0.87442419  0.73696258  0.74851742  1
  O  O395  1  0.38932010  0.49255323  0.50775619  1
  O  O396  1  0.37731155  0.48990863  0.99136485  1
  O  O397  1  0.38284919  0.99453374  0.49905576  1
  O  O398  1  0.37512726  0.99276007  0.99177851  1
  O  O399  1  0.88269732  0.50337226  0.49382093  1
  O  O400  1  0.82690861  0.48723592  0.97968656  1
  O  O401  1  0.87851446  0.99458585  0.49269870  1
  O  O402  1  0.88683857  1.00352508  0.99351313  1
  O  O403  1  0.11667408  0.00273045  0.01101390  1
  O  O404  1  0.11528557  0.00152518  0.51074120  1
  O  O405  1  0.12710880  0.49594570  0.01203134  1
  O  O406  1  0.12269406  0.50991074  0.50673188  1
  O  O407  1  0.62975450  0.00925957  0.01124105  1
  O  O408  1  0.61635103  -0.00658358  0.50853416  1
  O  O409  1  0.62744523  0.50732950  0.00719986  1
  O  O410  1  0.61648484  0.50490553  0.50550992  1
  O  O411  1  0.37559472  0.36684628  0.10731072  1
  O  O412  1  0.37686796  0.36368388  0.62097721  1
  O  O413  1  0.36823699  0.87283381  0.11933911  1
  O  O414  1  0.36804225  0.87142132  0.62231493  1
  O  O415  1  0.86661790  0.37339790  0.12090468  1
  O  O416  1  0.88396384  0.36215077  0.61659733  1
  O  O417  1  0.85914072  0.88061166  0.12014342  1
  O  O418  1  0.86751166  0.87226853  0.61613465  1
  O  O419  1  0.13437527  0.13074619  0.37664623  1
  O  O420  1  0.13356614  0.13231752  0.87654474  1
  O  O421  1  0.13758088  0.63468537  0.38816591  1
  O  O422  1  0.12354031  0.62318384  0.89366168  1
  O  O423  1  0.63991642  0.12232387  0.36810262  1
  O  O424  1  0.61654632  0.11719467  0.88995754  1
  O  O425  1  0.61874843  0.63693240  0.38508431  1
  O  O426  1  0.62707671  0.63234656  0.88064703  1
