# generated using pymatgen
data_V85Zn86O256
_symmetry_space_group_name_H-M   'P 1'
_cell_length_a   16.93168830
_cell_length_b   16.92374391
_cell_length_c   16.93026883
_cell_angle_alpha   90.00236449
_cell_angle_beta   89.95398960
_cell_angle_gamma   90.06776638
_symmetry_Int_Tables_number   1
_chemical_formula_structural   V85Zn86O256
_chemical_formula_sum   'V85 Zn86 O256'
_cell_volume   4851.32220851
_cell_formula_units_Z   1
loop_
 _symmetry_equiv_pos_site_id
 _symmetry_equiv_pos_as_xyz
  1  'x, y, z'
loop_
 _atom_site_type_symbol
 _atom_site_label
 _atom_site_symmetry_multiplicity
 _atom_site_fract_x
 _atom_site_fract_y
 _atom_site_fract_z
 _atom_site_occupancy
  V  V0  1  0.75738559  0.76372941  0.50424598  1
  V  V1  1  0.24681426  0.24363959  -0.00159676  1
  V  V2  1  0.75092764  0.62800158  0.37859838  1
  V  V3  1  0.75129795  0.62528221  0.87063098  1
  V  V4  1  0.11636371  -0.00062308  0.10942859  1
  V  V5  1  0.86651325  0.11991254  0.75136623  1
  V  V6  1  0.62688512  0.88158480  0.24543014  1
  V  V7  1  -0.01361142  0.61931804  0.62569343  1
  V  V8  1  0.87403293  0.49967292  0.86885328  1
  V  V9  1  0.36209659  0.75255492  0.12465706  1
  V  V10  1  0.37300144  0.12491203  0.24742957  1
  V  V11  1  0.50213141  0.74710293  0.74742551  1
  V  V12  1  -0.00013225  0.24882774  0.74660911  1
  V  V13  1  0.37172870  0.87874224  0.00100664  1
  V  V14  1  0.87707559  0.37596933  0.50149217  1
  V  V15  1  0.87688297  0.00524826  0.38978141  1
  V  V16  1  0.25148282  0.37467295  0.11542285  1
  V  V17  1  0.25013852  0.12740698  0.38204389  1
  V  V18  1  0.36496800  0.49802639  0.87242177  1
  V  V19  1  -0.00134653  0.49437930  0.00050626  1
  V  V20  1  0.12536998  0.37239191  0.24745453  1
  V  V21  1  0.87529395  0.62618054  0.25050532  1
  V  V22  1  0.74742353  0.49928287  0.24926815  1
  V  V23  1  0.50207306  0.00540669  0.50519188  1
  V  V24  1  0.49837933  0.25057929  0.25141166  1
  V  V25  1  0.49609603  0.23843345  0.75025693  1
  V  V26  1  0.12962111  0.25213172  0.38459997  1
  V  V27  1  0.88372229  0.87878932  -0.00553932  1
  V  V28  1  0.11795862  0.11817234  0.50107379  1
  V  V29  1  0.86035767  0.37308109  -0.00029896  1
  V  V30  1  0.37186763  0.62211197  0.74843309  1
  V  V31  1  0.11669212  0.61759066  0.50099698  1
  V  V32  1  0.49642333  0.00516229  0.00435357  1
  V  V33  1  0.24941619  0.74856473  0.49744528  1
  V  V34  1  0.74850244  0.37427224  0.62265315  1
  V  V35  1  0.62343375  0.62978964  0.50621789  1
  V  V36  1  0.87620507  0.75119600  0.12486426  1
  V  V37  1  0.50353329  0.37437940  0.37917342  1
  V  V38  1  0.74978754  0.50203110  0.74917675  1
  V  V39  1  0.49338176  0.37449212  0.87940237  1
  V  V40  1  0.24832371  0.75328619  -0.01684530  1
  V  V41  1  0.62241481  0.37057857  0.75048215  1
  V  V42  1  0.12475404  0.49865274  0.12266572  1
  V  V43  1  0.87395519  0.76704951  0.63214293  1
  V  V44  1  0.75244553  0.00975413  0.25841278  1
  V  V45  1  0.37358136  -0.00083615  0.37504390  1
  V  V46  1  0.50064521  0.88017292  0.87403789  1
  V  V47  1  0.37550389  0.25210262  0.11836706  1
  V  V48  1  0.87112298  0.25210413  0.12777151  1
  V  V49  1  0.12320838  0.24151392  0.87402792  1
  V  V50  1  0.75025588  0.87687856  0.12375230  1
  V  V51  1  0.49444488  0.50217936  -0.00071803  1
  V  V52  1  0.50326620  0.75066164  0.24645102  1
  V  V53  1  0.62147739  0.50237986  0.62645241  1
  V  V54  1  0.37513518  0.49933522  0.37667173  1
  V  V55  1  0.12213335  0.75108304  0.37536236  1
  V  V56  1  0.49867220  0.50481104  0.50748043  1
  V  V57  1  0.25009475  0.49981019  0.24890567  1
  V  V58  1  0.74577870  0.23835849  0.49698473  1
  V  V59  1  0.00795973  0.74395286  0.75767116  1
  V  V60  1  0.36797109  0.23878744  0.62600962  1
  V  V61  1  0.38175692  0.74200634  0.62182050  1
  V  V62  1  0.25026896  0.37647745  0.63368786  1
  V  V63  1  0.11991931  -0.00661098  0.63006900  1
  V  V64  1  0.87839583  0.50140922  0.37949908  1
  V  V65  1  0.24630473  -0.00679404  0.24133765  1
  V  V66  1  0.67572943  0.05920338  0.06750146  1
  V  V67  1  0.63787753  0.87695516  0.74559801  1
  V  V68  1  0.37518070  0.62551732  0.24873606  1
  V  V69  1  0.01576019  0.88147301  0.87182205  1
  V  V70  1  0.62998045  0.24400022  0.88919255  1
  V  V71  1  0.24715851  0.87082178  0.63555775  1
  V  V72  1  0.12517284  0.62842002  -0.00805000  1
  V  V73  1  0.74895955  0.74886824  -0.00004089  1
  V  V74  1  -0.00088265  0.75490354  0.24855238  1
  V  V75  1  0.00253456  0.38013520  0.37969881  1
  V  V76  1  0.12545807  0.50196120  0.63356111  1
  V  V77  1  0.62421762  0.23412673  0.38052663  1
  V  V78  1  -0.00459183  0.87974210  0.38809562  1
  V  V79  1  0.50225418  0.87634292  0.37445159  1
  V  V80  1  0.63885717  0.00247545  0.62608781  1
  V  V81  1  0.37409510  0.87256562  0.49903615  1
  V  V82  1  0.26546045  0.12011287  0.86864086  1
  V  V83  1  0.36812874  0.36949168  0.50253778  1
  V  V84  1  0.24775127  0.62437326  0.37467220  1
  Zn  Zn85  1  0.12603848  0.37708246  0.75257262  1
  Zn  Zn86  1  0.00666448  0.12336717  0.12095709  1
  Zn  Zn87  1  -0.00088929  0.24681086  0.25319277  1
  Zn  Zn88  1  0.87319256  -0.00187911  0.87188307  1
  Zn  Zn89  1  0.62371313  0.62396723  0.00131398  1
  Zn  Zn90  1  0.49898291  0.12023929  0.62829204  1
  Zn  Zn91  1  0.24430980  0.62546085  0.86549936  1
  Zn  Zn92  1  0.62380309  0.37615559  0.25138042  1
  Zn  Zn93  1  -0.00179114  0.12137446  0.62349387  1
  Zn  Zn94  1  0.50338362  0.12368825  0.12233028  1
  Zn  Zn95  1  0.12715759  0.87407111  0.24611082  1
  Zn  Zn96  1  0.61966904  0.50104552  0.12667887  1
  Zn  Zn97  1  0.00055383  0.37352851  0.87215936  1
  Zn  Zn98  1  0.00070529  0.62549575  0.12320173  1
  Zn  Zn99  1  0.87972358  0.12549892  0.25406411  1
  Zn  Zn100  1  0.74575198  0.12033964  0.88088574  1
  Zn  Zn101  1  0.62893362  0.75319115  0.37681298  1
  Zn  Zn102  1  0.74165866  0.37389262  0.12430733  1
  Zn  Zn103  1  0.50002312  0.62579905  0.12148687  1
  Zn  Zn104  1  0.62504589  0.74877329  0.87375754  1
  Zn  Zn105  1  0.87540679  0.24834177  0.62442062  1
  Zn  Zn106  1  0.25998409  0.00863270  0.74813902  1
  Zn  Zn107  1  0.18567932  0.18420127  0.18965095  1
  Zn  Zn108  1  0.18850142  0.18628460  0.68774386  1
  Zn  Zn109  1  0.18333647  0.68603023  0.18375056  1
  Zn  Zn110  1  0.18874223  0.68780963  0.68515530  1
  Zn  Zn111  1  0.69135903  0.19595053  0.19659301  1
  Zn  Zn112  1  0.68555390  0.18688145  0.68454808  1
  Zn  Zn113  1  0.68540331  0.68535433  0.18550862  1
  Zn  Zn114  1  0.69114887  0.68907334  0.68642841  1
  Zn  Zn115  1  0.31202048  0.31194353  0.31208824  1
  Zn  Zn116  1  0.31287848  0.30937787  0.81104654  1
  Zn  Zn117  1  0.31359667  0.81227576  0.31201348  1
  Zn  Zn118  1  0.32292003  0.83621818  0.80276723  1
  Zn  Zn119  1  0.81013596  0.31197624  0.31456910  1
  Zn  Zn120  1  0.81092602  0.30879729  0.81321863  1
  Zn  Zn121  1  0.81374834  0.81892387  0.31522907  1
  Zn  Zn122  1  0.81817665  0.81065263  0.81313906  1
  Zn  Zn123  1  0.18808359  0.43966665  0.44309686  1
  Zn  Zn124  1  0.18495783  0.43214565  0.93588843  1
  Zn  Zn125  1  0.18507081  0.93746734  0.43711227  1
  Zn  Zn126  1  0.19195900  0.93887747  0.93576966  1
  Zn  Zn127  1  0.68839326  0.43769367  0.43731567  1
  Zn  Zn128  1  0.67990615  0.43899948  0.93484465  1
  Zn  Zn129  1  0.68647659  0.94330904  0.43763475  1
  Zn  Zn130  1  0.69298097  0.93379924  0.92754046  1
  Zn  Zn131  1  0.31009824  0.06376155  0.05946083  1
  Zn  Zn132  1  0.30777575  0.05807774  0.56116488  1
  Zn  Zn133  1  0.31337581  0.56563665  0.05785334  1
  Zn  Zn134  1  0.30941389  0.56187043  0.56431141  1
  Zn  Zn135  1  0.83761636  0.06403577  0.06001330  1
  Zn  Zn136  1  0.81604138  0.06335501  0.56649417  1
  Zn  Zn137  1  0.81293467  0.56306648  0.06215738  1
  Zn  Zn138  1  0.80927685  0.56287741  0.56131104  1
  Zn  Zn139  1  0.43683585  0.43600571  0.18740951  1
  Zn  Zn140  1  0.43620783  0.43429411  0.69019891  1
  Zn  Zn141  1  0.43709695  0.93810789  0.18220035  1
  Zn  Zn142  1  0.43637335  0.93360338  0.68799690  1
  Zn  Zn143  1  0.93706412  0.43285311  0.18672801  1
  Zn  Zn144  1  0.93975466  0.43626879  0.68658421  1
  Zn  Zn145  1  0.93872996  0.93924872  0.18964745  1
  Zn  Zn146  1  0.94438750  0.93666737  0.69495408  1
  Zn  Zn147  1  0.06051631  0.06428934  0.30947438  1
  Zn  Zn148  1  0.06603189  0.06441261  0.80971299  1
  Zn  Zn149  1  0.06046595  0.56268250  0.31108621  1
  Zn  Zn150  1  0.05725323  0.56485801  0.81048634  1
  Zn  Zn151  1  0.55975294  0.06049506  0.30951091  1
  Zn  Zn152  1  0.56496655  0.05925346  0.81373230  1
  Zn  Zn153  1  0.56348271  0.56610014  0.31750646  1
  Zn  Zn154  1  0.56070651  0.56419807  0.81470825  1
  Zn  Zn155  1  0.43613668  0.18672609  0.44068554  1
  Zn  Zn156  1  0.43845132  0.18921963  0.93857155  1
  Zn  Zn157  1  0.44032358  0.68677006  0.43371404  1
  Zn  Zn158  1  0.43547337  0.68878376  0.93318043  1
  Zn  Zn159  1  0.93839349  0.19074319  0.43749702  1
  Zn  Zn160  1  0.93549707  0.18626230  0.93744329  1
  Zn  Zn161  1  0.93635993  0.69202659  0.44147255  1
  Zn  Zn162  1  0.93549042  0.68470822  0.93684499  1
  Zn  Zn163  1  0.04138199  0.28046058  0.04291822  1
  Zn  Zn164  1  0.06329308  0.31204113  0.56383026  1
  Zn  Zn165  1  0.06861787  0.81759193  0.06138429  1
  Zn  Zn166  1  0.06127667  0.80802047  0.56578880  1
  Zn  Zn167  1  0.56002605  0.31878132  0.06406397  1
  Zn  Zn168  1  0.55920756  0.30957627  0.56403052  1
  Zn  Zn169  1  0.56223732  0.81558213  0.06334776  1
  Zn  Zn170  1  0.56454156  0.81704221  0.56445239  1
  O  O171  1  0.12859663  0.10457307  0.13218628  1
  O  O172  1  0.12900708  0.11353640  0.61626576  1
  O  O173  1  0.12322277  0.61531895  0.11354775  1
  O  O174  1  0.11781850  0.61884286  0.61837161  1
  O  O175  1  0.62460925  0.12535745  0.12753843  1
  O  O176  1  0.62001323  0.10674233  0.63281166  1
  O  O177  1  0.61890038  0.62025601  0.12111545  1
  O  O178  1  0.62932971  0.61912182  0.61380543  1
  O  O179  1  0.38266532  0.37694881  0.38320532  1
  O  O180  1  0.38322026  0.38349723  0.86620619  1
  O  O181  1  0.38155842  0.87948288  0.37920690  1
  O  O182  1  0.38898535  0.86400150  0.89380157  1
  O  O183  1  0.88333696  0.38184312  0.37993443  1
  O  O184  1  0.87334991  0.38078587  0.88362154  1
  O  O185  1  0.88830302  0.88469805  0.37399594  1
  O  O186  1  0.88455554  0.87444761  0.88113154  1
  O  O187  1  0.25616413  0.00642699  0.36731984  1
  O  O188  1  0.24671125  0.01747854  0.87370951  1
  O  O189  1  0.25552980  0.50450717  0.37061794  1
  O  O190  1  0.26198918  0.49913671  0.87926362  1
  O  O191  1  0.76608425  -0.00699969  0.37028054  1
  O  O192  1  0.75842237  0.00710156  0.87947394  1
  O  O193  1  0.75705027  0.50729712  0.36874580  1
  O  O194  1  0.75368373  0.50494021  0.86944377  1
  O  O195  1  0.24816462  0.49262767  0.12778287  1
  O  O196  1  0.23917505  0.49096744  0.62022214  1
  O  O197  1  0.24699242  1.00316088  0.13876266  1
  O  O198  1  0.24483231  0.98685088  0.62691092  1
  O  O199  1  0.75129891  0.50339661  0.14103687  1
  O  O200  1  0.74308542  0.49381387  0.62978830  1
  O  O201  1  0.74589458  1.00135313  0.12563622  1
  O  O202  1  0.73757945  0.99988284  0.62131997  1
  O  O203  1  0.01423563  0.38053173  0.26016118  1
  O  O204  1  0.00114858  0.36238951  0.75015057  1
  O  O205  1  0.00048979  0.86395940  0.25734814  1
  O  O206  1  -0.00116601  0.85989965  0.76310175  1
  O  O207  1  0.49700859  0.36886129  0.26293176  1
  O  O208  1  0.50789457  0.36818090  0.75766034  1
  O  O209  1  0.50777961  0.87184441  0.25247234  1
  O  O210  1  0.50767650  0.86451617  0.75763748  1
  O  O211  1  0.48620340  0.12888595  0.24915584  1
  O  O212  1  0.49974364  0.13500375  0.75247054  1
  O  O213  1  0.49362528  0.63474056  0.25209238  1
  O  O214  1  0.49288085  0.63970166  0.75579287  1
  O  O215  1  0.99917762  0.13017103  0.24264621  1
  O  O216  1  0.99314950  0.13537579  0.74908167  1
  O  O217  1  0.99373397  0.63707874  0.25043011  1
  O  O218  1  0.99548957  0.63392905  0.74085491  1
  O  O219  1  0.36767827  0.24891896  0.01188030  1
  O  O220  1  0.38175055  0.26001873  0.51128816  1
  O  O221  1  0.36638372  0.75229078  0.00807070  1
  O  O222  1  0.37150982  0.75044988  0.50298549  1
  O  O223  1  0.87281187  0.26336133  0.01235931  1
  O  O224  1  0.86308450  0.25820674  0.49808902  1
  O  O225  1  0.86655637  0.75518584  0.00456069  1
  O  O226  1  0.86431237  0.75009123  0.51142862  1
  O  O227  1  0.12599671  0.24526968  0.48908893  1
  O  O228  1  0.14171732  0.26049823  0.98982847  1
  O  O229  1  0.12980274  0.73942414  0.49522583  1
  O  O230  1  0.13606852  0.73981667  1.00693315  1
  O  O231  1  0.63606886  0.25459101  0.49559632  1
  O  O232  1  0.61729607  0.25241078  0.98724830  1
  O  O233  1  0.63518350  0.74512536  0.50303668  1
  O  O234  1  0.63908771  0.75282884  0.99948591  1
  O  O235  1  0.49110560  0.24847263  0.13043112  1
  O  O236  1  0.49287948  0.24471968  0.63317261  1
  O  O237  1  0.49275542  0.75119386  0.13620859  1
  O  O238  1  0.49138568  0.75485699  0.63126083  1
  O  O239  1  0.97879762  0.27296925  0.13919915  1
  O  O240  1  0.99855994  0.24632395  0.63207279  1
  O  O241  1  0.99570344  0.75040608  0.13278889  1
  O  O242  1  0.98816063  0.74451688  0.63117423  1
  O  O243  1  0.00797194  0.26424066  0.37372136  1
  O  O244  1  0.00819237  0.25206643  0.86631219  1
  O  O245  1  0.00085638  0.75892039  0.36875930  1
  O  O246  1  -0.00501800  0.74856683  0.86139145  1
  O  O247  1  0.50437578  0.25640334  0.37476067  1
  O  O248  1  0.50442658  0.25676171  0.86873040  1
  O  O249  1  0.49997817  0.75812695  0.36209187  1
  O  O250  1  0.50424044  0.75897196  0.86803248  1
  O  O251  1  0.24301674  0.12127590  0.48667103  1
  O  O252  1  0.25400782  0.13482287  0.98826328  1
  O  O253  1  0.24241423  0.62917135  0.49234564  1
  O  O254  1  0.24231705  0.63354544  0.99528565  1
  O  O255  1  0.75310767  0.14010637  0.50326600  1
  O  O256  1  0.74078065  0.11454937  1.01225821  1
  O  O257  1  0.74279363  0.63307743  0.49547151  1
  O  O258  1  0.74891923  0.63267410  0.99375210  1
  O  O259  1  0.25159231  0.37039689  0.01195949  1
  O  O260  1  0.26389249  0.37933949  0.50589725  1
  O  O261  1  0.25985005  0.86743900  -0.00401505  1
  O  O262  1  0.25522885  0.86516186  0.50075127  1
  O  O263  1  0.75755789  0.38617442  0.00153777  1
  O  O264  1  0.75920338  0.37187208  0.50345208  1
  O  O265  1  0.75860416  0.86721433  0.00515715  1
  O  O266  1  0.74481368  0.86128548  0.49805596  1
  O  O267  1  0.13129216  0.49516692  0.24449287  1
  O  O268  1  0.12176830  0.49996468  0.73808586  1
  O  O269  1  0.14019200  0.99788407  0.25412859  1
  O  O270  1  0.13378782  1.00400877  0.73289949  1
  O  O271  1  0.63394649  0.50101581  0.25435302  1
  O  O272  1  0.62621465  0.49112541  0.74656997  1
  O  O273  1  0.63543102  0.99162738  0.25733292  1
  O  O274  1  0.62123437  0.98632150  0.74013904  1
  O  O275  1  0.36698557  0.00578458  0.25262326  1
  O  O276  1  0.35134976  -0.05657541  0.75767741  1
  O  O277  1  0.36968103  0.50462628  0.25713857  1
  O  O278  1  0.38383335  0.51138313  0.75730497  1
  O  O279  1  0.86680088  0.00067647  0.25672138  1
  O  O280  1  0.88138588  0.01651402  0.74954136  1
  O  O281  1  0.87036733  0.50424991  0.26130457  1
  O  O282  1  0.86829910  0.49149904  0.76239215  1
  O  O283  1  0.12161380  0.37153035  0.37391515  1
  O  O284  1  0.12456098  0.36241706  0.86992346  1
  O  O285  1  0.11365432  0.86923007  0.37205757  1
  O  O286  1  0.11447130  0.87432289  0.87771556  1
  O  O287  1  0.61114586  0.37149247  0.37921107  1
  O  O288  1  0.61753148  0.36511747  0.86698909  1
  O  O289  1  0.62025993  0.87352174  0.36526717  1
  O  O290  1  0.61977133  0.87083831  0.86278238  1
  O  O291  1  0.37292132  0.13382656  0.13339358  1
  O  O292  1  0.37268964  0.13522307  0.61919460  1
  O  O293  1  0.37661742  0.63375863  0.13223408  1
  O  O294  1  0.37372552  0.63434168  0.62846243  1
  O  O295  1  0.88058593  0.14130328  0.12861125  1
  O  O296  1  0.87865821  0.12825827  0.63612139  1
  O  O297  1  0.87769964  0.63271201  0.13226708  1
  O  O298  1  0.88415317  0.62780118  0.61870945  1
  O  O299  1  0.25298843  0.25394812  0.11844752  1
  O  O300  1  0.25820032  0.25902584  0.62650689  1
  O  O301  1  0.25962919  0.74809945  0.12260315  1
  O  O302  1  0.25681399  0.74918234  0.61131139  1
  O  O303  1  0.76364444  0.25721231  0.13333105  1
  O  O304  1  0.74824930  0.25750840  0.61330628  1
  O  O305  1  0.75707353  0.75444761  0.11901828  1
  O  O306  1  0.76400450  0.74752642  0.61655803  1
  O  O307  1  0.24244219  0.24035748  0.37019571  1
  O  O308  1  0.24797010  0.24358086  0.88080394  1
  O  O309  1  0.24363093  0.74449205  0.37833625  1
  O  O310  1  0.25762649  0.75055812  0.88231256  1
  O  O311  1  0.73875587  0.25513221  0.38815846  1
  O  O312  1  0.73364592  0.24827334  0.87626734  1
  O  O313  1  0.75387853  0.74691238  0.38780994  1
  O  O314  1  0.75202337  0.74168151  0.88207954  1
  O  O315  1  0.01089202  0.16943257  0.01634285  1
  O  O316  1  0.01411484  0.13065868  0.50155935  1
  O  O317  1  0.00531729  0.61330227  0.00013873  1
  O  O318  1  0.00750645  0.63181722  0.51003887  1
  O  O319  1  0.49563755  0.11009979  -0.00110388  1
  O  O320  1  0.49558812  0.10855931  0.50129794  1
  O  O321  1  0.50051572  0.61802674  -0.00185265  1
  O  O322  1  0.50948505  0.61650909  0.49433418  1
  O  O323  1  0.49075076  0.38218334  0.49619299  1
  O  O324  1  0.49864908  0.38154243  0.98595931  1
  O  O325  1  0.49457915  0.88105256  0.49358419  1
  O  O326  1  0.49758394  0.88328713  0.99470537  1
  O  O327  1  0.98637913  0.37115326  0.49475549  1
  O  O328  1  0.99140981  0.38505638  0.99731662  1
  O  O329  1  1.00175190  0.86780116  0.48605736  1
  O  O330  1  0.99484582  0.85930786  0.98183190  1
  O  O331  1  0.49492464  0.49329817  0.38481115  1
  O  O332  1  0.49230714  0.49238448  0.87885245  1
  O  O333  1  0.49352148  0.99402586  0.38091742  1
  O  O334  1  0.50634078  0.98699199  0.88291151  1
  O  O335  1  0.99385435  0.48990570  0.37432129  1
  O  O336  1  0.98997032  0.49785288  0.88017817  1
  O  O337  1  0.99185265  0.98782461  0.37166428  1
  O  O338  1  1.00110233  0.98492118  0.86679515  1
  O  O339  1  0.01098503  0.00120324  0.12372119  1
  O  O340  1  0.01571013  -0.00042359  0.62766766  1
  O  O341  1  0.00456284  0.50016043  0.11703582  1
  O  O342  1  0.00681158  0.50970416  0.62728741  1
  O  O343  1  0.50161729  0.00367575  0.11484078  1
  O  O344  1  0.50004455  -0.00169586  0.61895575  1
  O  O345  1  0.49386077  0.50096163  0.11359816  1
  O  O346  1  0.50319808  0.49534523  0.61365588  1
  O  O347  1  0.24078307  0.38047647  0.24678538  1
  O  O348  1  0.24901473  0.37468857  0.73720310  1
  O  O349  1  0.25133587  0.88980606  0.25449937  1
  O  O350  1  0.23140108  0.84417193  0.73044778  1
  O  O351  1  0.74589826  0.38757463  0.25509304  1
  O  O352  1  0.73973625  0.37883401  0.74474042  1
  O  O353  1  0.74536656  0.88411693  0.24351291  1
  O  O354  1  0.73619602  0.86771208  0.75322652  1
  O  O355  1  0.25867552  0.11713371  0.25875740  1
  O  O356  1  0.25496651  0.12722342  0.76246869  1
  O  O357  1  0.25338790  0.61958530  0.25493957  1
  O  O358  1  0.26575281  0.63134156  0.74865907  1
  O  O359  1  0.75141857  0.11238386  0.25020517  1
  O  O360  1  0.76464811  0.13408864  0.75015961  1
  O  O361  1  0.75619756  0.62275481  0.25954194  1
  O  O362  1  0.74547443  0.61496497  0.75722371  1
  O  O363  1  0.36834719  0.12125645  0.36922681  1
  O  O364  1  0.36455424  0.12886158  0.87448987  1
  O  O365  1  0.36857100  0.61985933  0.36855564  1
  O  O366  1  0.37186459  0.61702342  0.86487987  1
  O  O367  1  0.88436563  0.10960839  0.37478631  1
  O  O368  1  0.87171205  0.12623221  0.86529012  1
  O  O369  1  0.87273112  0.61854401  0.37285780  1
  O  O370  1  0.86136447  0.61353649  0.87996093  1
  O  O371  1  0.13419241  0.37988332  0.13492499  1
  O  O372  1  0.13297584  0.38390930  0.62246212  1
  O  O373  1  0.12434754  0.89165462  0.12984744  1
  O  O374  1  0.13157019  0.88652054  0.61335330  1
  O  O375  1  0.62501250  0.38192446  0.13196183  1
  O  O376  1  0.62688730  0.38046475  0.63215013  1
  O  O377  1  0.63339458  0.87065652  0.13787773  1
  O  O378  1  0.62285908  0.88397172  0.63826077  1
  O  O379  1  0.12622848  0.25907956  0.26051056  1
  O  O380  1  0.11700572  0.25065245  0.75443509  1
  O  O381  1  0.11685414  0.75020539  0.25576269  1
  O  O382  1  0.10605715  0.74179266  0.74381373  1
  O  O383  1  0.61605545  0.25281649  0.26293855  1
  O  O384  1  0.61634633  0.25801383  0.75143361  1
  O  O385  1  0.61784675  0.75680296  0.25260294  1
  O  O386  1  0.61937432  0.75856438  0.74630896  1
  O  O387  1  0.37780236  0.24197104  0.24407438  1
  O  O388  1  0.38535433  0.25703576  0.73760565  1
  O  O389  1  0.38099008  0.74722307  0.24323677  1
  O  O390  1  0.38368080  0.74642796  0.73962336  1
  O  O391  1  0.87462694  0.24902269  0.24539614  1
  O  O392  1  0.88245353  0.24347741  0.74875275  1
  O  O393  1  0.88058189  0.74749146  0.24641904  1
  O  O394  1  0.88029398  0.74961315  0.73596451  1
  O  O395  1  0.38196945  0.49613254  0.49584617  1
  O  O396  1  0.38464695  0.50527156  0.98784240  1
  O  O397  1  0.37978377  0.99207146  0.49447611  1
  O  O398  1  0.38147415  0.98951952  1.00615457  1
  O  O399  1  0.86805089  0.49283491  0.48679776  1
  O  O400  1  0.88097782  0.49502011  0.99251972  1
  O  O401  1  0.87363591  1.00097315  0.48887082  1
  O  O402  1  0.88415570  0.98288312  0.99966710  1
  O  O403  1  0.12827965  -0.00144249  0.01128548  1
  O  O404  1  0.13144430  0.00894077  0.51025841  1
  O  O405  1  0.11716596  0.50218703  0.00383222  1
  O  O406  1  0.12585494  0.51246031  0.50753996  1
  O  O407  1  0.62099623  -0.00261558  0.00561135  1
  O  O408  1  0.61623307  -0.00950915  0.51619307  1
  O  O409  1  0.60785196  0.50106910  -0.00152099  1
  O  O410  1  0.61791486  0.50703599  0.50434025  1
  O  O411  1  0.36223047  0.36275844  0.13687872  1
  O  O412  1  0.36817557  0.37018288  0.61925988  1
  O  O413  1  0.37997288  0.86415410  0.11348145  1
  O  O414  1  0.36620093  0.85981530  0.61480057  1
  O  O415  1  0.86584508  0.37408102  0.11743116  1
  O  O416  1  0.86839292  0.37464382  0.61596385  1
  O  O417  1  0.87112906  0.86929687  0.11877347  1
  O  O418  1  0.87986212  0.86564796  0.62795356  1
  O  O419  1  0.13054511  0.13123833  0.38086576  1
  O  O420  1  0.13488052  0.13758957  0.87044991  1
  O  O421  1  0.12627101  0.62949577  0.38195531  1
  O  O422  1  0.12671448  0.61715635  0.88706928  1
  O  O423  1  0.61737811  0.13468711  0.37621348  1
  O  O424  1  0.62466740  0.14008710  0.87162166  1
  O  O425  1  0.63146031  0.63078958  0.38800835  1
  O  O426  1  0.63751352  0.62724376  0.87764774  1
