# generated using pymatgen
data_V85Zn86O256
_symmetry_space_group_name_H-M   'P 1'
_cell_length_a   16.93600775
_cell_length_b   16.93873191
_cell_length_c   16.93499188
_cell_angle_alpha   90.04016155
_cell_angle_beta   90.06334492
_cell_angle_gamma   90.01871188
_symmetry_Int_Tables_number   1
_chemical_formula_structural   V85Zn86O256
_chemical_formula_sum   'V85 Zn86 O256'
_cell_volume   4858.21281745
_cell_formula_units_Z   1
loop_
 _symmetry_equiv_pos_site_id
 _symmetry_equiv_pos_as_xyz
  1  'x, y, z'
loop_
 _atom_site_type_symbol
 _atom_site_label
 _atom_site_symmetry_multiplicity
 _atom_site_fract_x
 _atom_site_fract_y
 _atom_site_fract_z
 _atom_site_occupancy
  V  V0  1  0.62730858  0.75210330  0.38106015  1
  V  V1  1  0.39452416  0.47973832  0.38361753  1
  V  V2  1  0.00582748  0.88120909  0.87509640  1
  V  V3  1  0.12615657  0.23966538  0.87782615  1
  V  V4  1  0.24375445  0.61953534  0.86527033  1
  V  V5  1  0.25466676  0.01380555  0.75503675  1
  V  V6  1  0.49759708  0.74927701  0.74717587  1
  V  V7  1  0.49106700  0.12253970  0.64144416  1
  V  V8  1  0.50280595  0.25391945  0.24965390  1
  V  V9  1  0.87458718  0.50020932  0.37842958  1
  V  V10  1  0.00421099  0.37831584  0.87618866  1
  V  V11  1  0.24772467  0.38146401  0.12389420  1
  V  V12  1  0.62375258  0.61806156  0.50376263  1
  V  V13  1  0.49967009  0.36163127  0.87495929  1
  V  V14  1  0.74423628  0.12999393  0.87336721  1
  V  V15  1  0.24068415  0.24122366  0.00061572  1
  V  V16  1  0.74796538  0.86980320  0.61947966  1
  V  V17  1  0.75274180  -0.00267056  0.74966281  1
  V  V18  1  0.25352417  0.38682678  0.62572811  1
  V  V19  1  0.13075130  0.74656874  0.37832955  1
  V  V20  1  -0.00037353  0.86808384  0.37280866  1
  V  V21  1  0.74488688  0.25366151  -0.00359458  1
  V  V22  1  0.62207033  0.35827583  0.75707209  1
  V  V23  1  0.87331845  0.74802029  0.62161575  1
  V  V24  1  0.62431898  0.37431191  0.24462146  1
  V  V25  1  0.62351772  0.87534109  0.24975445  1
  V  V26  1  0.62215813  0.62631817  0.00154006  1
  V  V27  1  0.25249742  0.50200270  0.26185645  1
  V  V28  1  -0.00378294  0.25093823  0.24455141  1
  V  V29  1  0.75128907  0.63058315  0.38474385  1
  V  V30  1  0.75110870  0.87446796  0.12484070  1
  V  V31  1  0.87721656  0.74599821  0.12464070  1
  V  V32  1  0.37763240  0.87236178  0.00603740  1
  V  V33  1  0.37680011  0.62479434  0.26640253  1
  V  V34  1  -0.00049633  0.12486859  0.62362655  1
  V  V35  1  0.61884637  -0.00184596  0.62247451  1
  V  V36  1  0.62349851  0.00344116  0.11951173  1
  V  V37  1  0.24949633  0.74130017  0.00580847  1
  V  V38  1  0.37358550  0.25416917  0.12424176  1
  V  V39  1  0.87465348  0.00045058  0.37401480  1
  V  V40  1  0.12695146  0.12799949  0.49941768  1
  V  V41  1  0.24746666  0.87088940  0.63402396  1
  V  V42  1  -0.00024258  0.37532178  0.38017378  1
  V  V43  1  0.13161587  0.61138678  0.49921121  1
  V  V44  1  0.59966210  0.28783202  0.40839898  1
  V  V45  1  0.87912079  0.37307694  0.00323088  1
  V  V46  1  0.12263310  0.00431262  0.10951267  1
  V  V47  1  0.87269961  0.87219511  0.49887411  1
  V  V48  1  0.74315215  0.12748173  0.37709295  1
  V  V49  1  0.87559975  0.25061845  0.62507231  1
  V  V50  1  0.75723198  0.37190296  0.12482764  1
  V  V51  1  0.62273018  0.75192719  0.87314511  1
  V  V52  1  0.74884091  0.24607053  0.50143531  1
  V  V53  1  0.87753394  0.37886125  0.50279496  1
  V  V54  1  0.74941625  0.00168595  0.25009756  1
  V  V55  1  0.26254757  0.25207448  0.50070763  1
  V  V56  1  0.87482466  0.63059891  0.25203596  1
  V  V57  1  0.12378988  0.37549077  0.24912376  1
  V  V58  1  0.73899946  0.50156219  0.75075301  1
  V  V59  1  0.37233234  0.12346501  0.24433669  1
  V  V60  1  0.49487829  0.75189068  0.24659503  1
  V  V61  1  0.74328126  0.37956191  0.62670056  1
  V  V62  1  0.60942237  0.11836003  0.49710756  1
  V  V63  1  0.87485043  0.12531361  0.74965364  1
  V  V64  1  0.00497092  0.51643513  0.00797875  1
  V  V65  1  0.00288328  0.61097344  0.61854512  1
  V  V66  1  0.87328268  0.13082893  0.24608852  1
  V  V67  1  0.49548775  0.50008274  -0.00424667  1
  V  V68  1  0.87485422  0.50362416  0.87465229  1
  V  V69  1  0.00140857  -0.00053546  0.49940176  1
  V  V70  1  0.12515110  -0.00679344  0.63036080  1
  V  V71  1  0.49472132  0.88225824  0.38098919  1
  V  V72  1  0.75004278  0.50132764  0.25014340  1
  V  V73  1  0.00397926  0.25172820  0.75022860  1
  V  V74  1  0.49083477  0.62615635  0.12497402  1
  V  V75  1  0.11856528  0.87822875  0.24844371  1
  V  V76  1  0.37599603  0.25150260  0.64498525  1
  V  V77  1  0.13191760  0.38883057  0.74766682  1
  V  V78  1  -0.00264869  0.12351288  0.11359668  1
  V  V79  1  0.04407696  0.69143187  0.19436235  1
  V  V80  1  0.50301815  0.60981474  0.62124227  1
  V  V81  1  0.75102735  0.74887829  -0.00166500  1
  V  V82  1  0.37619454  0.74920224  0.62051845  1
  V  V83  1  0.00925140  0.75443225  0.74466260  1
  V  V84  1  0.24624843  0.00089116  0.24843583  1
  Zn  Zn85  1  0.37280451  0.88682240  0.50548361  1
  Zn  Zn86  1  0.50085831  0.00392899  -0.00772846  1
  Zn  Zn87  1  0.36937365  0.61747070  0.74489614  1
  Zn  Zn88  1  0.37737860  0.00883538  0.86998705  1
  Zn  Zn89  1  0.25128821  0.74960535  0.49789588  1
  Zn  Zn90  1  0.74937517  0.62653026  0.87166677  1
  Zn  Zn91  1  0.62571130  0.50309155  0.12366584  1
  Zn  Zn92  1  0.87819800  0.00115034  0.88689266  1
  Zn  Zn93  1  0.50226849  0.12715284  0.12102301  1
  Zn  Zn94  1  0.12718738  0.74957355  0.87496528  1
  Zn  Zn95  1  0.37563741  0.00602251  0.37896634  1
  Zn  Zn96  1  0.62376866  0.87393305  0.74998533  1
  Zn  Zn97  1  0.87516604  0.62364027  0.74684758  1
  Zn  Zn98  1  0.62173743  0.13102788  -0.00521929  1
  Zn  Zn99  1  0.24997189  0.12535314  0.37499949  1
  Zn  Zn100  1  0.12368527  0.51591639  0.12731565  1
  Zn  Zn101  1  0.49374674  0.87611164  0.87330950  1
  Zn  Zn102  1  0.12734877  0.25001956  0.37627392  1
  Zn  Zn103  1  0.25291818  0.87446301  0.12387030  1
  Zn  Zn104  1  0.37022681  0.49758692  0.86532884  1
  Zn  Zn105  1  0.88091469  0.87725865  -0.00097594  1
  Zn  Zn106  1  0.37123689  0.37750696  -0.00269630  1
  Zn  Zn107  1  0.18420277  0.18676763  0.18356864  1
  Zn  Zn108  1  0.18696038  0.19132636  0.68602988  1
  Zn  Zn109  1  0.20894413  0.69014313  0.19265091  1
  Zn  Zn110  1  0.18632185  0.68170864  0.68201202  1
  Zn  Zn111  1  0.68968532  0.19122304  0.18304007  1
  Zn  Zn112  1  0.68558929  0.18411837  0.68411460  1
  Zn  Zn113  1  0.68510911  0.68757876  0.18938413  1
  Zn  Zn114  1  0.68674218  0.68674356  0.68703820  1
  Zn  Zn115  1  0.31183750  0.31212942  0.31370250  1
  Zn  Zn116  1  0.30900244  0.31454492  0.81743341  1
  Zn  Zn117  1  0.31159330  0.81457495  0.30900909  1
  Zn  Zn118  1  0.31338085  0.81102275  0.81615426  1
  Zn  Zn119  1  0.80695231  0.30979825  0.31670163  1
  Zn  Zn120  1  0.81380131  0.31480407  0.81410770  1
  Zn  Zn121  1  0.81229894  0.81104405  0.31061774  1
  Zn  Zn122  1  0.81745445  0.81254672  0.80908059  1
  Zn  Zn123  1  0.19357606  0.43251162  0.43822439  1
  Zn  Zn124  1  0.18255827  0.43991890  0.93902251  1
  Zn  Zn125  1  0.19293524  0.93678810  0.44068720  1
  Zn  Zn126  1  0.19034969  0.92848606  0.93292048  1
  Zn  Zn127  1  0.68173975  0.43732504  0.44143280  1
  Zn  Zn128  1  0.68452912  0.43913051  0.93602407  1
  Zn  Zn129  1  0.68569459  0.93799964  0.43876021  1
  Zn  Zn130  1  0.69116370  0.93626943  0.93660903  1
  Zn  Zn131  1  0.32639859  0.07888604  0.02899321  1
  Zn  Zn132  1  0.31270065  0.06098272  0.56396320  1
  Zn  Zn133  1  0.31350334  0.56351804  0.06501668  1
  Zn  Zn134  1  0.31933535  0.56234415  0.55373079  1
  Zn  Zn135  1  0.81244206  0.06413687  0.06109090  1
  Zn  Zn136  1  0.81015508  0.05943024  0.56201619  1
  Zn  Zn137  1  0.81453880  0.56258629  0.06314631  1
  Zn  Zn138  1  0.81114425  0.56109336  0.56370898  1
  Zn  Zn139  1  0.43808184  0.44041634  0.18916093  1
  Zn  Zn140  1  0.43770163  0.43457411  0.69048774  1
  Zn  Zn141  1  0.43541629  0.93699129  0.18237055  1
  Zn  Zn142  1  0.43373187  0.93615374  0.69017371  1
  Zn  Zn143  1  0.93781072  0.44280879  0.18777936  1
  Zn  Zn144  1  0.93567790  0.43652798  0.69193852  1
  Zn  Zn145  1  0.93840553  0.93943053  0.18317977  1
  Zn  Zn146  1  0.93717442  0.93511922  0.68890120  1
  Zn  Zn147  1  0.06024929  0.06294114  0.31201784  1
  Zn  Zn148  1  0.06568892  0.06112947  0.81054133  1
  Zn  Zn149  1  0.06602536  0.55477208  0.32366259  1
  Zn  Zn150  1  0.06105307  0.56836569  0.81314990  1
  Zn  Zn151  1  0.56097365  0.06522842  0.30642725  1
  Zn  Zn152  1  0.56434310  0.05899840  0.81261715  1
  Zn  Zn153  1  0.56456850  0.56223070  0.31365133  1
  Zn  Zn154  1  0.55770507  0.56280005  0.81249120  1
  Zn  Zn155  1  0.43475393  0.18485667  0.43584921  1
  Zn  Zn156  1  0.43345673  0.18335122  0.93600894  1
  Zn  Zn157  1  0.44157094  0.69025731  0.43981097  1
  Zn  Zn158  1  0.42929186  0.68762219  0.93404329  1
  Zn  Zn159  1  0.93734742  0.19005163  0.43433669  1
  Zn  Zn160  1  0.93148111  0.19193252  0.93338300  1
  Zn  Zn161  1  0.94222019  0.68765185  0.44101818  1
  Zn  Zn162  1  0.93772706  0.69185617  0.93261055  1
  Zn  Zn163  1  0.06016631  0.31507491  0.06555186  1
  Zn  Zn164  1  0.06736017  0.31540834  0.56453430  1
  Zn  Zn165  1  0.06983936  0.81778406  0.05481093  1
  Zn  Zn166  1  0.06357860  0.81040312  0.56036699  1
  Zn  Zn167  1  0.56222087  0.31528538  0.06189765  1
  Zn  Zn168  1  0.55888600  0.31194850  0.57682956  1
  Zn  Zn169  1  0.56076596  0.81265673  0.06368043  1
  Zn  Zn170  1  0.56228232  0.80877272  0.56071363  1
  O  O171  1  0.11247947  0.11209345  0.13020891  1
  O  O172  1  0.11879517  0.11962263  0.61487136  1
  O  O173  1  0.11665177  0.63374742  0.14460597  1
  O  O174  1  0.11297875  0.62430657  0.61247454  1
  O  O175  1  0.62783041  0.11591516  0.12262912  1
  O  O176  1  0.61401793  0.11715613  0.61931542  1
  O  O177  1  0.61457028  0.62591503  0.11880164  1
  O  O178  1  0.61323817  0.63261332  0.61655940  1
  O  O179  1  0.38256963  0.37995758  0.37087240  1
  O  O180  1  0.38307878  0.37768924  0.87826873  1
  O  O181  1  0.38805600  0.87451004  0.37313042  1
  O  O182  1  0.37412060  0.87905596  0.88752925  1
  O  O183  1  0.87865215  0.37685376  0.38371178  1
  O  O184  1  0.88214019  0.38667445  0.88088094  1
  O  O185  1  0.88124587  0.87779536  0.37751101  1
  O  O186  1  0.88813690  0.87550328  0.87310161  1
  O  O187  1  0.24886264  0.00177946  0.36050511  1
  O  O188  1  0.24098477  -0.00473744  0.85508690  1
  O  O189  1  0.26151440  0.48973440  0.36438965  1
  O  O190  1  0.25008311  0.51654790  0.88718578  1
  O  O191  1  0.75471860  0.00510499  0.36950236  1
  O  O192  1  0.75214302  0.00476405  0.86332323  1
  O  O193  1  0.75592410  0.50897134  0.37009752  1
  O  O194  1  0.75770194  0.50182607  0.86968052  1
  O  O195  1  0.24682112  0.49658041  0.13604676  1
  O  O196  1  0.26050538  0.48546284  0.61710420  1
  O  O197  1  0.23347232  0.99989261  0.13620513  1
  O  O198  1  0.24244975  0.99288114  0.63290784  1
  O  O199  1  0.74966010  0.49195251  0.13060839  1
  O  O200  1  0.75585284  0.48705374  0.63481691  1
  O  O201  1  0.74136139  0.99552986  0.13202804  1
  O  O202  1  0.74250938  0.99278767  0.63052301  1
  O  O203  1  0.00420263  0.36995308  0.25380768  1
  O  O204  1  0.00973882  0.37044051  0.75401626  1
  O  O205  1  0.00972535  0.88044141  0.25791110  1
  O  O206  1  -0.00350084  0.86059267  0.75343226  1
  O  O207  1  0.51035878  0.36483276  0.24360113  1
  O  O208  1  0.51530649  0.37446752  0.75751816  1
  O  O209  1  0.50342529  0.86790757  0.25502959  1
  O  O210  1  0.50216033  0.86125142  0.74938353  1
  O  O211  1  0.49269522  0.13668983  0.24336900  1
  O  O212  1  0.50524072  0.12803278  0.73915081  1
  O  O213  1  0.49705682  0.63194539  0.24516845  1
  O  O214  1  0.50442052  0.63390366  0.73584986  1
  O  O215  1  0.99136774  0.13340136  0.24755520  1
  O  O216  1  0.99457717  0.13002665  0.74240904  1
  O  O217  1  0.99254541  0.62431249  0.25864591  1
  O  O218  1  0.99820407  0.63351194  0.73675614  1
  O  O219  1  0.35945590  0.25526219  0.01327277  1
  O  O220  1  0.36509011  0.24411080  0.50585533  1
  O  O221  1  0.36308256  0.75962972  -0.00417134  1
  O  O222  1  0.37369130  0.75186860  0.51033999  1
  O  O223  1  0.86642066  0.26784498  -0.00508562  1
  O  O224  1  0.86857796  0.25854220  0.50333431  1
  O  O225  1  0.86760179  0.75037771  0.00727188  1
  O  O226  1  0.88132802  0.75730790  0.51225748  1
  O  O227  1  0.13136201  0.24114436  0.50067183  1
  O  O228  1  0.13355539  0.26321500  0.99309191  1
  O  O229  1  0.12585706  0.74174113  0.49137195  1
  O  O230  1  0.14437395  0.75526745  0.99538474  1
  O  O231  1  0.63054703  0.23304801  0.50591060  1
  O  O232  1  0.64080301  0.25329624  1.00440967  1
  O  O233  1  0.62272198  0.74350674  0.48594646  1
  O  O234  1  0.63046516  0.74488796  0.99437345  1
  O  O235  1  0.48905400  0.25311606  0.13010763  1
  O  O236  1  0.48473777  0.24004118  0.62462988  1
  O  O237  1  0.50532223  0.74260167  0.13907284  1
  O  O238  1  0.49332227  0.74666597  0.62991427  1
  O  O239  1  1.00341092  0.24347555  0.13809818  1
  O  O240  1  0.99494202  0.24519987  0.62950333  1
  O  O241  1  0.99487517  0.75395244  0.12322366  1
  O  O242  1  0.99445604  0.74586072  0.63134816  1
  O  O243  1  0.00071312  0.26029792  0.36464919  1
  O  O244  1  0.00503450  0.25981189  0.87063168  1
  O  O245  1  0.00723159  0.76279611  0.37842858  1
  O  O246  1  0.00065509  0.75356419  0.85872253  1
  O  O247  1  0.50955824  0.24536961  0.36701568  1
  O  O248  1  0.49752519  0.26218131  0.88563520  1
  O  O249  1  0.50736414  0.75869820  0.36582612  1
  O  O250  1  0.50603233  0.74770836  0.86513661  1
  O  O251  1  0.24140566  0.13307167  0.50040536  1
  O  O252  1  0.23118658  0.14500735  1.02034822  1
  O  O253  1  0.23504805  0.62848695  0.50614714  1
  O  O254  1  0.25620317  0.63724211  0.99700964  1
  O  O255  1  0.74289584  0.12783732  0.49589436  1
  O  O256  1  0.75168186  0.13776374  0.99160521  1
  O  O257  1  0.74744545  0.62638784  0.49014146  1
  O  O258  1  0.74391563  0.63518045  1.00071718  1
  O  O259  1  0.24713890  0.37543018  0.01434810  1
  O  O260  1  0.24073911  0.36102035  0.51307602  1
  O  O261  1  0.25956401  0.86633910  0.00150786  1
  O  O262  1  0.25125148  0.87000221  0.51353318  1
  O  O263  1  0.75663374  0.37439933  0.00490551  1
  O  O264  1  0.75318715  0.36920117  0.51034701  1
  O  O265  1  0.74856241  0.86022260  0.00681365  1
  O  O266  1  0.75591364  0.87974734  0.51123603  1
  O  O267  1  0.13364714  0.49358693  0.25169644  1
  O  O268  1  0.11986382  0.48679581  0.75350544  1
  O  O269  1  0.12839332  0.99267880  0.24935000  1
  O  O270  1  0.13068764  1.00348963  0.73487128  1
  O  O271  1  0.63287781  0.49378699  0.24657495  1
  O  O272  1  0.63671054  0.49396186  0.75747338  1
  O  O273  1  0.63165190  0.99465584  0.24399654  1
  O  O274  1  0.63592695  0.99774960  0.73829873  1
  O  O275  1  0.36562471  0.00805821  0.24636261  1
  O  O276  1  0.35990252  0.00110631  0.75069916  1
  O  O277  1  0.37159608  0.50505382  0.25991930  1
  O  O278  1  0.38071512  0.50527057  0.75214515  1
  O  O279  1  0.86930212  0.00700944  0.25563670  1
  O  O280  1  0.86354479  0.00661667  0.74444539  1
  O  O281  1  0.87055488  0.51248414  0.25588199  1
  O  O282  1  0.86564474  0.49906529  0.75980943  1
  O  O283  1  0.11676439  0.37456542  0.36629815  1
  O  O284  1  0.12217579  0.37068438  0.86465943  1
  O  O285  1  0.11792560  0.86934408  0.36884355  1
  O  O286  1  0.11065170  0.86968527  0.87049905  1
  O  O287  1  0.64581774  0.37317455  0.35105909  1
  O  O288  1  0.61921020  0.37530112  0.86478513  1
  O  O289  1  0.61734561  0.87044576  0.37072749  1
  O  O290  1  0.62390513  0.86158401  0.87414855  1
  O  O291  1  0.37342591  0.13441738  0.13077165  1
  O  O292  1  0.38566059  0.13208862  0.62608353  1
  O  O293  1  0.38748528  0.61973613  0.13870325  1
  O  O294  1  0.38811861  0.63027656  0.62163007  1
  O  O295  1  0.87972672  0.12025487  0.14007465  1
  O  O296  1  0.87841497  0.13065921  0.62892019  1
  O  O297  1  0.87215655  0.63696521  0.13428711  1
  O  O298  1  0.88514379  0.63130050  0.62085226  1
  O  O299  1  0.25151361  0.26157855  0.12170301  1
  O  O300  1  0.26301916  0.25202268  0.62109902  1
  O  O301  1  0.25093873  0.75388114  0.11114874  1
  O  O302  1  0.25812107  0.75351953  0.62577671  1
  O  O303  1  0.75290177  0.26456580  0.11755049  1
  O  O304  1  0.75556392  0.25765955  0.62116001  1
  O  O305  1  0.75679459  0.75266352  0.11958177  1
  O  O306  1  0.75829771  0.75898347  0.62873455  1
  O  O307  1  0.24766558  0.24789722  0.38478374  1
  O  O308  1  0.24217180  0.25457476  0.89273790  1
  O  O309  1  0.23441801  0.75533256  0.37301954  1
  O  O310  1  0.24898919  0.73819851  0.88198534  1
  O  O311  1  0.73458145  0.24741884  0.38729624  1
  O  O312  1  0.75629153  0.24264081  0.88266122  1
  O  O313  1  0.74077617  0.74241005  0.36954110  1
  O  O314  1  0.74480883  0.74884396  0.88137664  1
  O  O315  1  -0.01231149  0.13513439  0.01507157  1
  O  O316  1  0.00377705  0.12052752  0.50430860  1
  O  O317  1  -0.00488090  0.61464623  -0.00235728  1
  O  O318  1  0.00817276  0.62530465  0.51225563  1
  O  O319  1  0.50634496  0.12317959  0.00485879  1
  O  O320  1  0.50751980  0.12647785  0.50675523  1
  O  O321  1  0.50071628  0.62224069  0.00704035  1
  O  O322  1  0.50874191  0.62943611  0.51293014  1
  O  O323  1  0.56765795  0.36348088  0.47554367  1
  O  O324  1  0.50012272  0.38426910  0.99343141  1
  O  O325  1  0.49993085  0.87107056  0.48320309  1
  O  O326  1  0.48839914  0.86972379  0.99755040  1
  O  O327  1  0.99081839  0.36704863  0.49255195  1
  O  O328  1  0.99351834  0.38234502  0.99616160  1
  O  O329  1  0.99497983  0.88143496  0.49222978  1
  O  O330  1  0.99867586  0.86647039  0.97929298  1
  O  O331  1  0.49366238  0.49489921  0.36967162  1
  O  O332  1  0.49996545  0.49351208  0.88438955  1
  O  O333  1  0.49978899  0.98452532  0.36482720  1
  O  O334  1  0.49709342  0.99438259  0.87415661  1
  O  O335  1  0.98997325  0.48311210  0.37121672  1
  O  O336  1  0.99418689  0.49776238  0.88343596  1
  O  O337  1  0.99396786  0.99088136  0.37946003  1
  O  O338  1  0.99744542  0.98462786  0.86211873  1
  O  O339  1  0.01145919  0.00885401  0.12741600  1
  O  O340  1  0.00595340  0.00335939  0.62016544  1
  O  O341  1  0.00004188  0.50367111  0.11268919  1
  O  O342  1  -0.00629701  0.51285482  0.62745941  1
  O  O343  1  0.51523397  0.00012039  0.12737297  1
  O  O344  1  0.50557389  0.01051581  0.63224551  1
  O  O345  1  0.50323128  0.50820618  0.11791060  1
  O  O346  1  0.50178459  0.51155194  0.62483781  1
  O  O347  1  0.24196091  0.37910474  0.24274528  1
  O  O348  1  0.23840764  0.37224726  0.74407312  1
  O  O349  1  0.23757625  0.88076192  0.24629036  1
  O  O350  1  0.25267012  0.87767308  0.73760248  1
  O  O351  1  0.75084362  0.37912668  0.24006590  1
  O  O352  1  0.74216592  0.37930389  0.74661307  1
  O  O353  1  0.74431934  0.88024528  0.24463653  1
  O  O354  1  0.74940806  0.88158492  0.73908172  1
  O  O355  1  0.25474597  0.11935994  0.24948690  1
  O  O356  1  0.24586356  0.11240817  0.74484341  1
  O  O357  1  0.26430925  0.61499041  0.25412394  1
  O  O358  1  0.24823735  0.62602197  0.76098381  1
  O  O359  1  0.75528315  0.12438856  0.25601682  1
  O  O360  1  0.75482594  0.11915687  0.75310756  1
  O  O361  1  0.75658803  0.62215657  0.25964733  1
  O  O362  1  0.75308880  0.61563701  0.74912767  1
  O  O363  1  0.37379072  0.12596884  0.35683581  1
  O  O364  1  0.35369730  0.10997317  0.91840135  1
  O  O365  1  0.38530109  0.61785521  0.36860042  1
  O  O366  1  0.36086012  0.62217945  0.87016918  1
  O  O367  1  0.86735183  0.12106247  0.36759395  1
  O  O368  1  0.86681025  0.12193006  0.86516423  1
  O  O369  1  0.86964857  0.62463074  0.37240514  1
  O  O370  1  0.87291364  0.61427811  0.87274775  1
  O  O371  1  0.12847771  0.37979257  0.13771799  1
  O  O372  1  0.13475924  0.37118788  0.63955379  1
  O  O373  1  0.12160038  0.88774393  0.13237165  1
  O  O374  1  0.13091762  0.88348584  0.61981751  1
  O  O375  1  0.63488689  0.37841941  0.13219625  1
  O  O376  1  0.63331703  0.37237240  0.64245847  1
  O  O377  1  0.63166172  0.87992324  0.13078126  1
  O  O378  1  0.63047722  0.88023283  0.62356055  1
  O  O379  1  0.11718162  0.25831596  0.25288107  1
  O  O380  1  0.12031434  0.25590376  0.75793579  1
  O  O381  1  0.11882024  0.75369520  0.25239179  1
  O  O382  1  0.11113685  0.74640960  0.74537909  1
  O  O383  1  0.61559898  0.25740452  0.24560275  1
  O  O384  1  0.63126804  0.25989493  0.75203122  1
  O  O385  1  0.61834990  0.75579404  0.25960038  1
  O  O386  1  0.61871392  0.75049698  0.75763163  1
  O  O387  1  0.37889123  0.24632138  0.24031287  1
  O  O388  1  0.36916031  0.24629611  0.74322278  1
  O  O389  1  0.38358396  0.74015526  0.25634122  1
  O  O390  1  0.38243807  0.74386376  0.73934931  1
  O  O391  1  0.88138702  0.24178496  0.25688051  1
  O  O392  1  0.88236822  0.24664440  0.74513330  1
  O  O393  1  0.87594530  0.73870832  0.24442613  1
  O  O394  1  0.88303253  0.74600148  0.73613821  1
  O  O395  1  0.37764360  0.49738484  0.48180256  1
  O  O396  1  0.38657801  0.49870236  1.00143935  1
  O  O397  1  0.37048571  0.99998414  0.49194024  1
  O  O398  1  0.38049863  0.98067808  1.00879630  1
  O  O399  1  0.86894008  0.48567076  0.49568079  1
  O  O400  1  0.88248120  0.49437114  0.99422206  1
  O  O401  1  0.88070406  0.99378694  0.49376756  1
  O  O402  1  0.86587990  0.98979353  1.00004364  1
  O  O403  1  0.12968593  -0.00526778  0.01167352  1
  O  O404  1  0.12105444  0.00717794  0.50748033  1
  O  O405  1  0.10898670  0.50064774  0.00585121  1
  O  O406  1  0.12730137  0.51252469  0.48972839  1
  O  O407  1  0.62664534  0.00026521  0.00804561  1
  O  O408  1  0.62787638  0.00507033  0.51365761  1
  O  O409  1  0.61563767  0.50965414  0.00045191  1
  O  O410  1  0.63144689  0.51879905  0.49949019  1
  O  O411  1  0.36464113  0.37080198  0.12697660  1
  O  O412  1  0.37095287  0.35887896  0.63063649  1
  O  O413  1  0.37292589  0.87012287  0.11378890  1
  O  O414  1  0.36873831  0.86570259  0.62408631  1
  O  O415  1  0.86943581  0.38232580  0.11596590  1
  O  O416  1  0.86896633  0.36956559  0.62018929  1
  O  O417  1  0.86979936  0.86182926  0.12862818  1
  O  O418  1  0.86754313  0.86850754  0.61977904  1
  O  O419  1  0.12287548  0.12562405  0.38837623  1
  O  O420  1  0.11510893  0.14037472  0.87525806  1
  O  O421  1  0.11582066  0.63336970  0.38945147  1
  O  O422  1  0.13755778  0.62901528  0.87337162  1
  O  O423  1  0.62803584  0.11800138  0.38506110  1
  O  O424  1  0.64070385  0.12161253  0.87404680  1
  O  O425  1  0.63212646  0.63304108  0.37961502  1
  O  O426  1  0.62529989  0.63609599  0.88235134  1
