# generated using pymatgen
data_V85Zn86O256
_symmetry_space_group_name_H-M   'P 1'
_cell_length_a   16.92196673
_cell_length_b   16.93120674
_cell_length_c   16.93370599
_cell_angle_alpha   89.96611986
_cell_angle_beta   90.02896760
_cell_angle_gamma   89.94884585
_symmetry_Int_Tables_number   1
_chemical_formula_structural   V85Zn86O256
_chemical_formula_sum   'V85 Zn86 O256'
_cell_volume   4851.66113484
_cell_formula_units_Z   1
loop_
 _symmetry_equiv_pos_site_id
 _symmetry_equiv_pos_as_xyz
  1  'x, y, z'
loop_
 _atom_site_type_symbol
 _atom_site_label
 _atom_site_symmetry_multiplicity
 _atom_site_fract_x
 _atom_site_fract_y
 _atom_site_fract_z
 _atom_site_occupancy
  V  V0  1  0.14024923  0.12788811  -0.00059797  1
  V  V1  1  0.49726752  0.62568117  0.62897666  1
  V  V2  1  0.74934516  0.37566094  0.62650793  1
  V  V3  1  0.24804237  0.37342075  0.61720417  1
  V  V4  1  0.24668796  0.38065868  0.12442533  1
  V  V5  1  0.01757663  0.75340793  0.74965818  1
  V  V6  1  0.86592497  0.86737202  0.50409252  1
  V  V7  1  -0.00567202  0.62923830  0.62471822  1
  V  V8  1  -0.00535683  0.37797472  0.37330975  1
  V  V9  1  0.87480782  0.24826741  0.12218485  1
  V  V10  1  0.02088650  -0.02088356  0.51296814  1
  V  V11  1  0.37133714  0.38283803  0.00056124  1
  V  V12  1  0.36270228  0.00784610  0.87613301  1
  V  V13  1  0.38039699  0.62625854  0.24986405  1
  V  V14  1  0.50849285  0.75426446  0.24975588  1
  V  V15  1  0.87358653  0.12283351  0.74734546  1
  V  V16  1  0.49460198  0.12517800  0.62732635  1
  V  V17  1  0.37020119  0.75313973  0.63211493  1
  V  V18  1  0.00298464  0.12092663  0.62304920  1
  V  V19  1  0.25136543  0.75088382  0.50559593  1
  V  V20  1  0.87288479  0.37969410  0.49481750  1
  V  V21  1  0.49023220  0.25161092  0.74838724  1
  V  V22  1  0.87568481  0.25077423  0.62364568  1
  V  V23  1  0.00277894  0.25316181  0.75088416  1
  V  V24  1  0.87030746  -0.00306174  0.37822293  1
  V  V25  1  0.87045688  0.60898825  0.25043102  1
  V  V26  1  0.63329557  0.36996883  0.25270575  1
  V  V27  1  0.75605983  0.25352501  -0.00165941  1
  V  V28  1  0.24921406  0.00288428  0.26375380  1
  V  V29  1  0.50088741  0.88070316  0.37550660  1
  V  V30  1  -0.00383437  0.50205903  0.49639595  1
  V  V31  1  0.12394598  0.12884469  0.49746095  1
  V  V32  1  0.49890603  0.00347844  0.00077580  1
  V  V33  1  0.62350498  0.37753146  0.75143411  1
  V  V34  1  0.87463830  -0.00498704  0.86710688  1
  V  V35  1  0.37914227  0.50098207  0.37411489  1
  V  V36  1  0.12680693  0.24881792  0.37054035  1
  V  V37  1  0.63158430  0.00192033  0.64032859  1
  V  V38  1  0.74962459  0.11825185  0.86832206  1
  V  V39  1  0.75301061  0.74458157  -0.00491804  1
  V  V40  1  0.49741372  0.38257364  0.87789984  1
  V  V41  1  -0.01260483  0.37215395  0.87577913  1
  V  V42  1  0.50054886  0.49918807  0.50249057  1
  V  V43  1  0.50336032  0.62433982  0.12406947  1
  V  V44  1  0.36051909  0.13248252  0.75285243  1
  V  V45  1  0.75598487  0.37809841  0.12315586  1
  V  V46  1  0.00122651  0.12288158  0.12134500  1
  V  V47  1  0.62947190  0.49951864  0.12677950  1
  V  V48  1  0.36964622  0.24958827  0.12036565  1
  V  V49  1  0.75277510  0.50300406  0.75882377  1
  V  V50  1  0.12788492  -0.00310670  0.12545319  1
  V  V51  1  -0.00460996  0.87255135  0.37305350  1
  V  V52  1  0.75082586  0.88022687  0.12912988  1
  V  V53  1  0.74318734  0.12829709  0.37511601  1
  V  V54  1  0.50079487  0.24869939  0.25099670  1
  V  V55  1  0.12431096  0.38494302  0.24692077  1
  V  V56  1  0.13514483  0.24504079  0.87872677  1
  V  V57  1  0.62366927  0.75695501  0.87368954  1
  V  V58  1  0.74736229  0.87166686  0.64035581  1
  V  V59  1  0.12679014  0.75006959  0.37487609  1
  V  V60  1  0.37412846  0.87583228  -0.00141019  1
  V  V61  1  0.37656071  0.37051719  0.50160717  1
  V  V62  1  0.62794644  0.62412369  -0.00635726  1
  V  V63  1  0.37545252  0.87712481  0.50405227  1
  V  V64  1  0.12659384  0.49747826  0.62523842  1
  V  V65  1  0.36403379  0.60698030  0.76102215  1
  V  V66  1  -0.00249762  0.74772611  0.24775044  1
  V  V67  1  0.49990886  0.76004006  0.75127806  1
  V  V68  1  0.87191630  0.11551393  0.24952116  1
  V  V69  1  0.62444147  0.25051269  0.87448906  1
  V  V70  1  0.87742027  0.87307615  -0.00371228  1
  V  V71  1  0.37498678  0.75284996  0.12366100  1
  V  V72  1  0.15077635  0.39042351  0.77390515  1
  V  V73  1  0.62552646  0.62890599  0.50068780  1
  V  V74  1  -0.00244256  0.49276437  0.00481584  1
  V  V75  1  0.62485462  0.12594263  0.00206443  1
  V  V76  1  0.25403633  0.62648102  0.37489532  1
  V  V77  1  0.25522862  0.24314029  0.49501100  1
  V  V78  1  0.00035669  0.24884072  0.24914459  1
  V  V79  1  0.01580945  0.87134803  0.87057698  1
  V  V80  1  0.12982815  0.62220794  -0.01994006  1
  V  V81  1  0.01287024  0.62161918  0.12430352  1
  V  V82  1  0.50757134  0.36907590  0.37674143  1
  V  V83  1  0.87045794  0.63534900  0.75621681  1
  V  V84  1  0.24072667  -0.01364248  0.73621583  1
  Zn  Zn85  1  0.87682724  0.74653852  0.12351826  1
  Zn  Zn86  1  0.00412273  -0.00176539  -0.00488710  1
  Zn  Zn87  1  0.49939326  0.12695110  0.12784715  1
  Zn  Zn88  1  0.50237632  0.88259390  0.87036300  1
  Zn  Zn89  1  0.24946734  0.87312174  0.12689174  1
  Zn  Zn90  1  0.24800870  0.50412521  0.24931082  1
  Zn  Zn91  1  0.76160079  0.61898764  0.37911731  1
  Zn  Zn92  1  0.62530456  0.50232240  0.62834042  1
  Zn  Zn93  1  0.12528946  0.62404619  0.50190036  1
  Zn  Zn94  1  0.87100487  0.50197340  0.88092802  1
  Zn  Zn95  1  0.74903380  0.74896260  0.50345927  1
  Zn  Zn96  1  0.74442935  0.25354675  0.49286435  1
  Zn  Zn97  1  0.36603264  0.13122050  0.25888640  1
  Zn  Zn98  1  0.50242565  0.00138706  0.50470839  1
  Zn  Zn99  1  0.62266466  0.12800218  0.50158485  1
  Zn  Zn100  1  0.63548442  0.88518029  0.25905634  1
  Zn  Zn101  1  0.62789380  0.00163509  0.12807437  1
  Zn  Zn102  1  0.37076305  0.00861730  0.38331151  1
  Zn  Zn103  1  0.23871802  0.74945901  -0.00842884  1
  Zn  Zn104  1  0.12579304  0.87303658  0.24798058  1
  Zn  Zn105  1  0.49521020  0.50644724  -0.00434317  1
  Zn  Zn106  1  0.62914075  0.75461837  0.37984698  1
  Zn  Zn107  1  0.18829630  0.18775755  0.18788029  1
  Zn  Zn108  1  0.18488278  0.19435311  0.68375391  1
  Zn  Zn109  1  0.19075450  0.68865922  0.18592439  1
  Zn  Zn110  1  0.19000533  0.67967273  0.68966727  1
  Zn  Zn111  1  0.68940973  0.18583762  0.18987829  1
  Zn  Zn112  1  0.68397766  0.19092894  0.68593987  1
  Zn  Zn113  1  0.69082952  0.69271336  0.18386125  1
  Zn  Zn114  1  0.68575250  0.68978702  0.68857795  1
  Zn  Zn115  1  0.31308156  0.31391136  0.31277732  1
  Zn  Zn116  1  0.30813641  0.32874314  0.81746540  1
  Zn  Zn117  1  0.31440150  0.81888942  0.31245919  1
  Zn  Zn118  1  0.30682897  0.81502806  0.81427664  1
  Zn  Zn119  1  0.81480295  0.30945830  0.30952904  1
  Zn  Zn120  1  0.81212966  0.30990911  0.81075432  1
  Zn  Zn121  1  0.81043198  0.80278507  0.31542943  1
  Zn  Zn122  1  0.81325927  0.80819477  0.81448732  1
  Zn  Zn123  1  0.18590654  0.43912913  0.43430608  1
  Zn  Zn124  1  0.18156798  0.43417105  0.94458122  1
  Zn  Zn125  1  0.18095494  0.92995509  0.45468578  1
  Zn  Zn126  1  0.19139176  0.94161079  0.93947042  1
  Zn  Zn127  1  0.69023257  0.44314665  0.43799470  1
  Zn  Zn128  1  0.68653418  0.43732825  0.94000921  1
  Zn  Zn129  1  0.68368821  0.94481118  0.44482858  1
  Zn  Zn130  1  0.68869349  0.93703430  0.93909330  1
  Zn  Zn131  1  0.31301938  0.06291487  0.07029588  1
  Zn  Zn132  1  0.31207987  0.06578869  0.56608382  1
  Zn  Zn133  1  0.31046763  0.56205964  0.06398443  1
  Zn  Zn134  1  0.31370100  0.56279677  0.56544381  1
  Zn  Zn135  1  0.81523028  0.06041011  0.05458231  1
  Zn  Zn136  1  0.81364659  0.05590410  0.55955875  1
  Zn  Zn137  1  0.81694252  0.56441450  0.06707657  1
  Zn  Zn138  1  0.81213912  0.56182559  0.56846041  1
  Zn  Zn139  1  0.44119892  0.43756304  0.18821501  1
  Zn  Zn140  1  0.43590576  0.43488103  0.68453415  1
  Zn  Zn141  1  0.43747826  0.94091526  0.18859305  1
  Zn  Zn142  1  0.43110936  0.94286988  0.68828923  1
  Zn  Zn143  1  0.93836785  0.43604426  0.18213696  1
  Zn  Zn144  1  0.93813618  0.43995740  0.68932907  1
  Zn  Zn145  1  0.93799829  0.93566700  0.18566871  1
  Zn  Zn146  1  0.93516234  0.93264035  0.68747946  1
  Zn  Zn147  1  0.06079383  0.05855622  0.31535328  1
  Zn  Zn148  1  0.06418037  0.06173824  0.81101139  1
  Zn  Zn149  1  0.05988669  0.56586137  0.31572656  1
  Zn  Zn150  1  0.05591820  0.55926194  0.81169722  1
  Zn  Zn151  1  0.56164217  0.05860522  0.30878574  1
  Zn  Zn152  1  0.55685466  0.06523347  0.81400347  1
  Zn  Zn153  1  0.59832719  0.54506233  0.32854563  1
  Zn  Zn154  1  0.55987914  0.56719757  0.81170553  1
  Zn  Zn155  1  0.43788196  0.18436814  0.43586041  1
  Zn  Zn156  1  0.43466340  0.19171767  0.93599865  1
  Zn  Zn157  1  0.44268622  0.69134009  0.43869509  1
  Zn  Zn158  1  0.40437286  0.70373529  0.91613853  1
  Zn  Zn159  1  0.93550199  0.18787225  0.43805573  1
  Zn  Zn160  1  0.93872540  0.18400728  0.93663855  1
  Zn  Zn161  1  0.93370231  0.68733439  0.43503859  1
  Zn  Zn162  1  0.94433141  0.68673824  0.93460011  1
  Zn  Zn163  1  0.06440130  0.31236463  0.06156282  1
  Zn  Zn164  1  0.06218263  0.31324954  0.56214426  1
  Zn  Zn165  1  0.06382835  0.80787365  0.05851246  1
  Zn  Zn166  1  0.06202082  0.81057920  0.56263417  1
  Zn  Zn167  1  0.56194906  0.31261090  0.06341701  1
  Zn  Zn168  1  0.56544828  0.30640086  0.56418382  1
  Zn  Zn169  1  0.56282284  0.81391783  0.05959446  1
  Zn  Zn170  1  0.56396712  0.81679798  0.56763150  1
  O  O171  1  0.11839122  0.12136112  0.11881073  1
  O  O172  1  0.11137479  0.13269226  0.61367560  1
  O  O173  1  0.11514660  0.62306612  0.12779056  1
  O  O174  1  0.11439769  0.61509095  0.62529717  1
  O  O175  1  0.62668737  0.12607622  0.11136730  1
  O  O176  1  0.61508536  0.11684315  0.63203581  1
  O  O177  1  0.62235687  0.61793804  0.12173355  1
  O  O178  1  0.61489172  0.62524512  0.61941134  1
  O  O179  1  0.38252991  0.38177952  0.38326060  1
  O  O180  1  0.38545328  0.36866108  0.88956852  1
  O  O181  1  0.38265777  0.87850325  0.38600893  1
  O  O182  1  0.38069123  0.89020929  0.88391983  1
  O  O183  1  0.87845408  0.37261216  0.38380590  1
  O  O184  1  0.88317761  0.37462882  0.87410107  1
  O  O185  1  0.87393293  0.88018202  0.37967852  1
  O  O186  1  0.88067680  0.87960346  0.87856019  1
  O  O187  1  0.24586049  -0.00947405  0.36498083  1
  O  O188  1  0.25964977  0.00163321  0.86887763  1
  O  O189  1  0.25816812  0.50935979  0.37442689  1
  O  O190  1  0.22748768  0.42840502  0.84055570  1
  O  O191  1  0.76433018  0.00816323  0.38019354  1
  O  O192  1  0.75845440  0.00812337  0.87928824  1
  O  O193  1  0.70935309  0.52120661  0.36184617  1
  O  O194  1  0.75146989  0.49491724  0.86341711  1
  O  O195  1  0.25562773  0.48584213  0.13264918  1
  O  O196  1  0.23526675  0.49203595  0.61494691  1
  O  O197  1  0.23769466  0.99902848  0.13259069  1
  O  O198  1  0.25200665  0.99909264  0.63694083  1
  O  O199  1  0.74408582  0.48899306  0.11799639  1
  O  O200  1  0.75074162  0.48872812  0.63721555  1
  O  O201  1  0.75396646  0.98359757  0.11538191  1
  O  O202  1  0.73822895  0.99714531  0.62739472  1
  O  O203  1  0.00519995  0.37007108  0.25185901  1
  O  O204  1  0.00312129  0.36987087  0.75922831  1
  O  O205  1  0.00193945  0.86557877  0.25525570  1
  O  O206  1  -0.00098353  0.86108694  0.75288202  1
  O  O207  1  0.50745329  0.36668098  0.25745381  1
  O  O208  1  0.50145957  0.36996525  0.75621703  1
  O  O209  1  0.49917028  0.86959005  0.25773333  1
  O  O210  1  0.49439170  0.86369353  0.74940360  1
  O  O211  1  0.50149683  0.14040329  0.25021693  1
  O  O212  1  0.48935913  0.13476647  0.74797964  1
  O  O213  1  0.49802178  0.63611115  0.23935263  1
  O  O214  1  0.49391173  0.63041067  0.73921634  1
  O  O215  1  0.99559711  0.12726365  0.23872269  1
  O  O216  1  0.99628423  0.13053509  0.74101901  1
  O  O217  1  0.99528002  0.62879803  0.24335347  1
  O  O218  1  0.99341400  0.63496587  0.74485485  1
  O  O219  1  0.38002065  0.25869966  0.01586647  1
  O  O220  1  0.36621308  0.25884714  0.49408927  1
  O  O221  1  0.39383888  0.76244604  0.01666653  1
  O  O222  1  0.37036892  0.75546331  0.50904796  1
  O  O223  1  0.86371499  0.24114470  0.00532642  1
  O  O224  1  0.87261461  0.26262891  0.50684175  1
  O  O225  1  0.87033719  0.75386202  -0.00305044  1
  O  O226  1  0.87120065  0.76238602  0.49778707  1
  O  O227  1  0.12669275  0.24472654  0.48949437  1
  O  O228  1  0.11912989  0.24185600  0.98816144  1
  O  O229  1  0.13413402  0.74574845  0.49428107  1
  O  O230  1  0.12346130  0.72902539  0.99944191  1
  O  O231  1  0.63299564  0.24094708  0.50680131  1
  O  O232  1  0.63244976  0.24338109  0.99480674  1
  O  O233  1  0.62539771  0.74310539  0.50436525  1
  O  O234  1  0.63190391  0.74291009  0.99528974  1
  O  O235  1  0.48892519  0.25205610  0.13285960  1
  O  O236  1  0.50195888  0.24402165  0.64149235  1
  O  O237  1  0.49929697  0.74656276  0.13344507  1
  O  O238  1  0.49375522  0.74411077  0.63247965  1
  O  O239  1  0.99486326  0.24236210  0.12812053  1
  O  O240  1  0.99494297  0.24490913  0.63075681  1
  O  O241  1  1.00051611  0.74130605  0.13210894  1
  O  O242  1  1.00536887  0.74286404  0.63541447  1
  O  O243  1  0.00254193  0.25844474  0.36826799  1
  O  O244  1  -0.00043263  0.25288064  0.86715831  1
  O  O245  1  0.00763717  0.75156017  0.36849543  1
  O  O246  1  -0.00180965  0.75698049  0.85867126  1
  O  O247  1  0.49620468  0.26256720  0.36834490  1
  O  O248  1  0.50594757  0.25878551  0.86791944  1
  O  O249  1  0.49805773  0.76348277  0.36523337  1
  O  O250  1  0.50333845  0.75328074  0.86707796  1
  O  O251  1  0.24035897  0.13332348  0.50365961  1
  O  O252  1  0.23964367  0.12572469  1.00652094  1
  O  O253  1  0.25262022  0.63491185  0.49269419  1
  O  O254  1  0.23154982  0.61609720  1.00222467  1
  O  O255  1  0.75764777  0.12591776  0.48431852  1
  O  O256  1  0.74441859  0.13081130  0.98971572  1
  O  O257  1  0.73910063  0.62430843  0.50522964  1
  O  O258  1  0.74217819  0.63306877  1.00707540  1
  O  O259  1  0.25710558  0.37671922  0.01146597  1
  O  O260  1  0.25660155  0.37018307  0.50073705  1
  O  O261  1  0.26397718  0.87569290  0.00362780  1
  O  O262  1  0.26150253  0.85920231  0.49604989  1
  O  O263  1  0.74590949  0.36300044  0.00747510  1
  O  O264  1  0.75581911  0.37809833  0.50730211  1
  O  O265  1  0.76285858  0.86835103  0.00270043  1
  O  O266  1  0.75381947  0.87645326  0.50835119  1
  O  O267  1  0.12365626  0.48800343  0.25716888  1
  O  O268  1  0.11552125  0.48901004  0.74017911  1
  O  O269  1  0.13119774  0.99699877  0.24490024  1
  O  O270  1  0.14262261  1.00517360  0.75328801  1
  O  O271  1  0.61696424  0.48438419  0.23238965  1
  O  O272  1  0.63315204  0.49701603  0.74969735  1
  O  O273  1  0.62213627  0.99548415  0.24022887  1
  O  O274  1  0.62079081  1.00362390  0.73997236  1
  O  O275  1  0.35834818  0.00121369  0.25009022  1
  O  O276  1  0.36485282  0.01019254  0.75844237  1
  O  O277  1  0.37894992  0.50732730  0.25855385  1
  O  O278  1  0.37096125  0.50864717  0.73968037  1
  O  O279  1  0.88359109  0.00889196  0.25867365  1
  O  O280  1  0.87928566  0.00620321  0.76001626  1
  O  O281  1  0.87788070  0.50988382  0.24617746  1
  O  O282  1  0.86915106  0.50976338  0.75340796  1
  O  O283  1  0.11641400  0.36769442  0.36816449  1
  O  O284  1  0.10580548  0.35832639  0.87912900  1
  O  O285  1  0.11782775  0.86105550  0.37656687  1
  O  O286  1  0.11445138  0.87651638  0.88489661  1
  O  O287  1  0.61949232  0.37548358  0.36492080  1
  O  O288  1  0.61925499  0.36901864  0.87111639  1
  O  O289  1  0.61711285  0.87488162  0.37750708  1
  O  O290  1  0.62039185  0.86233685  0.88312012  1
  O  O291  1  0.37542154  0.13921896  0.13180096  1
  O  O292  1  0.38631818  0.12234891  0.63728880  1
  O  O293  1  0.38370674  0.63216488  0.12762342  1
  O  O294  1  0.38012577  0.63410076  0.63115924  1
  O  O295  1  0.88059975  0.12412908  0.13034783  1
  O  O296  1  0.88143524  0.12981188  0.62687139  1
  O  O297  1  0.88980788  0.62633967  0.13413265  1
  O  O298  1  0.88858697  0.61928331  0.63629530  1
  O  O299  1  0.26395534  0.26025771  0.13398377  1
  O  O300  1  0.23979782  0.25836376  0.60244444  1
  O  O301  1  0.26129045  0.75064246  0.11683503  1
  O  O302  1  0.25719011  0.74351943  0.61741397  1
  O  O303  1  0.75506323  0.25359804  0.11638107  1
  O  O304  1  0.75734170  0.26324745  0.62857880  1
  O  O305  1  0.75496089  0.75990086  0.11082376  1
  O  O306  1  0.74312024  0.76777673  0.62546720  1
  O  O307  1  0.23930426  0.25791022  0.38338968  1
  O  O308  1  0.23321936  0.25371753  0.87400151  1
  O  O309  1  0.24514447  0.74576436  0.37915957  1
  O  O310  1  0.29601267  0.74355702  0.89573183  1
  O  O311  1  0.75778808  0.23266994  0.37447963  1
  O  O312  1  0.74592974  0.24389283  0.88209526  1
  O  O313  1  0.74527275  0.73735501  0.38073832  1
  O  O314  1  0.74093803  0.75241383  0.88608308  1
  O  O315  1  0.00318223  0.12198757  0.01216429  1
  O  O316  1  0.00404005  0.11997342  0.50760044  1
  O  O317  1  0.00968369  0.61720108  0.00507770  1
  O  O318  1  -0.00233945  0.61949408  0.50715027  1
  O  O319  1  0.50868680  0.12316692  -0.00002367  1
  O  O320  1  0.49804115  0.12572798  0.51503510  1
  O  O321  1  0.51059359  0.62715075  0.01518943  1
  O  O322  1  0.49913011  0.62156536  0.51473501  1
  O  O323  1  0.49491811  0.37603138  0.49600639  1
  O  O324  1  0.49393795  0.37695368  0.99353778  1
  O  O325  1  0.49180569  0.87481739  0.49434285  1
  O  O326  1  0.49145021  0.88698361  1.00045727  1
  O  O327  1  0.99188933  0.38217418  0.49601238  1
  O  O328  1  1.00101930  0.38579692  0.99666638  1
  O  O329  1  0.98266154  0.87052191  0.49058459  1
  O  O330  1  0.99038754  0.87164314  0.99129123  1
  O  O331  1  0.50014310  0.48738392  0.38162241  1
  O  O332  1  0.50906784  0.48589128  0.87646081  1
  O  O333  1  0.49655487  0.99050240  0.37921872  1
  O  O334  1  0.49137119  1.00308709  0.88659095  1
  O  O335  1  1.00393093  0.49570143  0.38946713  1
  O  O336  1  0.99658601  0.48910755  0.88394868  1
  O  O337  1  0.99271672  0.98902318  0.38427434  1
  O  O338  1  0.99382264  0.99028545  0.87292659  1
  O  O339  1  0.01133922  0.00575020  0.12436812  1
  O  O340  1  -0.00734577  0.00835279  0.61754599  1
  O  O341  1  0.00091728  0.50355894  0.11230019  1
  O  O342  1  0.00698776  0.50445720  0.61560814  1
  O  O343  1  0.49710466  0.00725997  0.11227748  1
  O  O344  1  0.50744118  0.00833155  0.62886831  1
  O  O345  1  0.50770921  0.50893926  0.12252823  1
  O  O346  1  0.50017043  0.50800670  0.62012335  1
  O  O347  1  0.24046205  0.37783864  0.24627605  1
  O  O348  1  0.24751159  0.35312522  0.72139045  1
  O  O349  1  0.24581116  0.88523693  0.24647280  1
  O  O350  1  0.25230403  0.88592691  0.74803046  1
  O  O351  1  0.74212691  0.36661132  0.23981771  1
  O  O352  1  0.74624096  0.38140848  0.74484914  1
  O  O353  1  0.75452521  0.86588010  0.23222803  1
  O  O354  1  0.75533850  0.87477711  0.73932345  1
  O  O355  1  0.24513300  0.10812961  0.24860126  1
  O  O356  1  0.25869451  0.12761711  0.74212455  1
  O  O357  1  0.26048416  0.62591907  0.25682500  1
  O  O358  1  0.26472750  0.62506743  0.75425343  1
  O  O359  1  0.76128672  0.12622114  0.26000831  1
  O  O360  1  0.75496345  0.13361918  0.76238078  1
  O  O361  1  0.76984362  0.63090802  0.24072025  1
  O  O362  1  0.76334514  0.61893422  0.74183660  1
  O  O363  1  0.37356392  0.12128405  0.37167620  1
  O  O364  1  0.37733521  0.11980768  0.86663243  1
  O  O365  1  0.37518135  0.62190990  0.37060966  1
  O  O366  1  0.39071757  0.60659458  0.85909748  1
  O  O367  1  0.87390352  0.11634427  0.36718767  1
  O  O368  1  0.86880360  0.11566085  0.86983853  1
  O  O369  1  0.87872951  0.62322631  0.35695889  1
  O  O370  1  0.88037871  0.62303190  0.85939434  1
  O  O371  1  0.13419020  0.36829891  0.13408908  1
  O  O372  1  0.13029456  0.38226753  0.62636425  1
  O  O373  1  0.12525220  0.88336418  0.12279273  1
  O  O374  1  0.10262227  0.91625899  0.55287234  1
  O  O375  1  0.63461155  0.38024449  0.12760522  1
  O  O376  1  0.63317782  0.37703116  0.63361646  1
  O  O377  1  0.64357925  0.87538240  0.11750884  1
  O  O378  1  0.63580650  0.88957963  0.62579810  1
  O  O379  1  0.11969447  0.25826122  0.25393663  1
  O  O380  1  0.12168048  0.26029656  0.76189701  1
  O  O381  1  0.11653789  0.74918408  0.25717442  1
  O  O382  1  0.11625972  0.74723304  0.74851185  1
  O  O383  1  0.61618158  0.26066778  0.24118779  1
  O  O384  1  0.61700286  0.25795995  0.75716136  1
  O  O385  1  0.61717287  0.75654354  0.25028544  1
  O  O386  1  0.61432734  0.74088933  0.76305221  1
  O  O387  1  0.38285607  0.25422251  0.24081347  1
  O  O388  1  0.38075199  0.24644316  0.76069538  1
  O  O389  1  0.38372123  0.74901752  0.23939629  1
  O  O390  1  0.38236576  0.74263611  0.74416907  1
  O  O391  1  0.88247002  0.23717390  0.24254902  1
  O  O392  1  0.88198739  0.24304620  0.74317104  1
  O  O393  1  0.88955349  0.74623596  0.24865062  1
  O  O394  1  0.87877650  0.73739408  0.74904148  1
  O  O395  1  0.38149216  0.49422815  0.49369805  1
  O  O396  1  0.37796556  0.48790829  1.00598851  1
  O  O397  1  0.37498669  0.98772131  0.50511429  1
  O  O398  1  0.37820526  0.99852265  0.99593330  1
  O  O399  1  0.88112728  0.48929298  0.50587990  1
  O  O400  1  0.89219095  0.50830974  0.99758815  1
  O  O401  1  0.88552152  0.98800820  0.49364253  1
  O  O402  1  0.88075634  0.99103073  0.98669884  1
  O  O403  1  0.12414506  0.00932974  0.00753796  1
  O  O404  1  0.11853268  0.02756691  0.46833196  1
  O  O405  1  0.11051302  0.50885147  -0.00466414  1
  O  O406  1  0.11540082  0.50170460  0.50618592  1
  O  O407  1  0.61713282  0.00859242  0.00117308  1
  O  O408  1  0.62100375  0.01001297  0.51606507  1
  O  O409  1  0.62339065  0.50755024  0.00891360  1
  O  O410  1  0.61540488  0.50784297  0.50779598  1
  O  O411  1  0.37078564  0.36773864  0.12120344  1
  O  O412  1  0.36690364  0.37950238  0.60854733  1
  O  O413  1  0.37456331  0.86976455  0.11899586  1
  O  O414  1  0.38061196  0.86143453  0.61910946  1
  O  O415  1  0.86339732  0.36640308  0.12902572  1
  O  O416  1  0.86910308  0.37139815  0.61967511  1
  O  O417  1  0.87003922  0.87249681  0.11424075  1
  O  O418  1  0.85769116  0.88394409  0.61686340  1
  O  O419  1  0.11381240  0.14466755  0.37429863  1
  O  O420  1  0.11723646  0.13745838  0.88390621  1
  O  O421  1  0.13202767  0.63530945  0.37721159  1
  O  O422  1  0.12416527  0.62065834  0.88093723  1
  O  O423  1  0.64140688  0.11763785  0.37388861  1
  O  O424  1  0.63158815  0.12855855  0.88261383  1
  O  O425  1  0.59918215  0.63695480  0.39785895  1
  O  O426  1  0.61832818  0.63275725  0.88947098  1
