# generated using pymatgen
data_V85Zn86O256
_symmetry_space_group_name_H-M   'P 1'
_cell_length_a   16.94930044
_cell_length_b   16.96235755
_cell_length_c   16.95460686
_cell_angle_alpha   89.93161648
_cell_angle_beta   90.00954539
_cell_angle_gamma   89.98202492
_symmetry_Int_Tables_number   1
_chemical_formula_structural   V85Zn86O256
_chemical_formula_sum   'V85 Zn86 O256'
_cell_volume   4874.44728810
_cell_formula_units_Z   1
loop_
 _symmetry_equiv_pos_site_id
 _symmetry_equiv_pos_as_xyz
  1  'x, y, z'
loop_
 _atom_site_type_symbol
 _atom_site_label
 _atom_site_symmetry_multiplicity
 _atom_site_fract_x
 _atom_site_fract_y
 _atom_site_fract_z
 _atom_site_occupancy
  V  V0  1  0.24795943  0.62473558  0.87450770  1
  V  V1  1  0.37486221  0.37342216  0.50239816  1
  V  V2  1  0.24674550  0.01017563  0.24903901  1
  V  V3  1  0.49818312  0.37694309  0.87346082  1
  V  V4  1  0.37233593  -0.00773713  0.87794281  1
  V  V5  1  0.63897833  0.62489506  0.49893215  1
  V  V6  1  0.37090555  0.38011725  0.00263470  1
  V  V7  1  0.87559383  0.12621606  0.24072692  1
  V  V8  1  0.50276566  0.50158989  0.00209301  1
  V  V9  1  0.62091524  0.63221360  -0.00677588  1
  V  V10  1  0.50392990  0.62324625  0.12586951  1
  V  V11  1  0.37054677  0.01610444  0.36870701  1
  V  V12  1  0.87009243  0.75501520  0.60918297  1
  V  V13  1  0.62878799  0.37237722  0.24745643  1
  V  V14  1  0.37694565  0.49984247  0.37450525  1
  V  V15  1  0.49653355  0.00527790  0.49970163  1
  V  V16  1  0.50514595  0.87776243  0.87248139  1
  V  V17  1  0.25127072  0.75582939  -0.00074013  1
  V  V18  1  0.49448217  0.87560684  0.37378734  1
  V  V19  1  -0.00484355  0.37266337  0.88271913  1
  V  V20  1  0.87608252  0.87439363  -0.00508097  1
  V  V21  1  0.50344517  0.25378962  0.75102038  1
  V  V22  1  0.24171228  0.87779537  0.12430457  1
  V  V23  1  0.00043095  0.12547983  0.62159671  1
  V  V24  1  0.74965540  0.75105533  0.00158829  1
  V  V25  1  0.87422433  0.25153091  0.61381970  1
  V  V26  1  0.62411285  0.25073648  0.87361747  1
  V  V27  1  0.50249907  0.50091640  0.50082760  1
  V  V28  1  0.12668014  0.37054916  0.26401317  1
  V  V29  1  0.12631251  0.49639578  0.12628435  1
  V  V30  1  0.87517040  0.74785728  0.13769683  1
  V  V31  1  0.11780825  0.12086470  0.02213821  1
  V  V32  1  0.12491107  0.86870553  0.26009409  1
  V  V33  1  -0.00292985  0.48891232  0.50657199  1
  V  V34  1  0.12653083  0.12839815  0.48178890  1
  V  V35  1  0.62338968  -0.00461655  0.62774547  1
  V  V36  1  0.49947656  0.74951904  0.25155869  1
  V  V37  1  0.87318536  0.12206969  0.74728164  1
  V  V38  1  0.63132253  0.49600583  0.62656139  1
  V  V39  1  0.12120048  0.62186632  0.00029307  1
  V  V40  1  -0.00034811  0.62502694  0.13325009  1
  V  V41  1  0.37597198  0.12666447  0.75156852  1
  V  V42  1  0.75066828  0.87469425  0.13034000  1
  V  V43  1  0.62162227  0.12496897  0.00511360  1
  V  V44  1  0.00483527  0.62164779  0.62450450  1
  V  V45  1  0.25175101  0.37048746  0.12623000  1
  V  V46  1  0.73974189  0.25395054  0.49681660  1
  V  V47  1  0.87391620  0.49310417  0.36407344  1
  V  V48  1  0.48719232  0.24019715  0.23706106  1
  V  V49  1  0.74814706  0.12225964  0.87131898  1
  V  V50  1  0.12370340  0.00407732  0.62218201  1
  V  V51  1  0.62392224  0.87450217  0.25075623  1
  V  V52  1  0.74846616  0.00360700  0.24929552  1
  V  V53  1  0.49518858  -0.00396056  0.00451508  1
  V  V54  1  -0.00071517  0.00094434  0.01265126  1
  V  V55  1  0.75680010  0.25484229  0.00456910  1
  V  V56  1  0.74439363  0.12963903  0.37435811  1
  V  V57  1  0.62933190  0.74750985  0.37774095  1
  V  V58  1  -0.00467161  -0.00375934  0.49759661  1
  V  V59  1  0.37441792  0.62489711  0.25028255  1
  V  V60  1  0.37362405  0.75203325  0.62083554  1
  V  V61  1  -0.00424744  0.74767282  0.74967891  1
  V  V62  1  0.87269365  -0.00877876  0.37610328  1
  V  V63  1  0.12448357  0.37824339  0.74691345  1
  V  V64  1  0.37437689  0.75622710  0.12201064  1
  V  V65  1  0.68306308  0.43865815  0.80651886  1
  V  V66  1  0.27465924  0.22616268  0.01366076  1
  V  V67  1  0.00314294  0.24880765  0.74959690  1
  V  V68  1  0.61971261  0.00182692  0.12623344  1
  V  V69  1  0.00690133  0.24167470  0.25230024  1
  V  V70  1  0.12287458  0.87531209  0.74924302  1
  V  V71  1  0.50494225  0.75756101  0.74601551  1
  V  V72  1  0.74681340  -0.01724106  0.74973930  1
  V  V73  1  0.24177089  0.62707552  0.37369036  1
  V  V74  1  0.23827475  0.75038380  0.49559360  1
  V  V75  1  0.24717028  0.24743806  0.48866955  1
  V  V76  1  0.12320769  0.75076877  0.87483281  1
  V  V77  1  0.75479097  0.38099710  0.62107127  1
  V  V78  1  0.24799862  0.00101382  0.74770549  1
  V  V79  1  0.23953655  0.12229435  0.87257080  1
  V  V80  1  0.24673837  0.50014522  0.74065946  1
  V  V81  1  0.37541062  0.50260634  0.87284413  1
  V  V82  1  0.75807555  0.62300654  0.35504114  1
  V  V83  1  0.24830265  0.87608664  0.62234636  1
  V  V84  1  0.37840421  0.62758756  0.74678227  1
  Zn  Zn85  1  -0.00044660  0.87691951  0.87616701  1
  Zn  Zn86  1  0.86293411  0.61588306  0.74621901  1
  Zn  Zn87  1  0.50398578  0.62671739  0.62388514  1
  Zn  Zn88  1  0.74941248  0.87330998  0.60726446  1
  Zn  Zn89  1  0.50111865  0.12793092  0.62533902  1
  Zn  Zn90  1  0.12311087  0.61773047  0.50008315  1
  Zn  Zn91  1  -0.00097160  0.86469486  0.38251981  1
  Zn  Zn92  1  0.87622149  -0.00126880  0.87458171  1
  Zn  Zn93  1  0.37382100  0.25036645  0.62563016  1
  Zn  Zn94  1  0.87716549  0.50322794  0.87312391  1
  Zn  Zn95  1  0.76044101  0.39069545  0.13931383  1
  Zn  Zn96  1  0.50973087  0.36224335  0.37372374  1
  Zn  Zn97  1  0.62534827  0.75583587  0.86861442  1
  Zn  Zn98  1  -0.00506553  0.36623541  0.38154131  1
  Zn  Zn99  1  0.00232372  0.74341386  0.26153900  1
  Zn  Zn100  1  0.12729112  0.24944226  0.88402671  1
  Zn  Zn101  1  0.24588412  0.37388756  0.62323585  1
  Zn  Zn102  1  0.88427557  0.25760480  0.12041084  1
  Zn  Zn103  1  0.25089936  0.49687757  0.25201584  1
  Zn  Zn104  1  0.62023170  0.12929514  0.49744613  1
  Zn  Zn105  1  0.37037757  0.87755696  0.49597987  1
  Zn  Zn106  1  -0.01028324  0.48421256  0.00838989  1
  Zn  Zn107  1  0.18899230  0.19070966  0.19236368  1
  Zn  Zn108  1  0.18808126  0.19148408  0.68008523  1
  Zn  Zn109  1  0.18729615  0.68744176  0.18835592  1
  Zn  Zn110  1  0.18548187  0.68685149  0.68540842  1
  Zn  Zn111  1  0.68026876  0.19347366  0.18853133  1
  Zn  Zn112  1  0.68490418  0.18392559  0.68404925  1
  Zn  Zn113  1  0.68133135  0.55187255  0.17684725  1
  Zn  Zn114  1  0.68729274  0.68515986  0.68379243  1
  Zn  Zn115  1  0.32119192  0.31054615  0.31201812  1
  Zn  Zn116  1  0.31088279  0.31044950  0.81796684  1
  Zn  Zn117  1  0.31061511  0.81317626  0.31117082  1
  Zn  Zn118  1  0.31258910  0.81407410  0.81090494  1
  Zn  Zn119  1  0.81445591  0.31075526  0.31052232  1
  Zn  Zn120  1  0.81693308  0.30582518  0.81186283  1
  Zn  Zn121  1  0.81088752  0.80942848  0.43172144  1
  Zn  Zn122  1  0.79585656  0.78248533  0.79635391  1
  Zn  Zn123  1  0.18801131  0.44107579  0.44266325  1
  Zn  Zn124  1  0.18484174  0.43433232  0.93566191  1
  Zn  Zn125  1  0.18777975  0.94228299  0.43584216  1
  Zn  Zn126  1  0.18202382  0.93888415  0.94009039  1
  Zn  Zn127  1  0.69189951  0.43616997  0.43201496  1
  Zn  Zn128  1  0.71177965  0.46276607  0.99307956  1
  Zn  Zn129  1  0.68117606  0.94386756  0.43657056  1
  Zn  Zn130  1  0.68717311  0.93667921  0.93873955  1
  Zn  Zn131  1  0.30955166  0.05588512  0.06059096  1
  Zn  Zn132  1  0.31282397  0.06757125  0.56052525  1
  Zn  Zn133  1  0.31089391  0.56517810  0.06445522  1
  Zn  Zn134  1  0.31243151  0.56456479  0.56031103  1
  Zn  Zn135  1  0.81037676  0.06287176  0.06053271  1
  Zn  Zn136  1  0.80874643  0.06194978  0.56088199  1
  Zn  Zn137  1  0.82567761  0.56952661  0.05457759  1
  Zn  Zn138  1  0.82155784  0.56278609  0.56038211  1
  Zn  Zn139  1  0.44220734  0.43345205  0.18898854  1
  Zn  Zn140  1  0.44038193  0.43862733  0.68668675  1
  Zn  Zn141  1  0.43209462  0.93891802  0.18756724  1
  Zn  Zn142  1  0.43508170  0.93876683  0.68603134  1
  Zn  Zn143  1  0.93986309  0.43023803  0.18985700  1
  Zn  Zn144  1  0.93225960  0.43932350  0.69410848  1
  Zn  Zn145  1  0.93684624  0.93505276  0.19032471  1
  Zn  Zn146  1  0.93423400  0.93431458  0.68540749  1
  Zn  Zn147  1  0.06094070  0.05639740  0.30655048  1
  Zn  Zn148  1  0.05642747  0.05801758  0.81464928  1
  Zn  Zn149  1  0.06043044  0.55341566  0.31456177  1
  Zn  Zn150  1  0.05861790  0.56019138  0.81073996  1
  Zn  Zn151  1  0.55866490  0.07063258  0.31008500  1
  Zn  Zn152  1  0.56344286  0.06195623  0.81217898  1
  Zn  Zn153  1  0.56411900  0.55675061  0.31404003  1
  Zn  Zn154  1  0.75024493  0.62061118  0.87445919  1
  Zn  Zn155  1  0.43858450  0.19293144  0.43078418  1
  Zn  Zn156  1  0.43276127  0.18069175  0.94958321  1
  Zn  Zn157  1  0.43678947  0.68504421  0.43959291  1
  Zn  Zn158  1  0.43629373  0.69169099  0.93516726  1
  Zn  Zn159  1  0.93418435  0.18105410  0.43071883  1
  Zn  Zn160  1  0.93798869  0.18415221  0.93510612  1
  Zn  Zn161  1  0.94282165  0.67777545  0.43321899  1
  Zn  Zn162  1  0.93546962  0.68497058  0.93782877  1
  Zn  Zn163  1  0.06840962  0.30341392  0.06848330  1
  Zn  Zn164  1  0.06649886  0.31255833  0.56257300  1
  Zn  Zn165  1  0.06188587  0.81323769  0.06653723  1
  Zn  Zn166  1  0.06015076  0.81162550  0.56327855  1
  Zn  Zn167  1  0.56867971  0.31603305  0.06929298  1
  Zn  Zn168  1  0.56240456  0.31658091  0.56730574  1
  Zn  Zn169  1  0.55984398  0.81651511  0.06231417  1
  Zn  Zn170  1  0.56280758  0.81667545  0.55757936  1
  O  O171  1  0.12562528  0.12101961  0.11972921  1
  O  O172  1  0.11737361  0.12001202  0.61891443  1
  O  O173  1  0.12293494  0.61717703  0.11855034  1
  O  O174  1  0.10972198  0.62642562  0.62527506  1
  O  O175  1  0.63148942  0.11749073  0.11180623  1
  O  O176  1  0.62055931  0.11223416  0.62035391  1
  O  O177  1  0.60792009  0.62516993  0.11638296  1
  O  O178  1  0.62622406  0.61490776  0.61769195  1
  O  O179  1  0.37697952  0.38476229  0.38697687  1
  O  O180  1  0.37540170  0.38867617  0.87827676  1
  O  O181  1  0.38539851  0.87832561  0.37428410  1
  O  O182  1  0.37908003  0.88735995  0.87097000  1
  O  O183  1  0.87365831  0.38911425  0.37272527  1
  O  O184  1  0.89375255  0.36769584  0.87155777  1
  O  O185  1  0.87557915  0.88823990  0.37211655  1
  O  O186  1  0.87340664  0.87286567  0.89073822  1
  O  O187  1  0.26277248  -0.00468859  0.36374069  1
  O  O188  1  0.25390738  0.00342679  0.86938900  1
  O  O189  1  0.26241485  0.50796601  0.37768286  1
  O  O190  1  0.25847257  0.50613655  0.86908883  1
  O  O191  1  0.75467465  0.00704529  0.36648118  1
  O  O192  1  0.75005533  0.00439506  0.86675576  1
  O  O193  1  0.76437199  0.51162332  0.38021468  1
  O  O194  1  0.73413479  0.49538021  0.87847954  1
  O  O195  1  0.23876354  0.49530876  0.12603615  1
  O  O196  1  0.25470970  0.49875759  0.63762343  1
  O  O197  1  0.26139228  0.99005113  0.13845090  1
  O  O198  1  0.24498294  0.99671125  0.62842043  1
  O  O199  1  0.74496096  0.50072891  0.09859719  1
  O  O200  1  0.74646694  0.49241754  0.61819813  1
  O  O201  1  0.74210151  0.99399084  0.12952810  1
  O  O202  1  0.74276387  0.99761671  0.63258300  1
  O  O203  1  0.01164915  0.36415632  0.25650474  1
  O  O204  1  0.00643118  0.36646988  0.75708261  1
  O  O205  1  0.01816359  0.87901185  0.24944400  1
  O  O206  1  0.00831721  0.86921990  0.75014812  1
  O  O207  1  0.50848451  0.36821071  0.25018233  1
  O  O208  1  0.49056407  0.36514026  0.75972616  1
  O  O209  1  0.50266037  0.87073349  0.25590199  1
  O  O210  1  0.49000106  0.86810677  0.75828725  1
  O  O211  1  0.50203743  0.13849203  0.24258569  1
  O  O212  1  0.49015209  0.13205540  0.75350221  1
  O  O213  1  0.49503895  0.62998197  0.24311916  1
  O  O214  1  0.48281101  0.63859339  0.74574917  1
  O  O215  1  0.99227123  0.13268737  0.25434573  1
  O  O216  1  0.99530175  0.13079338  0.74348735  1
  O  O217  1  1.01311112  0.62584983  0.23601667  1
  O  O218  1  0.99894708  0.63224789  0.74317736  1
  O  O219  1  0.37598792  0.27838590  -0.02046023  1
  O  O220  1  0.36771121  0.25723834  0.50079643  1
  O  O221  1  0.36006013  0.74476676  0.00625564  1
  O  O222  1  0.36895117  0.75017122  0.51090010  1
  O  O223  1  0.86066529  0.23812260  0.00104452  1
  O  O224  1  0.87011824  0.24311594  0.51146186  1
  O  O225  1  0.86935953  0.75754495  0.00736755  1
  O  O226  1  0.87804971  0.74642326  0.50631481  1
  O  O227  1  0.13723985  0.24371202  0.50155705  1
  O  O228  1  0.13365884  0.23045962  1.00272018  1
  O  O229  1  0.13606750  0.74569955  0.50470530  1
  O  O230  1  0.13341955  0.74395863  0.99700783  1
  O  O231  1  0.63547475  0.24874964  0.50671889  1
  O  O232  1  0.62989093  0.24086140  0.99352959  1
  O  O233  1  0.61405841  0.73898962  0.48708316  1
  O  O234  1  0.63170540  0.74660659  1.00670597  1
  O  O235  1  0.50134071  0.25435981  0.13499092  1
  O  O236  1  0.49556302  0.24979490  0.63556780  1
  O  O237  1  0.49103259  0.74582933  0.12837089  1
  O  O238  1  0.49076489  0.75312543  0.62832668  1
  O  O239  1  1.00055318  0.25098530  0.14420471  1
  O  O240  1  0.99277718  0.24613731  0.62924804  1
  O  O241  1  0.99061377  0.74440955  0.12861093  1
  O  O242  1  0.99354038  0.74291173  0.62869480  1
  O  O243  1  -0.00731576  0.25082787  0.36053380  1
  O  O244  1  0.00362389  0.25446638  0.86645154  1
  O  O245  1  -0.00288478  0.75253624  0.37304100  1
  O  O246  1  0.00639668  0.75209209  0.86695775  1
  O  O247  1  0.49558919  0.25058543  0.35563783  1
  O  O248  1  0.50602536  0.25666134  0.87301305  1
  O  O249  1  0.50144492  0.75730515  0.37231138  1
  O  O250  1  0.49541034  0.76147200  0.86510708  1
  O  O251  1  0.24256201  0.13850747  0.50177915  1
  O  O252  1  0.22816880  0.11477622  0.99011300  1
  O  O253  1  0.24643478  0.63141794  0.49292193  1
  O  O254  1  0.23874402  0.63155441  0.99594436  1
  O  O255  1  0.74812801  0.13415273  0.49198586  1
  O  O256  1  0.74195519  0.12754001  0.98746120  1
  O  O257  1  0.74021253  0.62121573  0.49528812  1
  O  O258  1  0.73987141  0.63725263  0.99824602  1
  O  O259  1  0.25514217  0.36914080  0.00689067  1
  O  O260  1  0.25607896  0.36769652  0.50215990  1
  O  O261  1  0.24352377  0.86716729  0.00840224  1
  O  O262  1  0.24953963  0.86786101  0.50326616  1
  O  O263  1  0.74529243  0.35325836  -0.00942516  1
  O  O264  1  0.74868243  0.36728241  0.50977437  1
  O  O265  1  0.75609064  0.87579306  0.01353275  1
  O  O266  1  0.74780792  0.87697444  0.49385520  1
  O  O267  1  0.12815434  0.48900920  0.24248544  1
  O  O268  1  0.13628201  0.49190144  0.75740859  1
  O  O269  1  0.14082199  0.99007616  0.25305662  1
  O  O270  1  0.12906981  0.99544965  0.74336068  1
  O  O271  1  0.61535477  0.48801277  0.24245708  1
  O  O272  1  0.63270256  0.49991541  0.74417441  1
  O  O273  1  0.62709470  0.99511868  0.24548337  1
  O  O274  1  0.63440549  1.00351172  0.74151607  1
  O  O275  1  0.36501213  -0.00342559  0.26138717  1
  O  O276  1  0.36697246  0.00663074  0.75635087  1
  O  O277  1  0.37416066  0.50459323  0.25917116  1
  O  O278  1  0.37086948  0.50941351  0.75502303  1
  O  O279  1  0.86842109  0.00540318  0.25529689  1
  O  O280  1  0.86549945  0.00473659  0.74899495  1
  O  O281  1  0.88629824  0.50252982  0.26552199  1
  O  O282  1  0.86929370  0.50239105  0.75944002  1
  O  O283  1  0.12682116  0.37980555  0.36526605  1
  O  O284  1  0.12062843  0.36659224  0.86457122  1
  O  O285  1  0.12634106  0.87692748  0.36279873  1
  O  O286  1  0.12544518  0.86740215  0.86728323  1
  O  O287  1  0.62243889  0.38612773  0.35918483  1
  O  O288  1  0.62003547  0.37607783  0.86265611  1
  O  O289  1  0.61194710  0.86988831  0.37194059  1
  O  O290  1  0.60950700  0.87638522  0.87612410  1
  O  O291  1  0.35200391  0.16020088  0.04748350  1
  O  O292  1  0.37651408  0.12444861  0.64085519  1
  O  O293  1  0.37897950  0.63652664  0.12961367  1
  O  O294  1  0.37562838  0.63373340  0.63024558  1
  O  O295  1  0.86806672  0.12525601  0.13836168  1
  O  O296  1  0.87929008  0.13156419  0.62939237  1
  O  O297  1  0.88536749  0.63924206  0.12260235  1
  O  O298  1  0.88336813  0.63748908  0.62705909  1
  O  O299  1  0.24594864  0.25852623  0.11776365  1
  O  O300  1  0.25616755  0.25481865  0.61441663  1
  O  O301  1  0.25450161  0.75559552  0.11746041  1
  O  O302  1  0.25537026  0.75477434  0.61778587  1
  O  O303  1  0.74861913  0.24514738  0.10802309  1
  O  O304  1  0.75561353  0.25587216  0.61985124  1
  O  O305  1  0.76319661  0.75917246  0.11661069  1
  O  O306  1  0.76654338  0.75215309  0.62410235  1
  O  O307  1  0.25514791  0.25457276  0.38975474  1
  O  O308  1  0.25262087  0.23522374  0.89028371  1
  O  O309  1  0.25880894  0.74051715  0.38530920  1
  O  O310  1  0.24562068  0.74525357  0.88066373  1
  O  O311  1  0.75875938  0.24269717  0.38759795  1
  O  O312  1  0.74371062  0.23977007  0.87776052  1
  O  O313  1  0.74125088  0.73392352  0.37389136  1
  O  O314  1  0.74154571  0.76777535  0.89618014  1
  O  O315  1  0.01190237  0.11913105  -0.00251706  1
  O  O316  1  0.00785411  0.11900418  0.50228230  1
  O  O317  1  0.01300891  0.62947481  0.01069072  1
  O  O318  1  0.00306212  0.61448237  0.50868486  1
  O  O319  1  0.51132986  0.10874035  -0.00828505  1
  O  O320  1  0.49581918  0.11615235  0.50009470  1
  O  O321  1  0.50109491  0.62409459  0.00545104  1
  O  O322  1  0.50708865  0.61277048  0.50195231  1
  O  O323  1  0.49575144  0.38497216  0.49741015  1
  O  O324  1  0.49479922  0.38642698  0.99678283  1
  O  O325  1  0.49519872  0.88809011  0.49065184  1
  O  O326  1  0.49986928  0.88669869  0.99033312  1
  O  O327  1  1.00024924  0.38354219  0.50087538  1
  O  O328  1  1.01284336  0.36631935  0.98585704  1
  O  O329  1  1.00968137  0.89241391  0.49956139  1
  O  O330  1  0.99316640  0.88109296  1.00130503  1
  O  O331  1  0.48842046  0.50239481  0.38445233  1
  O  O332  1  0.48351986  0.49637634  0.88423755  1
  O  O333  1  0.48867751  0.99657769  0.37745575  1
  O  O334  1  0.49095259  0.99406811  0.87780847  1
  O  O335  1  0.98945173  0.49688802  0.38461516  1
  O  O336  1  1.00635737  0.48009030  0.87670785  1
  O  O337  1  0.99029121  0.99793580  0.38094767  1
  O  O338  1  0.99445855  0.99527551  0.88572212  1
  O  O339  1  -0.00523400  -0.00242506  0.11250177  1
  O  O340  1  0.00214949  0.00635169  0.61737241  1
  O  O341  1  0.01078552  0.50549107  0.12421099  1
  O  O342  1  -0.00901905  0.50491646  0.61471987  1
  O  O343  1  0.50448331  -0.00780202  0.11600542  1
  O  O344  1  0.50254449  0.00141637  0.61622719  1
  O  O345  1  0.48343148  0.51289587  0.11275763  1
  O  O346  1  0.51131767  0.50136188  0.61904322  1
  O  O347  1  0.24506212  0.37331314  0.24311677  1
  O  O348  1  0.24463883  0.38279095  0.75180307  1
  O  O349  1  0.24138185  0.87939017  0.24444025  1
  O  O350  1  0.24266316  0.88036055  0.74307515  1
  O  O351  1  0.73645290  0.37015028  0.25273182  1
  O  O352  1  0.74436965  0.37649044  0.75033432  1
  O  O353  1  0.74252804  0.88272208  0.23754548  1
  O  O354  1  0.75430623  0.88167190  0.74615171  1
  O  O355  1  0.24805313  0.10908006  0.24476482  1
  O  O356  1  0.25486900  0.12233114  0.75525792  1
  O  O357  1  0.25694982  0.62349868  0.25634022  1
  O  O358  1  0.25706448  0.62001445  0.75333396  1
  O  O359  1  0.75353723  0.12408546  0.25489781  1
  O  O360  1  0.75232113  0.11996580  0.75898355  1
  O  O361  1  0.74240683  0.61750960  0.25803996  1
  O  O362  1  0.75764127  0.66798931  0.76797488  1
  O  O363  1  0.37267647  0.11334560  0.37400153  1
  O  O364  1  0.36468548  0.11403899  0.86729251  1
  O  O365  1  0.36889007  0.61866709  0.37020914  1
  O  O366  1  0.36814940  0.62244968  0.86668732  1
  O  O367  1  0.86329575  0.11487180  0.36395093  1
  O  O368  1  0.86526229  0.12262362  0.86636470  1
  O  O369  1  0.86195374  0.61960941  0.37153183  1
  O  O370  1  0.86911450  0.62576217  0.87038532  1
  O  O371  1  0.13475374  0.38041529  0.13009686  1
  O  O372  1  0.12611909  0.37156908  0.64185181  1
  O  O373  1  0.13726348  0.87353698  0.13335438  1
  O  O374  1  0.12967721  0.88239239  0.62965400  1
  O  O375  1  0.63694310  0.37834425  0.13619652  1
  O  O376  1  0.63556068  0.38810299  0.62481574  1
  O  O377  1  0.63179631  0.88004956  0.12990825  1
  O  O378  1  0.62596187  0.88994124  0.61843229  1
  O  O379  1  0.11638924  0.25457053  0.25190615  1
  O  O380  1  0.11322909  0.25276680  0.74904178  1
  O  O381  1  0.12587602  0.76516480  0.24639486  1
  O  O382  1  0.11639280  0.75506654  0.75276012  1
  O  O383  1  0.61515730  0.26451430  0.24734081  1
  O  O384  1  0.61083244  0.24110803  0.75618097  1
  O  O385  1  0.61454295  0.75828501  0.26648302  1
  O  O386  1  0.60718706  0.74905033  0.74597697  1
  O  O387  1  0.38550586  0.25325328  0.24115277  1
  O  O388  1  0.38269796  0.24194696  0.75461785  1
  O  O389  1  0.37967670  0.74467240  0.24248042  1
  O  O390  1  0.37492462  0.74649111  0.73743811  1
  O  O391  1  0.88393303  0.24034814  0.24763962  1
  O  O392  1  0.88603298  0.24247849  0.74090154  1
  O  O393  1  0.87703043  0.75558100  0.23477165  1
  O  O394  1  0.89181094  0.75624812  0.73900922  1
  O  O395  1  0.38258370  0.49598811  0.49580140  1
  O  O396  1  0.37575767  0.49738068  0.99205092  1
  O  O397  1  0.37672046  1.00006542  0.48707720  1
  O  O398  1  0.38273436  1.00037193  0.99023223  1
  O  O399  1  0.89064559  0.50444840  0.48929783  1
  O  O400  1  0.88050331  0.50077637  0.98653701  1
  O  O401  1  0.88472482  1.01018595  0.48974139  1
  O  O402  1  0.87995567  0.99277334  0.99954292  1
  O  O403  1  0.11461398  0.01208263  -0.00202663  1
  O  O404  1  0.12134207  0.01049007  0.50384076  1
  O  O405  1  0.12271871  0.50648503  0.00689917  1
  O  O406  1  0.10562777  0.50005700  0.49620774  1
  O  O407  1  0.61827490  0.00483510  0.00593229  1
  O  O408  1  0.61065019  0.00607487  0.50419928  1
  O  O409  1  0.60688844  0.51303676  -0.00458038  1
  O  O410  1  0.62012289  0.50541091  0.50549192  1
  O  O411  1  0.35971728  0.38652722  0.11669238  1
  O  O412  1  0.37540695  0.37771097  0.61124759  1
  O  O413  1  0.36412353  0.86120145  0.13077379  1
  O  O414  1  0.36589908  0.86908994  0.62123041  1
  O  O415  1  0.87049464  0.37068530  0.12796504  1
  O  O416  1  0.86200341  0.36480537  0.63344691  1
  O  O417  1  0.86966396  0.86734967  0.11918473  1
  O  O418  1  0.87702080  0.85873216  0.62025880  1
  O  O419  1  0.12301461  0.11878105  0.38328738  1
  O  O420  1  0.13461825  0.12639713  0.86656991  1
  O  O421  1  0.13932901  0.61778411  0.37278624  1
  O  O422  1  0.12775885  0.62964978  0.88190507  1
  O  O423  1  0.64010940  0.11904831  0.37651506  1
  O  O424  1  0.63164234  0.12768657  0.88285295  1
  O  O425  1  0.63211221  0.62944928  0.37926371  1
  O  O426  1  0.62354695  0.63720504  0.89060546  1
