# generated using pymatgen
data_V85Zn86O256
_symmetry_space_group_name_H-M   'P 1'
_cell_length_a   16.94017349
_cell_length_b   16.93288420
_cell_length_c   16.92926918
_cell_angle_alpha   89.96200536
_cell_angle_beta   90.04231038
_cell_angle_gamma   89.98468386
_symmetry_Int_Tables_number   1
_chemical_formula_structural   V85Zn86O256
_chemical_formula_sum   'V85 Zn86 O256'
_cell_volume   4856.09051423
_cell_formula_units_Z   1
loop_
 _symmetry_equiv_pos_site_id
 _symmetry_equiv_pos_as_xyz
  1  'x, y, z'
loop_
 _atom_site_type_symbol
 _atom_site_label
 _atom_site_symmetry_multiplicity
 _atom_site_fract_x
 _atom_site_fract_y
 _atom_site_fract_z
 _atom_site_occupancy
  V  V0  1  0.75456100  0.50987486  0.75642678  1
  V  V1  1  0.24571010  -0.00224299  0.75268704  1
  V  V2  1  0.75247078  0.26812226  0.50181594  1
  V  V3  1  0.37707047  0.37380891  -0.00083613  1
  V  V4  1  0.23923023  0.50148125  0.24623901  1
  V  V5  1  0.24225422  0.37760469  0.12277594  1
  V  V6  1  0.00821301  0.88297869  0.87162444  1
  V  V7  1  0.63004263  0.74413077  0.87399716  1
  V  V8  1  0.63196876  0.37154613  0.74342821  1
  V  V9  1  0.87582245  0.12220832  0.25590275  1
  V  V10  1  0.50213624  0.13080686  0.62935934  1
  V  V11  1  0.25021204  0.50032130  0.74854740  1
  V  V12  1  0.49035217  0.75021360  0.25381673  1
  V  V13  1  0.62670693  0.00080926  0.62703574  1
  V  V14  1  0.62294640  0.24880172  0.36949897  1
  V  V15  1  0.87168167  0.49383872  0.37830211  1
  V  V16  1  0.00516965  0.75224096  0.75232982  1
  V  V17  1  0.12160361  0.61157814  0.00234050  1
  V  V18  1  0.86956845  0.87456843  0.49609083  1
  V  V19  1  0.62568721  0.73288262  0.37991657  1
  V  V20  1  0.25025085  0.01029861  0.25107538  1
  V  V21  1  0.00573237  0.36740831  0.37772584  1
  V  V22  1  0.49931910  0.87599663  0.37988037  1
  V  V23  1  0.00711100  0.24981500  0.75465547  1
  V  V24  1  0.37344625  0.50243505  0.37279952  1
  V  V25  1  -0.00192269  0.74870282  0.24914507  1
  V  V26  1  0.38346070  -0.01325566  0.88709180  1
  V  V27  1  0.00341794  0.60779429  0.12518230  1
  V  V28  1  0.74565370  0.73468600  0.49840980  1
  V  V29  1  0.25071741  0.37353536  0.62420982  1
  V  V30  1  0.12299401  0.62523139  0.50062425  1
  V  V31  1  0.62104377  0.87727229  0.75626645  1
  V  V32  1  0.87229227  0.26084579  0.62270161  1
  V  V33  1  0.74853668  0.37336459  0.12592093  1
  V  V34  1  -0.00499763  0.62293750  0.63328357  1
  V  V35  1  0.87224533  0.88032122  -0.00978249  1
  V  V36  1  0.24832492  0.87262788  0.12112615  1
  V  V37  1  0.12307526  0.75419303  0.37649445  1
  V  V38  1  0.25357479  0.75311988  0.50567913  1
  V  V39  1  0.49300360  0.62402614  0.12101460  1
  V  V40  1  0.23939787  0.87413687  0.62900130  1
  V  V41  1  0.24639691  0.24146010  0.49012392  1
  V  V42  1  0.37863590  0.25145633  0.63063302  1
  V  V43  1  0.12388991  0.87622314  0.24832417  1
  V  V44  1  0.87122396  0.62480827  0.25580274  1
  V  V45  1  0.24836126  0.62783941  0.37466392  1
  V  V46  1  0.12445791  0.49835072  0.62613400  1
  V  V47  1  0.38263242  0.25083235  0.12569210  1
  V  V48  1  0.37414084  0.87468403  0.51267142  1
  V  V49  1  0.50052654  0.00110378  0.50305083  1
  V  V50  1  -0.00322751  0.12461927  0.62437953  1
  V  V51  1  0.12429602  0.13319766  -0.00736029  1
  V  V52  1  0.49651939  0.75467672  0.74915322  1
  V  V53  1  0.74684156  0.50206034  0.25406948  1
  V  V54  1  0.87437362  0.74552736  0.11496841  1
  V  V55  1  0.75149107  0.00415301  0.76657420  1
  V  V56  1  0.75095312  0.11864399  0.38255690  1
  V  V57  1  0.49812173  0.37104955  0.36583920  1
  V  V58  1  -0.00672261  0.87995962  0.37343350  1
  V  V59  1  0.37388686  0.63063783  0.74271178  1
  V  V60  1  0.38468022  0.13061020  0.25586046  1
  V  V61  1  0.24379242  0.75001542  0.00238594  1
  V  V62  1  0.37510992  0.12620152  0.75532482  1
  V  V63  1  0.50398610  0.36556166  0.86700005  1
  V  V64  1  -0.00576137  0.49502591  0.50183268  1
  V  V65  1  0.62184763  0.00263425  0.12097765  1
  V  V66  1  0.62464585  0.50082617  0.12391374  1
  V  V67  1  0.87278393  0.74595536  0.63021802  1
  V  V68  1  0.63215093  0.50395077  0.61967221  1
  V  V69  1  0.87103931  0.12464938  0.76287934  1
  V  V70  1  0.12257964  0.00275239  0.12014777  1
  V  V71  1  0.50083150  0.62729737  0.61843795  1
  V  V72  1  0.74817738  0.24101339  -0.00950074  1
  V  V73  1  0.74970383  0.87642016  0.62598463  1
  V  V74  1  0.75438218  0.86993777  0.12285985  1
  V  V75  1  0.00958776  0.37754325  0.88051307  1
  V  V76  1  0.75490558  -0.00372805  0.25615814  1
  V  V77  1  0.87701860  0.38279403  -0.00154902  1
  V  V78  1  0.87565381  0.24820724  0.12866157  1
  V  V79  1  0.37790513  0.49992439  0.87090644  1
  V  V80  1  0.62589472  0.87253809  0.25477553  1
  V  V81  1  0.37690684  0.37453772  0.49853435  1
  V  V82  1  0.41951407  0.80410976  0.06797209  1
  V  V83  1  0.50370309  0.50066198  -0.00432188  1
  V  V84  1  -0.00540705  -0.00151537  0.50058231  1
  Zn  Zn85  1  0.61831502  0.36949473  0.24529210  1
  Zn  Zn86  1  0.76797970  0.63467094  0.88773525  1
  Zn  Zn87  1  0.24664035  0.13148176  0.87157103  1
  Zn  Zn88  1  0.62549867  0.12763697  0.50202168  1
  Zn  Zn89  1  0.01050157  0.24354844  0.25611375  1
  Zn  Zn90  1  0.13197736  0.36466517  0.75539034  1
  Zn  Zn91  1  0.88390036  0.50703634  0.87402854  1
  Zn  Zn92  1  0.11999236  -0.00159669  0.63030558  1
  Zn  Zn93  1  0.12684279  0.75189375  0.87337998  1
  Zn  Zn94  1  0.62766032  0.24139348  0.86398097  1
  Zn  Zn95  1  0.24829181  0.62704196  0.87486307  1
  Zn  Zn96  1  0.12667161  0.36712791  0.25122100  1
  Zn  Zn97  1  0.00127108  0.12555597  0.12627578  1
  Zn  Zn98  1  0.24679437  0.25363355  -0.00732955  1
  Zn  Zn99  1  0.50563877  0.50502897  0.49612237  1
  Zn  Zn100  1  -0.00612449  0.00604865  -0.00511865  1
  Zn  Zn101  1  0.50130889  0.12691444  0.12033313  1
  Zn  Zn102  1  0.36807917  0.63096518  0.24461944  1
  Zn  Zn103  1  0.37242654  0.00601295  0.37929910  1
  Zn  Zn104  1  0.62143666  0.11015960  -0.02083270  1
  Zn  Zn105  1  0.11792123  0.13466172  0.48983711  1
  Zn  Zn106  1  0.63287267  0.62851270  0.00159530  1
  Zn  Zn107  1  0.19083165  0.19123141  0.18393987  1
  Zn  Zn108  1  0.18767142  0.18289812  0.67996892  1
  Zn  Zn109  1  0.18466947  0.68831309  0.18397707  1
  Zn  Zn110  1  0.18525691  0.68788379  0.68564196  1
  Zn  Zn111  1  0.69196727  0.18507160  0.18954041  1
  Zn  Zn112  1  0.69136177  0.18736899  0.68649769  1
  Zn  Zn113  1  0.68485810  0.68662349  0.18887871  1
  Zn  Zn114  1  0.68581528  0.68640097  0.68796463  1
  Zn  Zn115  1  0.30976183  0.31188509  0.30948831  1
  Zn  Zn116  1  0.31224386  0.30998260  0.81452094  1
  Zn  Zn117  1  0.31004549  0.82224508  0.31745425  1
  Zn  Zn118  1  0.31230004  0.81298757  0.81410855  1
  Zn  Zn119  1  0.81304441  0.31221863  0.31455931  1
  Zn  Zn120  1  0.81661701  0.31802265  0.81008941  1
  Zn  Zn121  1  0.80991198  0.80613335  0.31445860  1
  Zn  Zn122  1  0.81376614  0.81314751  0.80967943  1
  Zn  Zn123  1  0.18754463  0.43692386  0.43910920  1
  Zn  Zn124  1  0.19041110  0.43708200  0.93452125  1
  Zn  Zn125  1  0.17024704  0.97217520  0.42198177  1
  Zn  Zn126  1  0.19151581  0.94287634  0.93737530  1
  Zn  Zn127  1  0.68351552  0.43984688  0.43360512  1
  Zn  Zn128  1  0.68845313  0.43523691  0.93543057  1
  Zn  Zn129  1  0.68492904  0.93427333  0.43995805  1
  Zn  Zn130  1  0.68749135  0.92911103  0.93874583  1
  Zn  Zn131  1  0.31081021  0.06547188  0.06249882  1
  Zn  Zn132  1  0.31311543  0.06111221  0.56686024  1
  Zn  Zn133  1  0.31146214  0.56200331  0.06062188  1
  Zn  Zn134  1  0.31432621  0.56361064  0.56127148  1
  Zn  Zn135  1  0.80983860  0.06044242  0.06538965  1
  Zn  Zn136  1  0.81511906  0.06275958  0.56797112  1
  Zn  Zn137  1  0.81092453  0.56366636  0.06277852  1
  Zn  Zn138  1  0.81286782  0.55804719  0.56566130  1
  Zn  Zn139  1  0.43149900  0.44149061  0.18670735  1
  Zn  Zn140  1  0.44306969  0.43964369  0.68592704  1
  Zn  Zn141  1  0.43903669  0.94317672  0.19316806  1
  Zn  Zn142  1  0.43534503  0.94165385  0.69284505  1
  Zn  Zn143  1  0.93513963  0.43210016  0.19409595  1
  Zn  Zn144  1  0.93807700  0.43473805  0.69313977  1
  Zn  Zn145  1  0.93618735  0.93816205  0.18425466  1
  Zn  Zn146  1  0.93266363  0.93806478  0.69076974  1
  Zn  Zn147  1  0.06233125  0.06498318  0.31379020  1
  Zn  Zn148  1  0.06056002  0.06180697  0.81112578  1
  Zn  Zn149  1  0.05986836  0.56099133  0.31447376  1
  Zn  Zn150  1  0.06374065  0.56353300  0.81519154  1
  Zn  Zn151  1  0.56445751  0.06170814  0.31128624  1
  Zn  Zn152  1  0.55821191  0.06360773  0.81405921  1
  Zn  Zn153  1  0.55782234  0.56058155  0.30776494  1
  Zn  Zn154  1  0.56375848  0.56206206  0.80645064  1
  Zn  Zn155  1  0.43763754  0.18923600  0.44038590  1
  Zn  Zn156  1  0.44251599  0.18388778  0.94048909  1
  Zn  Zn157  1  0.43414487  0.68939007  0.43813009  1
  Zn  Zn158  1  0.44254155  0.68485993  0.92665547  1
  Zn  Zn159  1  0.93018943  0.18643615  0.43968028  1
  Zn  Zn160  1  0.94028300  0.19378161  0.94071267  1
  Zn  Zn161  1  0.93481798  0.68525445  0.44002581  1
  Zn  Zn162  1  0.94280408  0.68573256  0.93677402  1
  Zn  Zn163  1  0.05982114  0.31271821  0.06618830  1
  Zn  Zn164  1  0.06307636  0.31259434  0.56417387  1
  Zn  Zn165  1  0.05891494  0.81104961  0.05922408  1
  Zn  Zn166  1  0.06077529  0.81290324  0.56189759  1
  Zn  Zn167  1  0.56312592  0.30952207  0.05831788  1
  Zn  Zn168  1  0.56422199  0.31545374  0.55961468  1
  Zn  Zn169  1  0.58189489  0.81480280  0.06070129  1
  Zn  Zn170  1  0.56481056  0.81022748  0.56592093  1
  O  O171  1  0.12460005  0.11643937  0.11674487  1
  O  O172  1  0.10842609  0.12300450  0.61682980  1
  O  O173  1  0.11636002  0.62566867  0.11472604  1
  O  O174  1  0.11647613  0.61883042  0.61853809  1
  O  O175  1  0.62929549  0.10722272  0.13232179  1
  O  O176  1  0.61792256  0.12113904  0.62454046  1
  O  O177  1  0.61163629  0.62114152  0.12511634  1
  O  O178  1  0.61715644  0.61216401  0.62938608  1
  O  O179  1  0.37856270  0.38022221  0.38004504  1
  O  O180  1  0.38434637  0.38105840  0.87855057  1
  O  O181  1  0.38898701  0.87545139  0.38593808  1
  O  O182  1  0.37071378  0.88728606  0.87767305  1
  O  O183  1  0.88465013  0.38764134  0.37090576  1
  O  O184  1  0.88412519  0.38047713  0.88294808  1
  O  O185  1  0.87840702  0.86599152  0.38754986  1
  O  O186  1  0.88222108  0.86709861  0.88585087  1
  O  O187  1  0.26127080  -0.02294280  0.35325917  1
  O  O188  1  0.25876745  0.00665068  0.86717486  1
  O  O189  1  0.25522351  0.50582003  0.37012747  1
  O  O190  1  0.25789465  0.50226687  0.86425132  1
  O  O191  1  0.74317683  0.00553391  0.36836222  1
  O  O192  1  0.74885062  -0.00622360  0.86546300  1
  O  O193  1  0.75561497  0.49446736  0.36319496  1
  O  O194  1  0.74949808  0.50262650  0.86325142  1
  O  O195  1  0.25917724  0.49186367  0.13594191  1
  O  O196  1  0.24696223  0.49417579  0.62906825  1
  O  O197  1  0.24193266  0.99241012  0.13031699  1
  O  O198  1  0.24679412  0.99100369  0.63131919  1
  O  O199  1  0.74629582  0.49179315  0.13483543  1
  O  O200  1  0.73792462  0.50354265  0.63399641  1
  O  O201  1  0.74423190  0.98783171  0.13502003  1
  O  O202  1  0.74300059  0.99591142  0.63094407  1
  O  O203  1  0.00285372  0.37321231  0.26584556  1
  O  O204  1  0.00410715  0.36591023  0.75984114  1
  O  O205  1  -0.00002652  0.87041615  0.25709702  1
  O  O206  1  -0.00673587  0.86939625  0.76325950  1
  O  O207  1  0.49708762  0.38014193  0.26194419  1
  O  O208  1  0.51558314  0.38416071  0.75688472  1
  O  O209  1  0.50316833  0.86928568  0.25988177  1
  O  O210  1  0.50908844  0.86722402  0.74088410  1
  O  O211  1  0.48790478  0.12013325  0.24281197  1
  O  O212  1  0.49102948  0.12197992  0.73595443  1
  O  O213  1  0.49569336  0.63458988  0.24084671  1
  O  O214  1  0.49232846  0.63026059  0.74039824  1
  O  O215  1  0.99010571  0.12382466  0.24988125  1
  O  O216  1  0.99052924  0.12980721  0.74417617  1
  O  O217  1  0.99438853  0.62892493  0.24415961  1
  O  O218  1  1.00340145  0.63044985  0.73877954  1
  O  O219  1  0.37691360  0.26343640  0.00434141  1
  O  O220  1  0.36794965  0.25715636  0.50850698  1
  O  O221  1  0.36885544  0.74342886  0.00061323  1
  O  O222  1  0.36403936  0.76018460  0.49664703  1
  O  O223  1  0.86501149  0.25677336  0.00855782  1
  O  O224  1  0.86014067  0.24881796  0.50622401  1
  O  O225  1  0.88202820  0.75713661  0.01261383  1
  O  O226  1  0.86789617  0.75479252  0.50875904  1
  O  O227  1  0.14082086  0.25070396  0.50314122  1
  O  O228  1  0.12409060  0.23580968  1.00813761  1
  O  O229  1  0.12994459  0.74565387  0.49449926  1
  O  O230  1  0.13172636  0.74247433  0.99955833  1
  O  O231  1  0.63774797  0.25010423  0.49256809  1
  O  O232  1  0.64336644  0.25492479  0.99723754  1
  O  O233  1  0.63339871  0.75303641  0.49210682  1
  O  O234  1  0.62074565  0.75040935  0.97843757  1
  O  O235  1  0.48687434  0.25687586  0.12672532  1
  O  O236  1  0.49200359  0.24288152  0.61617465  1
  O  O237  1  0.49312398  0.74864315  0.12855661  1
  O  O238  1  0.50730614  0.73990381  0.63676487  1
  O  O239  1  0.98471371  0.24949371  0.12892415  1
  O  O240  1  0.99184387  0.24410927  0.62860089  1
  O  O241  1  0.99093929  0.74538143  0.13281752  1
  O  O242  1  0.99294608  0.74313116  0.62901301  1
  O  O243  1  -0.00732974  0.26464944  0.38088431  1
  O  O244  1  -0.00560847  0.26293103  0.86508299  1
  O  O245  1  0.00282779  0.75801480  0.37133016  1
  O  O246  1  0.00288048  0.76030740  0.86693920  1
  O  O247  1  0.51009486  0.25841366  0.38179877  1
  O  O248  1  0.50244808  0.26350204  0.87413914  1
  O  O249  1  0.50519086  0.75494062  0.37081720  1
  O  O250  1  0.51113027  0.74717315  0.85758800  1
  O  O251  1  0.25309540  0.13941678  0.50670632  1
  O  O252  1  0.23476610  0.12713805  0.99960169  1
  O  O253  1  0.24549388  0.63383481  0.49566047  1
  O  O254  1  0.23891759  0.63115041  1.00186413  1
  O  O255  1  0.75098453  0.12309577  0.48956495  1
  O  O256  1  0.74805813  0.13849945  1.00520123  1
  O  O257  1  0.75319764  0.63574956  0.50389805  1
  O  O258  1  0.74594748  0.62696285  1.00051929  1
  O  O259  1  0.26042402  0.37855489  0.00529015  1
  O  O260  1  0.26047700  0.36990035  0.50437685  1
  O  O261  1  0.24469685  0.86849112  0.01231917  1
  O  O262  1  0.25759023  0.86979910  0.50842244  1
  O  O263  1  0.75674115  0.36972897  0.01045310  1
  O  O264  1  0.75001568  0.36625758  0.49548673  1
  O  O265  1  0.75895795  0.87236869  0.01070334  1
  O  O266  1  0.75527008  0.86818856  0.50627349  1
  O  O267  1  0.13674272  0.49719621  0.25561701  1
  O  O268  1  0.13854843  0.50225125  0.74504415  1
  O  O269  1  0.13279480  0.99474093  0.24057288  1
  O  O270  1  0.13972358  1.00691863  0.74850365  1
  O  O271  1  0.63150290  0.49700328  0.24375272  1
  O  O272  1  0.63449833  0.49446502  0.74139104  1
  O  O273  1  0.63518603  0.99169563  0.24499212  1
  O  O274  1  0.63105871  0.99351620  0.74567474  1
  O  O275  1  0.36975110  0.01379117  0.24944757  1
  O  O276  1  0.36472247  0.00934165  0.75471615  1
  O  O277  1  0.36609433  0.50334060  0.26234837  1
  O  O278  1  0.36612966  0.50535024  0.74962072  1
  O  O279  1  0.86259236  0.00523717  0.24567911  1
  O  O280  1  0.86629843  0.01538556  0.74675344  1
  O  O281  1  0.86680347  0.50537751  0.25713473  1
  O  O282  1  0.85683003  0.49345680  0.74818809  1
  O  O283  1  0.10897824  0.38099489  0.37638370  1
  O  O284  1  0.11425806  0.37425343  0.87478695  1
  O  O285  1  0.11339895  0.87414708  0.36794346  1
  O  O286  1  0.11122336  0.87481042  0.87976011  1
  O  O287  1  0.61476710  0.36855520  0.37251877  1
  O  O288  1  0.62012588  0.37249170  0.86226488  1
  O  O289  1  0.61318494  0.86772979  0.37328437  1
  O  O290  1  0.62666285  0.86541394  0.86283456  1
  O  O291  1  0.37673626  0.13400881  0.13192401  1
  O  O292  1  0.38163854  0.13259759  0.63255435  1
  O  O293  1  0.38762640  0.62117653  0.12621865  1
  O  O294  1  0.38285360  0.61965217  0.63532253  1
  O  O295  1  0.87255104  0.13071733  0.13750386  1
  O  O296  1  0.88401176  0.13432976  0.63044967  1
  O  O297  1  0.88266153  0.62986347  0.13376792  1
  O  O298  1  0.88406549  0.63296705  0.62048381  1
  O  O299  1  0.26380250  0.26168439  0.11812794  1
  O  O300  1  0.25871973  0.25741782  0.61887497  1
  O  O301  1  0.25007701  0.75662294  0.11446603  1
  O  O302  1  0.24576645  0.75571518  0.61366249  1
  O  O303  1  0.75760775  0.25588478  0.12120287  1
  O  O304  1  0.75537577  0.24679012  0.60882678  1
  O  O305  1  0.75837623  0.76120272  0.13550234  1
  O  O306  1  0.75565696  0.75418009  0.62164048  1
  O  O307  1  0.25604713  0.25326227  0.39189626  1
  O  O308  1  0.25011770  0.24605389  0.87864227  1
  O  O309  1  0.24293280  0.74987553  0.38450491  1
  O  O310  1  0.24757682  0.74925196  0.88780096  1
  O  O311  1  0.74666655  0.24361651  0.38622214  1
  O  O312  1  0.75456423  0.25644769  0.88896999  1
  O  O313  1  0.73794483  0.75088270  0.38488135  1
  O  O314  1  0.73451700  0.74786296  0.86167776  1
  O  O315  1  0.00809398  0.12442362  0.00418092  1
  O  O316  1  -0.00472593  0.11542916  0.50468368  1
  O  O317  1  0.01346817  0.62776912  0.01068895  1
  O  O318  1  0.00335040  0.61516415  0.50815318  1
  O  O319  1  0.51428481  0.13539093  0.00889021  1
  O  O320  1  0.49988788  0.11866719  0.51060496  1
  O  O321  1  0.50361099  0.61974553  0.00471302  1
  O  O322  1  0.49209940  0.62524143  0.51389259  1
  O  O323  1  0.48847627  0.37799306  0.49128154  1
  O  O324  1  0.49564695  0.38153760  0.99091034  1
  O  O325  1  0.49449020  0.87853242  0.49869613  1
  O  O326  1  0.48302820  0.85730250  1.01502663  1
  O  O327  1  1.00307197  0.38665898  0.49345699  1
  O  O328  1  0.99368715  0.36735319  0.98798286  1
  O  O329  1  0.98783870  0.87448287  0.49342022  1
  O  O330  1  0.99256523  0.87689510  0.98742704  1
  O  O331  1  0.49091762  0.49456582  0.37702281  1
  O  O332  1  0.49659495  0.49527769  0.87742467  1
  O  O333  1  0.50082789  0.99205240  0.38298147  1
  O  O334  1  0.48263416  0.99847056  0.86835442  1
  O  O335  1  0.99219083  0.49336787  0.38367908  1
  O  O336  1  1.00092222  0.48199925  0.86686588  1
  O  O337  1  0.99368304  0.98535936  0.38181953  1
  O  O338  1  0.99778322  0.98670949  0.87349898  1
  O  O339  1  0.01315915  -0.00047786  0.12421003  1
  O  O340  1  -0.00466073  0.00743392  0.62182241  1
  O  O341  1  -0.00445002  0.50885353  0.13287959  1
  O  O342  1  0.00107315  0.50471552  0.62154300  1
  O  O343  1  0.51971433  -0.00539767  0.12982543  1
  O  O344  1  0.50597704  0.00750122  0.62178375  1
  O  O345  1  0.50395983  0.50690078  0.11945382  1
  O  O346  1  0.51123759  0.50908931  0.62236248  1
  O  O347  1  0.25030845  0.38386092  0.24170094  1
  O  O348  1  0.25108470  0.38332855  0.74296129  1
  O  O349  1  0.24482390  0.87637708  0.23599253  1
  O  O350  1  0.25659782  0.88275499  0.73982853  1
  O  O351  1  0.75029685  0.38051340  0.23950830  1
  O  O352  1  0.73697091  0.38590777  0.75324289  1
  O  O353  1  0.74783760  0.87995675  0.24784546  1
  O  O354  1  0.74530262  0.88416372  0.74412891  1
  O  O355  1  0.26087233  0.11452131  0.24341837  1
  O  O356  1  0.25903329  0.11833109  0.74587509  1
  O  O357  1  0.24894841  0.62095742  0.25517466  1
  O  O358  1  0.25677804  0.62018128  0.74827415  1
  O  O359  1  0.75516888  0.11617645  0.26171493  1
  O  O360  1  0.76358169  0.11997620  0.74644879  1
  O  O361  1  0.75904370  0.61474197  0.24396144  1
  O  O362  1  0.74684352  0.61184970  0.75214567  1
  O  O363  1  0.38078891  0.12534082  0.36078825  1
  O  O364  1  0.37776878  0.12690414  0.86142030  1
  O  O365  1  0.36681527  0.61822539  0.37386997  1
  O  O366  1  0.37368159  0.61736163  0.86106218  1
  O  O367  1  0.86601481  0.12595095  0.36474928  1
  O  O368  1  0.88052728  0.13013980  0.86123072  1
  O  O369  1  0.88198402  0.61436817  0.36276577  1
  O  O370  1  0.87977139  0.61979865  0.87573766  1
  O  O371  1  0.13891815  0.37488659  0.12225282  1
  O  O372  1  0.13137631  0.38180325  0.62939819  1
  O  O373  1  0.12946585  0.88031214  0.12859187  1
  O  O374  1  0.13607524  0.87280133  0.62585830  1
  O  O375  1  0.63234906  0.37969563  0.12618128  1
  O  O376  1  0.61833026  0.38844335  0.63520795  1
  O  O377  1  0.63567059  0.87967747  0.13424541  1
  O  O378  1  0.63140277  0.87946944  0.63515642  1
  O  O379  1  0.12355144  0.25235537  0.24707432  1
  O  O380  1  0.11053859  0.24591290  0.74171432  1
  O  O381  1  0.11857416  0.75674803  0.25542834  1
  O  O382  1  0.11000733  0.74745992  0.74955546  1
  O  O383  1  0.63350513  0.25117284  0.26467727  1
  O  O384  1  0.63240129  0.26720732  0.74418548  1
  O  O385  1  0.61425787  0.75455284  0.25773272  1
  O  O386  1  0.61893153  0.75777449  0.75414772  1
  O  O387  1  0.36915570  0.23717240  0.24339855  1
  O  O388  1  0.37357052  0.24524520  0.73680111  1
  O  O389  1  0.38619147  0.75181093  0.25901163  1
  O  O390  1  0.38219409  0.74179756  0.75313831  1
  O  O391  1  0.87433956  0.24038641  0.24506205  1
  O  O392  1  0.87918444  0.24156183  0.74305514  1
  O  O393  1  0.87824057  0.74065050  0.24504553  1
  O  O394  1  0.88457139  0.75497045  0.73618434  1
  O  O395  1  0.37339422  0.49240593  0.48838054  1
  O  O396  1  0.38184984  0.49165326  0.99307666  1
  O  O397  1  0.38150526  0.99333901  0.49913375  1
  O  O398  1  0.37134551  1.00692844  0.98584917  1
  O  O399  1  0.88186593  0.50404371  0.49143705  1
  O  O400  1  0.87354832  0.48502637  1.00426287  1
  O  O401  1  0.88253421  0.98739611  0.50641956  1
  O  O402  1  0.87711071  0.98614077  1.00956319  1
  O  O403  1  0.12243717  0.00898457  0.00630648  1
  O  O404  1  0.10029949  -0.01677498  0.51259403  1
  O  O405  1  0.13017323  0.51292048  -0.00139665  1
  O  O406  1  0.11741886  0.50544620  0.50657453  1
  O  O407  1  0.63427435  -0.00389843  0.01675647  1
  O  O408  1  0.61784869  0.00070690  0.50936312  1
  O  O409  1  0.61895509  0.49936562  0.00600869  1
  O  O410  1  0.62509934  0.49547863  0.51487943  1
  O  O411  1  0.37033379  0.37272583  0.11604060  1
  O  O412  1  0.37445608  0.37012315  0.61764407  1
  O  O413  1  0.36827627  0.87303180  0.12775257  1
  O  O414  1  0.36894418  0.87943020  0.61609052  1
  O  O415  1  0.86836056  0.36740743  0.12179004  1
  O  O416  1  0.87891692  0.36034428  0.62900424  1
  O  O417  1  0.87053343  0.86567435  0.11994259  1
  O  O418  1  0.87007954  0.86667288  0.61643186  1
  O  O419  1  0.13699258  0.08230944  0.39244855  1
  O  O420  1  0.12200994  0.12068663  0.88953579  1
  O  O421  1  0.12844134  0.63166618  0.38132731  1
  O  O422  1  0.12549152  0.62831020  0.88860799  1
  O  O423  1  0.63174298  0.13125097  0.37793905  1
  O  O424  1  0.62944680  0.12859047  0.86733819  1
  O  O425  1  0.61736011  0.63360345  0.37355140  1
  O  O426  1  0.62394052  0.63792822  0.87158786  1
