# generated using pymatgen
data_V85Zn86O256
_symmetry_space_group_name_H-M   'P 1'
_cell_length_a   16.93671593
_cell_length_b   16.94338638
_cell_length_c   16.95000957
_cell_angle_alpha   89.98510756
_cell_angle_beta   90.03349180
_cell_angle_gamma   90.03618830
_symmetry_Int_Tables_number   1
_chemical_formula_structural   V85Zn86O256
_chemical_formula_sum   'V85 Zn86 O256'
_cell_volume   4864.06298686
_cell_formula_units_Z   1
loop_
 _symmetry_equiv_pos_site_id
 _symmetry_equiv_pos_as_xyz
  1  'x, y, z'
loop_
 _atom_site_type_symbol
 _atom_site_label
 _atom_site_symmetry_multiplicity
 _atom_site_fract_x
 _atom_site_fract_y
 _atom_site_fract_z
 _atom_site_occupancy
  V  V0  1  0.36497189  0.61856544  0.75069774  1
  V  V1  1  0.12891246  -0.00100535  0.13890823  1
  V  V2  1  0.00550112  0.75710485  0.25193153  1
  V  V3  1  0.74990174  0.62446894  0.37848761  1
  V  V4  1  0.87334457  0.00222917  0.37213405  1
  V  V5  1  0.37096631  0.75015212  0.12229343  1
  V  V6  1  0.75105233  0.74568209  0.50109733  1
  V  V7  1  0.87614364  0.63429836  0.24839978  1
  V  V8  1  0.00248961  0.50364038  -0.00055209  1
  V  V9  1  0.53062073  0.35310106  0.89938653  1
  V  V10  1  0.36956895  0.37029536  -0.00403714  1
  V  V11  1  0.36521115  0.87381622  -0.00116943  1
  V  V12  1  0.74716056  0.87241993  0.62740647  1
  V  V13  1  0.62634784  0.49968660  0.12337757  1
  V  V14  1  0.88769278  0.90595132  0.52111964  1
  V  V15  1  0.11639594  0.11568313  0.51792514  1
  V  V16  1  0.12894956  0.38871090  0.74956560  1
  V  V17  1  0.63112219  0.74286390  0.87387133  1
  V  V18  1  0.49932114  0.37910651  0.37864362  1
  V  V19  1  0.62425942  0.11565303  0.49010874  1
  V  V20  1  0.87665424  0.37278258  0.49946072  1
  V  V21  1  0.25036833  0.12133102  0.36437795  1
  V  V22  1  0.63501644  0.61921888  -0.00637722  1
  V  V23  1  0.25282265  0.12286645  0.87497361  1
  V  V24  1  0.00338397  0.87999866  0.37732893  1
  V  V25  1  0.61892293  0.37411202  0.74068070  1
  V  V26  1  0.25153915  0.50037784  0.25240617  1
  V  V27  1  -0.00125705  0.12356669  0.12135912  1
  V  V28  1  0.86641894  0.50091761  0.87769825  1
  V  V29  1  0.62604058  0.37216419  0.25157801  1
  V  V30  1  0.92160064  0.80763419  0.06638544  1
  V  V31  1  0.87866849  0.50226940  0.37483798  1
  V  V32  1  0.49985194  0.11448554  0.62034048  1
  V  V33  1  0.12824323  0.62367142  0.50874708  1
  V  V34  1  0.49989885  0.74353844  0.75148508  1
  V  V35  1  0.24021938  0.88201527  0.62844092  1
  V  V36  1  0.50172184  0.24840077  0.74830429  1
  V  V37  1  0.50139557  0.62105691  0.61277934  1
  V  V38  1  0.73908693  0.14164066  0.88872272  1
  V  V39  1  0.87771972  0.74146509  0.62368025  1
  V  V40  1  0.62726988  0.87247922  0.24678435  1
  V  V41  1  0.74999377  0.37100502  0.62142934  1
  V  V42  1  0.25135042  0.87966185  0.14576885  1
  V  V43  1  0.12703240  0.50432778  0.12100223  1
  V  V44  1  0.87919503  -0.01083437  0.88276733  1
  V  V45  1  0.00391590  0.24849298  0.74488557  1
  V  V46  1  0.37229459  0.24819236  0.62275486  1
  V  V47  1  0.00239748  0.37503779  0.87458613  1
  V  V48  1  0.12263102  0.12117074  -0.00041497  1
  V  V49  1  0.12460981  0.75323229  0.88445354  1
  V  V50  1  0.62268162  0.87301633  0.75125019  1
  V  V51  1  0.62621578  0.74453073  0.37729583  1
  V  V52  1  0.00129355  0.25120854  0.24735527  1
  V  V53  1  0.49819840  0.87259483  0.87686378  1
  V  V54  1  0.74323799  0.00561721  0.25111553  1
  V  V55  1  0.75262621  0.36722056  0.12322738  1
  V  V56  1  0.25051739  0.24644257  0.00673150  1
  V  V57  1  0.49600787  0.49995972  -0.00437603  1
  V  V58  1  0.62439969  0.00896087  0.12058090  1
  V  V59  1  0.00078407  0.62677321  0.12451636  1
  V  V60  1  0.74518636  0.50058065  0.75163696  1
  V  V61  1  0.50353833  0.00467648  -0.00319702  1
  V  V62  1  0.37912433  0.88757700  0.50108081  1
  V  V63  1  0.75085694  0.75350886  0.00332130  1
  V  V64  1  0.24996807  0.75504293  0.49953375  1
  V  V65  1  0.87579291  0.36683303  0.00009603  1
  V  V66  1  0.87452149  0.62158291  0.75249183  1
  V  V67  1  0.74773861  0.00342131  0.75644055  1
  V  V68  1  0.74925750  0.24261773  0.48944445  1
  V  V69  1  0.00524810  0.37593218  0.37515527  1
  V  V70  1  0.25271692  0.37243338  0.12682093  1
  V  V71  1  0.24949203  0.62657414  0.37412692  1
  V  V72  1  0.62121262  0.50385989  0.60756317  1
  V  V73  1  0.75289332  0.50054676  0.24944876  1
  V  V74  1  0.50061612  0.62742123  0.12360277  1
  V  V75  1  0.48494977  0.25110046  0.24445923  1
  V  V76  1  0.48619518  0.12819030  0.12377499  1
  V  V77  1  0.37684482  0.38117075  0.50117286  1
  V  V78  1  0.00640430  0.49986221  0.50803927  1
  V  V79  1  0.87637671  0.12826888  0.75230063  1
  V  V80  1  0.24402070  0.62428654  0.89248603  1
  V  V81  1  0.86944159  0.12866411  0.25302118  1
  V  V82  1  0.37585845  0.75104508  0.62518300  1
  V  V83  1  0.24793648  0.38761266  0.63022921  1
  V  V84  1  0.50541123  0.88158018  0.38193984  1
  Zn  Zn85  1  0.24633268  0.24734391  0.49885776  1
  Zn  Zn86  1  0.87890083  0.24614185  0.62245382  1
  Zn  Zn87  1  0.37641642  0.62576221  0.24994686  1
  Zn  Zn88  1  0.37493567  0.12216906  0.74902762  1
  Zn  Zn89  1  -0.00006001  0.75621863  0.75572802  1
  Zn  Zn90  1  0.62361727  0.24175803  0.37011031  1
  Zn  Zn91  1  0.11292777  0.88158390  0.75834306  1
  Zn  Zn92  1  0.12874176  0.75953896  0.37110587  1
  Zn  Zn93  1  0.24409387  0.00778042  0.74316937  1
  Zn  Zn94  1  0.36829339  0.49267965  0.86885260  1
  Zn  Zn95  1  0.87084881  0.24459270  0.11851093  1
  Zn  Zn96  1  0.36707311  0.00273346  0.36224705  1
  Zn  Zn97  1  0.12382803  0.24439801  0.38118951  1
  Zn  Zn98  1  -0.00185299  -0.01800394  0.00074940  1
  Zn  Zn99  1  0.50217857  0.74758360  0.25079771  1
  Zn  Zn100  1  0.62251927  -0.00137717  0.62374815  1
  Zn  Zn101  1  0.12661482  0.37411827  0.25105200  1
  Zn  Zn102  1  0.37437736  -0.00070018  0.87188589  1
  Zn  Zn103  1  0.75301113  0.87508724  0.12132075  1
  Zn  Zn104  1  0.12578269  0.25181319  0.87518702  1
  Zn  Zn105  1  0.00845492  0.62044980  0.63117040  1
  Zn  Zn106  1  0.37999149  0.50449866  0.37944555  1
  Zn  Zn107  1  0.18658152  0.18671177  0.18960576  1
  Zn  Zn108  1  0.18577482  0.19178342  0.68809994  1
  Zn  Zn109  1  0.18778909  0.68974927  0.18542478  1
  Zn  Zn110  1  0.18606482  0.69654541  0.69159593  1
  Zn  Zn111  1  0.68309589  0.18687589  0.18458312  1
  Zn  Zn112  1  0.68623800  0.18496814  0.68587957  1
  Zn  Zn113  1  0.68937443  0.68817042  0.18501040  1
  Zn  Zn114  1  0.68631995  0.68084471  0.68662881  1
  Zn  Zn115  1  0.31025819  0.31005263  0.31718427  1
  Zn  Zn116  1  0.31273339  0.30740565  0.81282911  1
  Zn  Zn117  1  0.32215370  0.81022217  0.31453558  1
  Zn  Zn118  1  0.30782755  0.80736663  0.81254822  1
  Zn  Zn119  1  0.81564132  0.31182458  0.31262616  1
  Zn  Zn120  1  0.81160723  0.31364945  0.81204181  1
  Zn  Zn121  1  0.81519337  0.81764511  0.31497372  1
  Zn  Zn122  1  0.81224525  0.80973819  0.81346103  1
  Zn  Zn123  1  0.18957707  0.43680143  0.44177097  1
  Zn  Zn124  1  0.18828856  0.44221605  0.93522512  1
  Zn  Zn125  1  0.18560527  0.94748559  0.44053933  1
  Zn  Zn126  1  0.18532045  0.93978019  0.94068652  1
  Zn  Zn127  1  0.68897187  0.43376813  0.43403745  1
  Zn  Zn128  1  0.68555773  0.41907658  0.93975594  1
  Zn  Zn129  1  0.69280208  0.93531273  0.43801703  1
  Zn  Zn130  1  0.68756377  0.93666496  0.93639437  1
  Zn  Zn131  1  0.31323486  0.05668402  0.06261036  1
  Zn  Zn132  1  0.30701368  0.06578903  0.55449108  1
  Zn  Zn133  1  0.31520895  0.55996971  0.06263826  1
  Zn  Zn134  1  0.31512944  0.56352980  0.56258157  1
  Zn  Zn135  1  0.81011400  0.06250032  0.06057340  1
  Zn  Zn136  1  0.81794461  0.06143382  0.57124011  1
  Zn  Zn137  1  0.81507541  0.56149822  0.06397040  1
  Zn  Zn138  1  0.81138175  0.55896561  0.56149267  1
  Zn  Zn139  1  0.43498137  0.43769652  0.18591187  1
  Zn  Zn140  1  0.43846756  0.43833167  0.68518406  1
  Zn  Zn141  1  0.44081288  0.93680696  0.18933402  1
  Zn  Zn142  1  0.43012601  0.93760203  0.69173339  1
  Zn  Zn143  1  0.93723253  0.43910746  0.18766841  1
  Zn  Zn144  1  0.93731721  0.43391265  0.68852969  1
  Zn  Zn145  1  0.94250801  0.94497655  0.19390214  1
  Zn  Zn146  1  0.93609091  0.93984856  0.69253157  1
  Zn  Zn147  1  0.06067547  0.06592046  0.31965274  1
  Zn  Zn148  1  0.06201264  0.05896073  0.81134360  1
  Zn  Zn149  1  0.06719302  0.56511143  0.31386878  1
  Zn  Zn150  1  0.06271960  0.56578515  0.81563482  1
  Zn  Zn151  1  0.53479718  0.05270715  0.30280277  1
  Zn  Zn152  1  0.56406953  0.06480047  0.81313705  1
  Zn  Zn153  1  0.56396432  0.56132567  0.31195961  1
  Zn  Zn154  1  0.55884453  0.55676122  0.80984355  1
  Zn  Zn155  1  0.43606965  0.18942511  0.43641975  1
  Zn  Zn156  1  0.43571705  0.18664252  0.94138461  1
  Zn  Zn157  1  0.43507829  0.69266705  0.43582655  1
  Zn  Zn158  1  0.43490263  0.68750831  0.93724560  1
  Zn  Zn159  1  0.94108427  0.18595747  0.43775389  1
  Zn  Zn160  1  0.93598725  0.18401448  0.92970251  1
  Zn  Zn161  1  0.93992686  0.68951650  0.43825437  1
  Zn  Zn162  1  0.94104340  0.68084000  0.93134972  1
  Zn  Zn163  1  0.06525456  0.31310356  0.06344550  1
  Zn  Zn164  1  0.06752805  0.30895932  0.56440038  1
  Zn  Zn165  1  0.08967477  0.80804627  0.06240903  1
  Zn  Zn166  1  0.06034516  0.80984708  0.56331405  1
  Zn  Zn167  1  0.56269271  0.31200119  0.06792190  1
  Zn  Zn168  1  0.56159408  0.30505600  0.55881940  1
  Zn  Zn169  1  0.56308599  0.81390406  0.06008261  1
  Zn  Zn170  1  0.56370661  0.80650709  0.56202024  1
  O  O171  1  0.11952737  0.11959096  0.11783451  1
  O  O172  1  0.12418971  0.12774188  0.61858540  1
  O  O173  1  0.11176660  0.61892122  0.13019054  1
  O  O174  1  0.12779015  0.63064411  0.61297293  1
  O  O175  1  0.61738488  0.11277031  0.12545739  1
  O  O176  1  0.61560252  0.12264567  0.61662917  1
  O  O177  1  0.61904174  0.61880565  0.11678642  1
  O  O178  1  0.61465086  0.61602797  0.62488513  1
  O  O179  1  0.38102469  0.37695134  0.38369132  1
  O  O180  1  0.37406310  0.37478765  0.88656564  1
  O  O181  1  0.38769347  0.87756943  0.38236891  1
  O  O182  1  0.37823934  0.87102256  0.88324282  1
  O  O183  1  0.88673055  0.38041233  0.37925133  1
  O  O184  1  0.88017146  0.38394172  0.88132433  1
  O  O185  1  0.88152201  0.88564479  0.38467624  1
  O  O186  1  0.86977568  0.89043842  0.87109518  1
  O  O187  1  0.25156715  0.01297828  0.37373119  1
  O  O188  1  0.25233773  0.01596205  0.88551967  1
  O  O189  1  0.25074616  0.50713969  0.36770841  1
  O  O190  1  0.25222587  0.51661752  0.87672381  1
  O  O191  1  0.74967629  -0.00603539  0.35466813  1
  O  O192  1  0.75475136  0.00246282  0.86726507  1
  O  O193  1  0.75653308  0.50452412  0.36838569  1
  O  O194  1  0.75636769  0.48869033  0.86525471  1
  O  O195  1  0.24314743  0.49713895  0.13033624  1
  O  O196  1  0.25629558  0.48615156  0.62638204  1
  O  O197  1  0.24551975  0.98873769  0.12705759  1
  O  O198  1  0.25616003  0.98418507  0.62241364  1
  O  O199  1  0.74670204  0.49286696  0.13219681  1
  O  O200  1  0.74366254  0.48879651  0.62868538  1
  O  O201  1  0.74154265  0.99768962  0.13097558  1
  O  O202  1  0.74991031  0.98867667  0.64044766  1
  O  O203  1  -0.00003130  0.36961162  0.25693253  1
  O  O204  1  0.00662490  0.37105474  0.75640207  1
  O  O205  1  -0.00800926  0.86700694  0.26194170  1
  O  O206  1  -0.00055517  0.86972622  0.74355931  1
  O  O207  1  0.50723552  0.36790703  0.24913871  1
  O  O208  1  0.50603337  0.36712821  0.75017491  1
  O  O209  1  0.51605070  0.86888285  0.26012912  1
  O  O210  1  0.50326940  0.86508585  0.75545653  1
  O  O211  1  0.50889220  0.14712459  0.24016131  1
  O  O212  1  0.49967725  0.13254162  0.74137729  1
  O  O213  1  0.50079967  0.62265163  0.23477108  1
  O  O214  1  0.49197443  0.62965023  0.74546897  1
  O  O215  1  0.99305938  0.13269962  0.24018784  1
  O  O216  1  0.98998142  0.13670332  0.76163016  1
  O  O217  1  0.99446536  0.63184883  0.24543264  1
  O  O218  1  0.98530468  0.62058565  0.74812475  1
  O  O219  1  0.36490113  0.25928239  0.00162842  1
  O  O220  1  0.37361064  0.26179415  0.50803782  1
  O  O221  1  0.38230421  0.75892216  0.01369168  1
  O  O222  1  0.36243298  0.75613808  0.50358664  1
  O  O223  1  0.88308763  0.26367063  -0.00069985  1
  O  O224  1  0.86782354  0.25334850  0.50088783  1
  O  O225  1  0.86854522  0.74543950  -0.00341191  1
  O  O226  1  0.86514287  0.74631011  0.50909427  1
  O  O227  1  0.12743597  0.24170300  0.49930426  1
  O  O228  1  0.13193536  0.24166730  1.00009563  1
  O  O229  1  0.13643080  0.74447313  0.49657771  1
  O  O230  1  0.13082723  0.73998632  0.98487323  1
  O  O231  1  0.63292020  0.24000138  0.49440900  1
  O  O232  1  0.61013335  0.32033711  0.96665134  1
  O  O233  1  0.64159014  0.75421975  0.49208505  1
  O  O234  1  0.63120911  0.73990655  0.99341863  1
  O  O235  1  0.50353671  0.24468086  0.13391676  1
  O  O236  1  0.49009051  0.24364614  0.63034617  1
  O  O237  1  0.49679753  0.74083479  0.12432399  1
  O  O238  1  0.49600993  0.74155923  0.63243453  1
  O  O239  1  0.99766744  0.24377849  0.13114774  1
  O  O240  1  0.99616952  0.26067423  0.64098270  1
  O  O241  1  0.99729263  0.74654956  0.12739374  1
  O  O242  1  0.98835568  0.74073891  0.62464854  1
  O  O243  1  -0.00041341  0.26011417  0.36572312  1
  O  O244  1  0.00141785  0.25976323  0.86785106  1
  O  O245  1  0.00113019  0.75878168  0.36770254  1
  O  O246  1  0.01872723  0.73802645  0.87361610  1
  O  O247  1  0.50012030  0.25967155  0.36027773  1
  O  O248  1  0.49560704  0.25782149  0.86725810  1
  O  O249  1  0.51139127  0.75336336  0.37328460  1
  O  O250  1  0.50978510  0.75151921  0.87156427  1
  O  O251  1  0.23519245  0.12822422  0.49436409  1
  O  O252  1  0.24298602  0.13083959  1.00148124  1
  O  O253  1  0.24721034  0.63194387  0.49465535  1
  O  O254  1  0.25503429  0.62625770  0.99083015  1
  O  O255  1  0.73713688  0.13455385  0.51022371  1
  O  O256  1  0.75125962  0.12823702  0.98855251  1
  O  O257  1  0.75526396  0.63182301  0.49014630  1
  O  O258  1  0.73898297  0.62781151  1.00428577  1
  O  O259  1  0.25141532  0.36837303  0.00557192  1
  O  O260  1  0.25588997  0.37210692  0.51294921  1
  O  O261  1  0.26373139  0.88104527  0.00961027  1
  O  O262  1  0.25642842  0.87056485  0.50549358  1
  O  O263  1  0.76471722  0.38371446  0.01257178  1
  O  O264  1  0.75562157  0.36709067  0.50405792  1
  O  O265  1  0.74496612  0.86045277  0.00137656  1
  O  O266  1  0.76256596  0.87035626  0.51208605  1
  O  O267  1  0.13542675  0.49978779  0.24122065  1
  O  O268  1  0.11717714  0.48786043  0.75017302  1
  O  O269  1  0.11627227  1.00587930  0.23698968  1
  O  O270  1  0.13319213  0.99361644  0.75974225  1
  O  O271  1  0.63102041  0.48972421  0.24444295  1
  O  O272  1  0.63095332  0.49685260  0.73605215  1
  O  O273  1  0.62701280  0.99409770  0.24123855  1
  O  O274  1  0.63137308  0.99144920  0.74864029  1
  O  O275  1  0.42892756  0.01113534  0.26966016  1
  O  O276  1  0.36401495  0.00415468  0.75495630  1
  O  O277  1  0.36201172  0.50319292  0.24935778  1
  O  O278  1  0.38370286  0.51457696  0.75334670  1
  O  O279  1  0.86444264  0.00861576  0.25430889  1
  O  O280  1  0.86655649  0.00930078  0.76184634  1
  O  O281  1  0.87296250  0.51003761  0.25611486  1
  O  O282  1  0.86669909  0.50070254  0.75714899  1
  O  O283  1  0.11436757  0.37556930  0.37370504  1
  O  O284  1  0.12051679  0.37560461  0.86875525  1
  O  O285  1  0.10800641  0.87810215  0.38578742  1
  O  O286  1  0.13543373  0.85803743  0.87949734  1
  O  O287  1  0.61812881  0.37226989  0.36657063  1
  O  O288  1  0.62380374  0.39205316  0.84555129  1
  O  O289  1  0.62783675  0.86105985  0.37010018  1
  O  O290  1  0.61870679  0.86392419  0.86959972  1
  O  O291  1  0.38672634  0.12120115  0.12301025  1
  O  O292  1  0.38125988  0.13221416  0.62098371  1
  O  O293  1  0.38212347  0.63310642  0.12356532  1
  O  O294  1  0.38007253  0.62930938  0.63456041  1
  O  O295  1  0.88193462  0.12458102  0.13225331  1
  O  O296  1  0.86666901  0.13183523  0.64667732  1
  O  O297  1  0.88858509  0.61839258  0.13553082  1
  O  O298  1  0.87239804  0.62862601  0.63277533  1
  O  O299  1  0.24312924  0.25861000  0.11623677  1
  O  O300  1  0.26410744  0.25686963  0.62740752  1
  O  O301  1  0.25782399  0.76495103  0.13042845  1
  O  O302  1  0.25649377  0.75823691  0.61644561  1
  O  O303  1  0.75049206  0.26294563  0.12701392  1
  O  O304  1  0.74786743  0.26199371  0.61813385  1
  O  O305  1  0.74978389  0.75056269  0.11091571  1
  O  O306  1  0.75162387  0.75118194  0.61911365  1
  O  O307  1  0.24468259  0.24199501  0.37765251  1
  O  O308  1  0.24827580  0.24039948  0.88872603  1
  O  O309  1  0.25003819  0.74567708  0.38062506  1
  O  O310  1  0.24171499  0.73306704  0.86937532  1
  O  O311  1  0.74792897  0.25347752  0.38570350  1
  O  O312  1  0.74969628  0.24127718  0.87335834  1
  O  O313  1  0.74791614  0.74586687  0.38210335  1
  O  O314  1  0.73752421  0.74921437  0.88172667  1
  O  O315  1  0.00508516  0.12958563  0.01069007  1
  O  O316  1  0.01591220  0.12846072  0.49616120  1
  O  O317  1  -0.00649239  0.61132369  0.00943185  1
  O  O318  1  0.01058403  0.61707525  0.49892674  1
  O  O319  1  0.49886487  0.11695518  0.00763780  1
  O  O320  1  0.51399002  0.13232652  0.50753997  1
  O  O321  1  0.50626230  0.61756591  0.00656986  1
  O  O322  1  0.49111810  0.62980368  0.51359854  1
  O  O323  1  0.49295193  0.36801832  0.48917556  1
  O  O324  1  0.48422752  0.38217883  1.00454050  1
  O  O325  1  0.48934634  0.86150567  0.49458105  1
  O  O326  1  0.49269751  0.88033202  0.99351905  1
  O  O327  1  0.99848598  0.38097281  0.49388243  1
  O  O328  1  0.99507907  0.38570940  0.99829125  1
  O  O329  1  0.98448878  0.86749131  0.49581338  1
  O  O330  1  0.99590907  0.86362733  1.01636738  1
  O  O331  1  0.49772533  0.48462048  0.36520114  1
  O  O332  1  0.50282093  0.48483164  0.88820994  1
  O  O333  1  0.52478978  0.97883069  0.39310253  1
  O  O334  1  0.49927094  0.99358891  0.88071815  1
  O  O335  1  0.99793295  0.49477514  0.38107773  1
  O  O336  1  0.99310741  0.49624415  0.88426950  1
  O  O337  1  0.98514356  0.99358355  0.36854296  1
  O  O338  1  0.98345702  1.00525145  0.88238833  1
  O  O339  1  0.00551443  0.00851171  0.12102117  1
  O  O340  1  -0.08037872  -0.01669735  0.58932777  1
  O  O341  1  0.00766066  0.50592440  0.12110324  1
  O  O342  1  -0.00591666  0.50062890  0.61124242  1
  O  O343  1  0.50647691  0.00731880  0.11595767  1
  O  O344  1  0.49916028  0.01137850  0.62977317  1
  O  O345  1  0.50374891  0.50514040  0.11419831  1
  O  O346  1  0.50965531  0.50789259  0.62581653  1
  O  O347  1  0.24930700  0.38182856  0.24357097  1
  O  O348  1  0.24513540  0.37144406  0.74016730  1
  O  O349  1  0.25958896  0.87888822  0.24430306  1
  O  O350  1  0.25210483  0.87132892  0.73274523  1
  O  O351  1  0.74604550  0.38021177  0.24555760  1
  O  O352  1  0.74439953  0.38138796  0.73884329  1
  O  O353  1  0.74055183  0.87991978  0.24579578  1
  O  O354  1  0.74319091  0.87843828  0.74579363  1
  O  O355  1  0.24999366  0.12988584  0.26405337  1
  O  O356  1  0.25125044  0.13069938  0.76270366  1
  O  O357  1  0.24966186  0.61943469  0.25730883  1
  O  O358  1  0.26437339  0.62637458  0.74587835  1
  O  O359  1  0.75717444  0.11934141  0.24300032  1
  O  O360  1  0.75241626  0.11790349  0.75679427  1
  O  O361  1  0.75882579  0.62166120  0.25458874  1
  O  O362  1  0.75787375  0.60826020  0.74525401  1
  O  O363  1  0.35659223  0.12458444  0.38726852  1
  O  O364  1  0.36610536  0.12477988  0.87476955  1
  O  O365  1  0.36385900  0.62448779  0.37292293  1
  O  O366  1  0.36592212  0.62570707  0.86522022  1
  O  O367  1  0.87983537  0.12107328  0.35950266  1
  O  O368  1  0.86146738  0.11873152  0.86809019  1
  O  O369  1  0.87163549  0.62079315  0.36798096  1
  O  O370  1  0.87340930  0.60977440  0.86828726  1
  O  O371  1  0.13563845  0.38464377  0.12716015  1
  O  O372  1  0.14110514  0.37257289  0.63213121  1
  O  O373  1  0.14337510  0.88174096  0.12878537  1
  O  O374  1  0.13903531  0.86983112  0.62180851  1
  O  O375  1  0.63382001  0.38152600  0.13239204  1
  O  O376  1  0.62853223  0.38084546  0.62573522  1
  O  O377  1  0.62335132  0.88349764  0.13296887  1
  O  O378  1  0.63387593  0.87281570  0.62979239  1
  O  O379  1  0.11084935  0.25283847  0.25043814  1
  O  O380  1  0.11794274  0.26026768  0.75462818  1
  O  O381  1  0.10986111  0.74693466  0.25127844  1
  O  O382  1  0.12176209  0.75497539  0.76214629  1
  O  O383  1  0.62424669  0.26299772  0.25038057  1
  O  O384  1  0.61147616  0.25909286  0.73929726  1
  O  O385  1  0.62797027  0.75618232  0.25633077  1
  O  O386  1  0.62144901  0.74975892  0.75737361  1
  O  O387  1  0.38679349  0.25939161  0.24509389  1
  O  O388  1  0.38650542  0.24876997  0.74231807  1
  O  O389  1  0.38205283  0.74701425  0.23729433  1
  O  O390  1  0.38109514  0.73944226  0.74581568  1
  O  O391  1  0.88318272  0.24467695  0.24605958  1
  O  O392  1  0.88289550  0.24547510  0.75204049  1
  O  O393  1  0.88278946  0.73971677  0.25522703  1
  O  O394  1  0.87170751  0.73624372  0.74537019  1
  O  O395  1  0.37289203  0.48659525  0.49909730  1
  O  O396  1  0.38165793  0.49363772  0.99529594  1
  O  O397  1  0.37501840  0.98891882  0.49631540  1
  O  O398  1  0.38736981  0.99049766  0.99809564  1
  O  O399  1  0.88225952  0.49337142  0.49263075  1
  O  O400  1  0.88129341  0.49357409  0.99362443  1
  O  O401  1  0.84190914  1.00336769  0.47308570  1
  O  O402  1  0.87421249  0.99973220  0.98763532  1
  O  O403  1  0.11867479  0.00669243  0.00977205  1
  O  O404  1  0.12307704  0.01466949  0.50594296  1
  O  O405  1  0.11742820  0.49683427  0.01250905  1
  O  O406  1  0.11768965  0.50960351  0.49591801  1
  O  O407  1  0.61252027  -0.00880179  0.00673171  1
  O  O408  1  0.63819247  0.01262586  0.50554211  1
  O  O409  1  0.61922734  0.50355817  0.00354113  1
  O  O410  1  0.63167960  0.49807140  0.50852026  1
  O  O411  1  0.35906029  0.38394106  0.11436372  1
  O  O412  1  0.36886823  0.36988459  0.62131762  1
  O  O413  1  0.36936627  0.87142829  0.12314603  1
  O  O414  1  0.37116173  0.86754705  0.61716049  1
  O  O415  1  0.86947548  0.37475358  0.11813080  1
  O  O416  1  0.86536381  0.37369868  0.61716445  1
  O  O417  1  0.87370607  0.87424349  0.12927906  1
  O  O418  1  0.86063934  0.85424398  0.62646991  1
  O  O419  1  0.13585071  0.12578827  0.37787412  1
  O  O420  1  0.12915962  0.12657301  0.88998153  1
  O  O421  1  0.13762765  0.62904555  0.38362453  1
  O  O422  1  0.13941551  0.62845805  0.87216777  1
  O  O423  1  0.61607556  0.12185514  0.38816646  1
  O  O424  1  0.64033982  0.12331057  0.87349011  1
  O  O425  1  0.63240286  0.63620820  0.36796760  1
  O  O426  1  0.61802243  0.62883339  0.88331233  1
