# generated using pymatgen
data_V85Zn86O256
_symmetry_space_group_name_H-M   'P 1'
_cell_length_a   16.94641437
_cell_length_b   16.93840882
_cell_length_c   16.93934186
_cell_angle_alpha   90.04653959
_cell_angle_beta   89.95991552
_cell_angle_gamma   90.00016080
_symmetry_Int_Tables_number   1
_chemical_formula_structural   V85Zn86O256
_chemical_formula_sum   'V85 Zn86 O256'
_cell_volume   4862.35558268
_cell_formula_units_Z   1
loop_
 _symmetry_equiv_pos_site_id
 _symmetry_equiv_pos_as_xyz
  1  'x, y, z'
loop_
 _atom_site_type_symbol
 _atom_site_label
 _atom_site_symmetry_multiplicity
 _atom_site_fract_x
 _atom_site_fract_y
 _atom_site_fract_z
 _atom_site_occupancy
  V  V0  1  0.38046209  0.12239618  0.74642435  1
  V  V1  1  0.63796056  0.37365731  0.24659946  1
  V  V2  1  0.75892078  0.50433459  0.75439609  1
  V  V3  1  0.24821514  -0.00510261  0.74793624  1
  V  V4  1  0.12692700  0.73781084  0.87958382  1
  V  V5  1  0.37945358  0.23502741  0.62044724  1
  V  V6  1  0.62372683  0.50380062  0.62760453  1
  V  V7  1  0.49364788  -0.00326082  0.00706332  1
  V  V8  1  0.37288682  0.50142767  0.37566765  1
  V  V9  1  0.75378318  0.11276746  0.37861096  1
  V  V10  1  0.62072464  0.12613245  0.50486481  1
  V  V11  1  0.61602625  0.86947451  0.76452423  1
  V  V12  1  0.24428930  0.64134259  0.38071318  1
  V  V13  1  0.63875699  -0.00142419  0.12502145  1
  V  V14  1  0.12930206  0.12306449  0.00175687  1
  V  V15  1  0.76195277  0.63086989  0.87276264  1
  V  V16  1  0.00375987  0.62521151  0.11453929  1
  V  V17  1  -0.00410761  0.25574938  0.24640809  1
  V  V18  1  0.87084897  0.75833586  0.12698015  1
  V  V19  1  0.37238347  0.50597770  0.88241487  1
  V  V20  1  0.36110027  0.00159109  0.36938783  1
  V  V21  1  0.00177411  0.50233902  0.50136281  1
  V  V22  1  0.25965965  0.51412082  0.74813630  1
  V  V23  1  0.50247388  0.37359438  0.37400207  1
  V  V24  1  0.75070069  0.25068375  0.49580747  1
  V  V25  1  0.36808519  0.77198848  0.62608599  1
  V  V26  1  0.24498077  0.74255300  -0.00095549  1
  V  V27  1  0.87526963  0.62658192  0.25214237  1
  V  V28  1  0.62594825  0.49900749  0.12048443  1
  V  V29  1  0.12664933  0.25105355  0.87262345  1
  V  V30  1  0.12607295  0.50643282  0.10773211  1
  V  V31  1  0.62111027  0.12647479  -0.00058745  1
  V  V32  1  0.12962082  0.00037078  0.13293046  1
  V  V33  1  0.38146225  0.75515781  0.13112507  1
  V  V34  1  -0.00458639  0.74448302  0.75398073  1
  V  V35  1  0.87558628  0.50145956  0.37193139  1
  V  V36  1  0.74782159  0.00152488  0.75207226  1
  V  V37  1  0.25098805  0.12452461  0.87647420  1
  V  V38  1  0.38341574  0.63029835  0.25434401  1
  V  V39  1  0.24594488  0.50281344  0.25382862  1
  V  V40  1  0.74661787  0.75610262  0.00104875  1
  V  V41  1  0.87416389  -0.00244663  0.87455834  1
  V  V42  1  0.00504732  0.74887544  0.25624369  1
  V  V43  1  0.13072940  0.24750930  0.37554761  1
  V  V44  1  0.74936133  0.37615298  0.62890217  1
  V  V45  1  0.00353178  0.38933680  0.88177399  1
  V  V46  1  0.37520070  0.37076889  0.49965345  1
  V  V47  1  0.61747510  0.62621645  -0.00786019  1
  V  V48  1  0.63125565  0.87207552  0.24650608  1
  V  V49  1  -0.01106133  0.00311938  0.49432273  1
  V  V50  1  0.62304235  0.62922497  0.50226597  1
  V  V51  1  0.61636199  0.00292401  0.62783696  1
  V  V52  1  -0.00095399  0.87153817  0.87942615  1
  V  V53  1  0.25140024  0.36989509  0.62411353  1
  V  V54  1  0.48841731  0.63087354  0.63487595  1
  V  V55  1  0.12906418  0.87285045  0.25367816  1
  V  V56  1  0.12463738  0.87351736  0.74818442  1
  V  V57  1  0.49002234  0.37545765  0.89114449  1
  V  V58  1  0.50021545  0.50110228  0.50118136  1
  V  V59  1  0.49697483  -0.00211664  0.49671431  1
  V  V60  1  0.13296916  0.12128789  0.49740831  1
  V  V61  1  -0.01017222  0.87777969  0.37342098  1
  V  V62  1  0.61739352  0.37745572  0.75065382  1
  V  V63  1  0.62152177  0.24565940  0.87440932  1
  V  V64  1  0.42866549  0.82864235  -0.05745110  1
  V  V65  1  0.61862937  0.74864040  0.37039426  1
  V  V66  1  -0.00550966  0.62533144  0.62747054  1
  V  V67  1  0.87692155  0.11986003  0.25726509  1
  V  V68  1  0.25432202  0.87869592  0.12156776  1
  V  V69  1  -0.00140903  0.13040875  0.12710842  1
  V  V70  1  0.00078003  -0.00093322  0.00171919  1
  V  V71  1  0.35686344  0.12777075  0.25266758  1
  V  V72  1  0.50218067  0.24730209  0.24929600  1
  V  V73  1  0.87423701  0.25140015  0.62895333  1
  V  V74  1  0.87242161  0.74939733  0.62853871  1
  V  V75  1  0.00260463  0.12423192  0.62497211  1
  V  V76  1  0.26038869  0.25598140  -0.00110724  1
  V  V77  1  0.00084170  0.37623631  0.37279094  1
  V  V78  1  0.87253603  0.12701037  0.74835913  1
  V  V79  1  0.87669963  0.37713397  0.50209703  1
  V  V80  1  0.49794971  0.87572083  0.37003240  1
  V  V81  1  0.12611002  0.50145676  0.62411950  1
  V  V82  1  0.25892239  0.37957399  0.12237718  1
  V  V83  1  0.37652475  -0.00249471  0.87940316  1
  V  V84  1  0.74469337  0.87357120  0.62652809  1
  Zn  Zn85  1  0.12488385  0.64089593  0.49847593  1
  Zn  Zn86  1  0.12479995  -0.00558935  0.62166288  1
  Zn  Zn87  1  0.12377298  0.37790664  0.24656061  1
  Zn  Zn88  1  0.86654551  0.88237491  0.00824392  1
  Zn  Zn89  1  0.49854247  0.24692221  0.74435288  1
  Zn  Zn90  1  0.25436679  0.23617062  0.49566592  1
  Zn  Zn91  1  0.50115844  0.62383227  0.12839710  1
  Zn  Zn92  1  -0.00132595  0.25316881  0.75405597  1
  Zn  Zn93  1  0.80450014  0.29804734  0.03445083  1
  Zn  Zn94  1  0.12875521  0.37439467  0.74963851  1
  Zn  Zn95  1  0.74816404  0.62507394  0.37693393  1
  Zn  Zn96  1  0.84288937  0.46080248  0.92675688  1
  Zn  Zn97  1  0.37988426  0.25487416  0.12192938  1
  Zn  Zn98  1  0.75358830  0.49798414  0.24867277  1
  Zn  Zn99  1  0.24903698  0.78635297  0.50850879  1
  Zn  Zn100  1  0.49853610  0.12321427  0.13105441  1
  Zn  Zn101  1  0.49441130  0.75000425  0.76695775  1
  Zn  Zn102  1  0.75779541  -0.00533992  0.24946851  1
  Zn  Zn103  1  0.77802811  0.15019464  0.90128114  1
  Zn  Zn104  1  0.74868466  0.74995499  0.50086830  1
  Zn  Zn105  1  0.87011838  0.87744053  0.49837420  1
  Zn  Zn106  1  0.62766686  0.24866887  0.37441641  1
  Zn  Zn107  1  0.18341619  0.19537074  0.18530927  1
  Zn  Zn108  1  0.19263556  0.18287623  0.68630179  1
  Zn  Zn109  1  0.19152872  0.68861344  0.18814502  1
  Zn  Zn110  1  0.18489703  0.69132672  0.68226800  1
  Zn  Zn111  1  0.68890441  0.18430133  0.18499660  1
  Zn  Zn112  1  0.68721501  0.18867794  0.69056248  1
  Zn  Zn113  1  0.68809950  0.68575798  0.18701974  1
  Zn  Zn114  1  0.68115766  0.68986868  0.69310826  1
  Zn  Zn115  1  0.31171195  0.31445318  0.30998304  1
  Zn  Zn116  1  0.31424773  0.31345959  0.80794813  1
  Zn  Zn117  1  0.31266382  0.81772001  0.31031630  1
  Zn  Zn118  1  0.30601953  0.80193280  0.80346354  1
  Zn  Zn119  1  0.81955663  0.31464180  0.19531742  1
  Zn  Zn120  1  0.80262212  0.32363243  0.83429149  1
  Zn  Zn121  1  0.80794282  0.80826739  0.31513271  1
  Zn  Zn122  1  0.80952371  0.81258822  0.81289364  1
  Zn  Zn123  1  0.18750111  0.43769414  0.44012181  1
  Zn  Zn124  1  0.19392401  0.43727324  0.93397787  1
  Zn  Zn125  1  0.17520930  0.93676148  0.43246425  1
  Zn  Zn126  1  0.18841466  0.93183946  0.93825779  1
  Zn  Zn127  1  0.68881994  0.43846923  0.43650686  1
  Zn  Zn128  1  0.67775201  0.43582396  0.93809864  1
  Zn  Zn129  1  0.68341166  0.93477283  0.43994151  1
  Zn  Zn130  1  0.68903374  0.94516835  0.94117219  1
  Zn  Zn131  1  0.31439685  0.06456291  0.06728995  1
  Zn  Zn132  1  0.29471792  -0.00365388  0.54403229  1
  Zn  Zn133  1  0.31435237  0.56522980  0.06631913  1
  Zn  Zn134  1  0.31281130  0.56274755  0.56050944  1
  Zn  Zn135  1  0.81970870  0.09461160  0.05409248  1
  Zn  Zn136  1  0.80854695  0.06110254  0.56655127  1
  Zn  Zn137  1  0.80555574  0.57089964  0.06884650  1
  Zn  Zn138  1  0.81131575  0.56335957  0.56393567  1
  Zn  Zn139  1  0.44156915  0.44041441  0.18871833  1
  Zn  Zn140  1  0.43572616  0.43639513  0.68516381  1
  Zn  Zn141  1  0.43967440  0.93907618  0.19242618  1
  Zn  Zn142  1  0.44068306  0.93960979  0.69116489  1
  Zn  Zn143  1  0.93851788  0.43926803  0.07167470  1
  Zn  Zn144  1  0.94104817  0.43451614  0.69585084  1
  Zn  Zn145  1  0.94000842  0.93987927  0.18850320  1
  Zn  Zn146  1  0.93792624  0.93498297  0.68704610  1
  Zn  Zn147  1  0.06324670  0.06180894  0.31441197  1
  Zn  Zn148  1  0.06073259  0.06332792  0.81282591  1
  Zn  Zn149  1  0.06398125  0.56496586  0.31077484  1
  Zn  Zn150  1  0.06887992  0.56300250  0.80681399  1
  Zn  Zn151  1  0.56757439  0.06179700  0.31352159  1
  Zn  Zn152  1  0.55667122  0.05575505  0.81577344  1
  Zn  Zn153  1  0.56420748  0.55866159  0.31168925  1
  Zn  Zn154  1  0.55745360  0.55898015  0.81496001  1
  Zn  Zn155  1  0.43812048  0.18256151  0.43401157  1
  Zn  Zn156  1  0.44091039  0.18510301  0.93559695  1
  Zn  Zn157  1  0.43289927  0.69397769  0.44486892  1
  Zn  Zn158  1  0.42917050  0.66629379  0.94374876  1
  Zn  Zn159  1  0.93799928  0.19042318  0.43668931  1
  Zn  Zn160  1  0.94570489  0.19185854  0.93944937  1
  Zn  Zn161  1  0.93850433  0.69086601  0.44105810  1
  Zn  Zn162  1  0.93295561  0.68411233  0.94183606  1
  Zn  Zn163  1  0.07157939  0.31463194  0.06007180  1
  Zn  Zn164  1  0.06421509  0.30986846  0.56217051  1
  Zn  Zn165  1  0.06158785  0.81126735  0.06590381  1
  Zn  Zn166  1  0.06280971  0.81381841  0.55898114  1
  Zn  Zn167  1  0.57018885  0.31033208  0.06621209  1
  Zn  Zn168  1  0.56146304  0.31149496  0.56451484  1
  Zn  Zn169  1  0.56880438  0.80841359  0.06963958  1
  Zn  Zn170  1  0.55763732  0.81445067  0.56231190  1
  O  O171  1  0.12081635  0.11747330  0.12366100  1
  O  O172  1  0.11599338  0.12434170  0.61887585  1
  O  O173  1  0.12092680  0.61342065  0.13306529  1
  O  O174  1  0.11349599  0.61830866  0.62463929  1
  O  O175  1  0.61892007  0.11593152  0.11860497  1
  O  O176  1  0.63017776  0.11497210  0.61799481  1
  O  O177  1  0.62284312  0.61714193  0.11844816  1
  O  O178  1  0.61514422  0.62440657  0.61931116  1
  O  O179  1  0.38224845  0.37903667  0.37966074  1
  O  O180  1  0.38558749  0.37927206  0.87079012  1
  O  O181  1  0.38341303  0.89234617  0.36302868  1
  O  O182  1  0.36581005  0.88060541  0.87615349  1
  O  O183  1  0.88995707  0.38574105  0.38515186  1
  O  O184  1  0.89991348  0.37897152  0.86428921  1
  O  O185  1  0.88495388  0.86974011  0.37673104  1
  O  O186  1  0.88075442  0.88229050  0.87701436  1
  O  O187  1  0.26298263  -0.00113168  0.37045223  1
  O  O188  1  0.25835693  0.00341911  0.87216344  1
  O  O189  1  0.25571608  0.50206937  0.36889359  1
  O  O190  1  0.26095229  0.49130003  0.85761566  1
  O  O191  1  0.74801319  0.00989372  0.37857247  1
  O  O192  1  0.76425732  0.00071950  0.86978663  1
  O  O193  1  0.76150395  0.50382399  0.37514025  1
  O  O194  1  0.74909645  0.51294796  0.87003756  1
  O  O195  1  0.24398209  0.49960458  0.13265693  1
  O  O196  1  0.24615455  0.49434107  0.63037044  1
  O  O197  1  0.24059087  0.99318479  0.12091239  1
  O  O198  1  0.24305621  1.00675162  0.64493153  1
  O  O199  1  0.73350792  0.50628791  0.13219284  1
  O  O200  1  0.74181190  0.49633274  0.63143038  1
  O  O201  1  0.74008947  1.00805886  0.12381989  1
  O  O202  1  0.73866170  0.99200012  0.63156791  1
  O  O203  1  0.00448084  0.36762212  0.26127797  1
  O  O204  1  0.01154960  0.37113971  0.75905195  1
  O  O205  1  0.00442272  0.86828709  0.25476949  1
  O  O206  1  0.00179794  0.86405761  0.75980047  1
  O  O207  1  0.50565824  0.36624177  0.25763812  1
  O  O208  1  0.50953354  0.37523933  0.75022898  1
  O  O209  1  0.51339166  0.88068156  0.26318199  1
  O  O210  1  0.51231662  0.87593224  0.75393593  1
  O  O211  1  0.50165697  0.13949653  0.25528763  1
  O  O212  1  0.48396952  0.12110679  0.75169274  1
  O  O213  1  0.48641678  0.62278777  0.25509276  1
  O  O214  1  0.50719856  0.63049257  0.73790466  1
  O  O215  1  0.99681607  0.13148482  0.24646466  1
  O  O216  1  0.99383744  0.12754400  0.74101829  1
  O  O217  1  0.99290778  0.63215395  0.24724474  1
  O  O218  1  1.00292056  0.63682233  0.74396882  1
  O  O219  1  0.36392503  0.24173783  0.00224884  1
  O  O220  1  0.37268133  0.24906952  0.50372357  1
  O  O221  1  0.36865690  0.75546751  0.00264433  1
  O  O222  1  0.36693233  0.74934491  0.51980293  1
  O  O223  1  0.84599319  0.19805078  -0.01187270  1
  O  O224  1  0.86887752  0.25586025  0.50841147  1
  O  O225  1  0.86558185  0.75217159  0.01013851  1
  O  O226  1  0.87172417  0.75323759  0.51463284  1
  O  O227  1  0.12705305  0.23939484  0.49352850  1
  O  O228  1  0.13765282  0.24363784  0.99026949  1
  O  O229  1  0.13906561  0.75229692  0.50943165  1
  O  O230  1  0.13688827  0.75432758  0.99594292  1
  O  O231  1  0.63216719  0.24238896  0.50338574  1
  O  O232  1  0.61883314  0.23907734  0.98957661  1
  O  O233  1  0.62285589  0.74276736  0.49539655  1
  O  O234  1  0.63198339  0.73509586  1.00707979  1
  O  O235  1  0.49797263  0.24956704  0.13526618  1
  O  O236  1  0.48503675  0.25207078  0.62511415  1
  O  O237  1  0.48469918  0.74830918  0.12163993  1
  O  O238  1  0.48951830  0.74130320  0.62324267  1
  O  O239  1  1.01699711  0.24161246  0.13469380  1
  O  O240  1  0.99346344  0.24007717  0.62668676  1
  O  O241  1  0.99456797  0.74503647  0.13715567  1
  O  O242  1  0.99207500  0.74448747  0.63287166  1
  O  O243  1  0.00733763  0.25913998  0.37103163  1
  O  O244  1  0.01270196  0.25620214  0.87564010  1
  O  O245  1  -0.00280964  0.75631839  0.36327729  1
  O  O246  1  0.00260276  0.75170107  0.87075713  1
  O  O247  1  0.50218394  0.26094578  0.37167596  1
  O  O248  1  0.50161062  0.26142292  0.86948255  1
  O  O249  1  0.50774276  0.76067245  0.38308752  1
  O  O250  1  0.48015471  0.75695684  0.88577702  1
  O  O251  1  0.23381487  0.11337756  0.50546444  1
  O  O252  1  0.24638736  0.13080858  0.99619527  1
  O  O253  1  0.24876921  0.61817773  0.48364500  1
  O  O254  1  0.25472533  0.64393563  1.00536946  1
  O  O255  1  0.74292868  0.12951705  0.49840607  1
  O  O256  1  0.72264130  0.10080022  0.99118935  1
  O  O257  1  0.73410063  0.62557845  0.50233649  1
  O  O258  1  0.74106750  0.63330810  0.98813726  1
  O  O259  1  0.24830172  0.36695009  0.00790574  1
  O  O260  1  0.25738323  0.37458450  0.51023161  1
  O  O261  1  0.24713345  0.86695065  0.01516030  1
  O  O262  1  0.24950441  0.90020152  0.50457595  1
  O  O263  1  0.76869761  0.36974738  -0.05113322  1
  O  O264  1  0.75498896  0.36848563  0.50619268  1
  O  O265  1  0.74791606  0.86114310  -0.00552079  1
  O  O266  1  0.74781836  0.87363931  0.51452341  1
  O  O267  1  0.13796996  0.50060615  0.24858894  1
  O  O268  1  0.13821296  0.49811793  0.73805979  1
  O  O269  1  0.11981785  0.99278206  0.23922085  1
  O  O270  1  0.13146157  0.99190381  0.75624786  1
  O  O271  1  0.62965071  0.49098391  0.24544077  1
  O  O272  1  0.62869928  0.49414934  0.74578000  1
  O  O273  1  0.63000342  0.99405001  0.24115820  1
  O  O274  1  0.62566789  0.99509219  0.74412075  1
  O  O275  1  0.37945663  0.01671716  0.25909318  1
  O  O276  1  0.36781673  0.00253305  0.75855467  1
  O  O277  1  0.36528389  0.50845552  0.25552510  1
  O  O278  1  0.36255218  0.49583323  0.75057144  1
  O  O279  1  0.87572423  0.01413845  0.24798985  1
  O  O280  1  0.87108247  0.00432591  0.75521264  1
  O  O281  1  0.87664885  0.50943007  0.26488288  1
  O  O282  1  0.85818912  0.49834473  0.74349252  1
  O  O283  1  0.11400175  0.37006343  0.37901799  1
  O  O284  1  0.12176706  0.36716654  0.87374736  1
  O  O285  1  0.11004122  0.88005616  0.35954625  1
  O  O286  1  0.11528680  0.86711151  0.86935262  1
  O  O287  1  0.61760308  0.37416811  0.36863247  1
  O  O288  1  0.60845201  0.37021442  0.86848346  1
  O  O289  1  0.61811833  0.86776379  0.37018688  1
  O  O290  1  0.62956694  0.88438458  0.86161080  1
  O  O291  1  0.37759295  0.12818547  0.14156529  1
  O  O292  1  0.36619934  0.13251955  0.63246232  1
  O  O293  1  0.37669740  0.63289221  0.13646736  1
  O  O294  1  0.38817274  0.62292544  0.62362307  1
  O  O295  1  0.89315223  0.12427326  0.13640932  1
  O  O296  1  0.88046093  0.12853546  0.63306911  1
  O  O297  1  0.88497275  0.63473989  0.13663267  1
  O  O298  1  0.88642330  0.63114355  0.62227542  1
  O  O299  1  0.24984981  0.26241799  0.11709396  1
  O  O300  1  0.25798986  0.25491351  0.61972750  1
  O  O301  1  0.25877217  0.75584187  0.11594390  1
  O  O302  1  0.26456782  0.75442104  0.63100323  1
  O  O303  1  0.74699123  0.25711410  0.12630632  1
  O  O304  1  0.75466293  0.25655841  0.61893402  1
  O  O305  1  0.75997806  0.74277423  0.11556882  1
  O  O306  1  0.75442759  0.75575022  0.62848305  1
  O  O307  1  0.23502309  0.25853678  0.37747699  1
  O  O308  1  0.24713063  0.24722303  0.88072269  1
  O  O309  1  0.25730024  0.74267645  0.38099629  1
  O  O310  1  0.24212340  0.75641020  0.88967254  1
  O  O311  1  0.74931083  0.24095483  0.39345239  1
  O  O312  1  0.72594281  0.24080618  0.85648387  1
  O  O313  1  0.73481051  0.74660705  0.38161581  1
  O  O314  1  0.75158799  0.73898277  0.88124438  1
  O  O315  1  0.01038399  0.12143163  0.00994187  1
  O  O316  1  0.00272186  0.12103946  0.50708816  1
  O  O317  1  0.00656904  0.64010465  0.01618742  1
  O  O318  1  0.00433679  0.61998901  0.50790584  1
  O  O319  1  0.50405202  0.11458262  0.00452501  1
  O  O320  1  0.51467526  0.11697400  0.49282409  1
  O  O321  1  0.51405639  0.62425421  0.00549263  1
  O  O322  1  0.50696264  0.62096362  0.50862235  1
  O  O323  1  0.49653430  0.37986262  0.49324810  1
  O  O324  1  0.50008327  0.37088164  0.98913095  1
  O  O325  1  0.50572159  0.88969158  0.48814943  1
  O  O326  1  0.49838961  0.87838883  1.00410093  1
  O  O327  1  0.99604955  0.38203511  0.49759864  1
  O  O328  1  1.00771154  0.37688779  0.98729823  1
  O  O329  1  0.99694849  0.88390054  0.49129075  1
  O  O330  1  0.99637395  0.88024313  0.99562567  1
  O  O331  1  0.49450361  0.48955368  0.37878021  1
  O  O332  1  0.48567666  0.48597497  0.87115072  1
  O  O333  1  0.49861365  0.99452348  0.38027728  1
  O  O334  1  0.48388671  0.99666122  0.88504472  1
  O  O335  1  0.99792051  0.49581103  0.38022707  1
  O  O336  1  1.01289679  0.48841724  0.87234898  1
  O  O337  1  0.99810398  0.99268013  0.38258843  1
  O  O338  1  0.99211233  0.99371946  0.87996098  1
  O  O339  1  0.00917978  0.00790780  0.12026452  1
  O  O340  1  -0.00050034  0.01181068  0.62110196  1
  O  O341  1  0.01882189  0.50847668  0.12432567  1
  O  O342  1  0.00683410  0.50660078  0.62561159  1
  O  O343  1  0.50509934  0.00114159  0.11957004  1
  O  O344  1  0.50899929  -0.00294421  0.61581520  1
  O  O345  1  0.51822698  0.50456749  0.13380322  1
  O  O346  1  0.50405170  0.51077955  0.62215234  1
  O  O347  1  0.24693410  0.38535125  0.24325537  1
  O  O348  1  0.24964510  0.37816670  0.73461824  1
  O  O349  1  0.23774745  0.86903514  0.23835293  1
  O  O350  1  0.23681295  0.88285927  0.75838814  1
  O  O351  1  0.74000250  0.37413752  0.25885695  1
  O  O352  1  0.73676929  0.38441354  0.75086367  1
  O  O353  1  0.73706844  0.87851052  0.25800521  1
  O  O354  1  0.73974304  0.88004669  0.74253447  1
  O  O355  1  0.25858529  0.13261053  0.24854899  1
  O  O356  1  0.25856469  0.11712319  0.75931145  1
  O  O357  1  0.25733660  0.62182755  0.26339283  1
  O  O358  1  0.24874259  0.61211802  0.74293465  1
  O  O359  1  0.75926860  0.12397290  0.26217894  1
  O  O360  1  0.76020068  0.11671166  0.74668060  1
  O  O361  1  0.76507011  0.62608281  0.25417615  1
  O  O362  1  0.73867133  0.62015057  0.76597647  1
  O  O363  1  0.37523741  0.11796321  0.36121286  1
  O  O364  1  0.36972959  0.11649952  0.86922937  1
  O  O365  1  0.36753981  0.62226792  0.37258526  1
  O  O366  1  0.37739679  0.60515402  0.86539370  1
  O  O367  1  0.86691407  0.12920489  0.36998021  1
  O  O368  1  0.88421975  0.11502484  0.85912252  1
  O  O369  1  0.87631707  0.62009098  0.37160060  1
  O  O370  1  0.86146262  0.62651971  0.87313297  1
  O  O371  1  0.13574645  0.39120008  0.12505719  1
  O  O372  1  0.13354756  0.38122927  0.62358930  1
  O  O373  1  0.12925526  0.88287781  0.13281480  1
  O  O374  1  0.11006965  0.87858758  0.64468859  1
  O  O375  1  0.62266043  0.38702309  0.13321285  1
  O  O376  1  0.62977661  0.38078095  0.63229674  1
  O  O377  1  0.62310188  0.88292655  0.13605570  1
  O  O378  1  0.62834843  0.88174652  0.63248384  1
  O  O379  1  0.11587721  0.25301724  0.25955345  1
  O  O380  1  0.12975809  0.24651968  0.76361891  1
  O  O381  1  0.11639884  0.75910007  0.24340505  1
  O  O382  1  0.11793547  0.75578253  0.75761766  1
  O  O383  1  0.61827308  0.25711655  0.25304007  1
  O  O384  1  0.61690339  0.25821209  0.75200942  1
  O  O385  1  0.62667609  0.75595963  0.25873047  1
  O  O386  1  0.61732994  0.76504813  0.75293902  1
  O  O387  1  0.38108141  0.24045735  0.25162213  1
  O  O388  1  0.37476592  0.23909687  0.74125231  1
  O  O389  1  0.36875988  0.74239172  0.24246339  1
  O  O390  1  0.38183500  0.75448400  0.73468199  1
  O  O391  1  0.89127853  0.23983159  0.25359452  1
  O  O392  1  0.87370911  0.24166522  0.74711308  1
  O  O393  1  0.88022903  0.74470743  0.24626826  1
  O  O394  1  0.88194588  0.75450881  0.73941976  1
  O  O395  1  0.38211019  0.49320081  0.49460779  1
  O  O396  1  0.36415684  0.50388657  0.98278638  1
  O  O397  1  0.38667856  1.01415810  0.47984436  1
  O  O398  1  0.38351965  1.00152696  0.99644854  1
  O  O399  1  0.88169400  0.49881231  0.49330629  1
  O  O400  1  0.88524667  0.51929448  1.00958843  1
  O  O401  1  0.88455858  0.99856683  0.50723373  1
  O  O402  1  0.88085407  1.00369563  0.99194091  1
  O  O403  1  0.12043408  0.00375147  0.00773901  1
  O  O404  1  0.10754353  0.00757257  0.50143453  1
  O  O405  1  0.13796137  0.50636129  0.00982833  1
  O  O406  1  0.12091392  0.50253275  0.51272242  1
  O  O407  1  0.60977992  -0.00051853  0.00711707  1
  O  O408  1  0.61865055  0.00656000  0.50819348  1
  O  O409  1  0.62931024  0.51023317  0.01072851  1
  O  O410  1  0.61865217  0.50669811  0.50614691  1
  O  O411  1  0.36336032  0.37720907  0.13122406  1
  O  O412  1  0.36920278  0.36588287  0.61760323  1
  O  O413  1  0.36587530  0.86955652  0.13632623  1
  O  O414  1  0.37809557  0.87191929  0.62351001  1
  O  O415  1  0.87643973  0.35593378  0.10766272  1
  O  O416  1  0.86974819  0.37186453  0.62233927  1
  O  O417  1  0.87918243  0.86317494  0.12693450  1
  O  O418  1  0.86352689  0.86811375  0.62609818  1
  O  O419  1  0.11828514  0.13519068  0.38413595  1
  O  O420  1  0.13080147  0.13037121  0.88116550  1
  O  O421  1  0.14114449  0.62577196  0.37443697  1
  O  O422  1  0.12368078  0.63871210  0.87214549  1
  O  O423  1  0.63609101  0.12749560  0.38479438  1
  O  O424  1  0.60795078  0.13410794  0.88201838  1
  O  O425  1  0.62112559  0.63151023  0.38303609  1
  O  O426  1  0.62604326  0.61842319  0.88967117  1
