# generated using pymatgen
data_V85Zn86O256
_symmetry_space_group_name_H-M   'P 1'
_cell_length_a   16.93670353
_cell_length_b   16.94938545
_cell_length_c   16.92862798
_cell_angle_alpha   90.03965651
_cell_angle_beta   90.02841792
_cell_angle_gamma   90.04978220
_symmetry_Int_Tables_number   1
_chemical_formula_structural   V85Zn86O256
_chemical_formula_sum   'V85 Zn86 O256'
_cell_volume   4859.64204647
_cell_formula_units_Z   1
loop_
 _symmetry_equiv_pos_site_id
 _symmetry_equiv_pos_as_xyz
  1  'x, y, z'
loop_
 _atom_site_type_symbol
 _atom_site_label
 _atom_site_symmetry_multiplicity
 _atom_site_fract_x
 _atom_site_fract_y
 _atom_site_fract_z
 _atom_site_occupancy
  V  V0  1  0.00186088  0.62360466  0.61043783  1
  V  V1  1  0.25176392  0.00461516  0.74686751  1
  V  V2  1  0.24858319  0.37878765  0.62359823  1
  V  V3  1  -0.00043463  0.50147754  -0.00048322  1
  V  V4  1  0.13723562  0.74633952  0.87105672  1
  V  V5  1  0.74805530  0.62787041  0.38324178  1
  V  V6  1  0.11347397  0.11739436  -0.00307919  1
  V  V7  1  0.62714729  0.75455603  0.87058496  1
  V  V8  1  0.49602986  0.63287053  0.12302757  1
  V  V9  1  0.50762298  -0.00059887  0.00334029  1
  V  V10  1  0.49206038  0.49976744  0.50225463  1
  V  V11  1  0.24895237  0.86608456  0.12169727  1
  V  V12  1  0.25165867  0.36974364  0.11270656  1
  V  V13  1  -0.00243340  0.37348321  0.87226923  1
  V  V14  1  0.36715689  0.62970342  0.75063006  1
  V  V15  1  0.49503445  0.37531958  0.87857091  1
  V  V16  1  0.62376746  0.50334920  0.62350401  1
  V  V17  1  0.37796809  0.00325143  0.87912461  1
  V  V18  1  0.12563129  0.49842166  0.12259185  1
  V  V19  1  0.36851311  0.50035098  0.87400682  1
  V  V20  1  0.24901507  0.49679401  0.24738614  1
  V  V21  1  0.26719703  -0.02904700  0.26565498  1
  V  V22  1  0.75186712  0.49985829  0.25068690  1
  V  V23  1  0.49459469  0.37690410  0.37558874  1
  V  V24  1  0.62868412  0.37890387  0.74999488  1
  V  V25  1  0.24990450  0.12885534  0.88876827  1
  V  V26  1  -0.00316058  0.37618062  0.38729168  1
  V  V27  1  0.75002605  0.50885672  0.75363209  1
  V  V28  1  0.88425636  0.88410538  0.00140583  1
  V  V29  1  0.25110123  0.12115931  0.37283759  1
  V  V30  1  0.50312371  0.11868605  0.12696756  1
  V  V31  1  0.11820191  0.24827357  0.36866543  1
  V  V32  1  0.11800159  0.74138555  0.38354684  1
  V  V33  1  0.12640653  0.12319803  0.50273217  1
  V  V34  1  0.85931128  0.87174278  0.49787068  1
  V  V35  1  0.37432532  0.12950285  0.74954613  1
  V  V36  1  0.88078846  0.62601403  0.25156137  1
  V  V37  1  0.62852366  0.12463464  0.00485630  1
  V  V38  1  0.26538785  0.86785352  0.62400552  1
  V  V39  1  0.62610414  0.37546056  0.25010683  1
  V  V40  1  0.25227270  0.25365816  0.49738828  1
  V  V41  1  0.87077564  0.74821616  0.62154980  1
  V  V42  1  0.12704441  0.87413041  0.74631168  1
  V  V43  1  0.50338544  0.12665444  0.61028912  1
  V  V44  1  0.87663405  0.49626305  0.38895359  1
  V  V45  1  0.37155853  0.49583422  0.37786926  1
  V  V46  1  0.87199706  0.50945930  0.87558010  1
  V  V47  1  0.88237546  0.74864703  0.12905959  1
  V  V48  1  0.24142320  0.62016481  0.38348425  1
  V  V49  1  -0.00414623  0.24330655  0.74772889  1
  V  V50  1  0.49472784  0.63639834  0.62550038  1
  V  V51  1  0.74312203  0.87784142  0.12563057  1
  V  V52  1  0.74585527  0.87743995  0.64702513  1
  V  V53  1  0.00226083  0.12712954  0.13575415  1
  V  V54  1  0.86767920  0.25512966  0.61415556  1
  V  V55  1  0.12736376  0.24986991  0.87784264  1
  V  V56  1  0.25797844  0.74375049  -0.00370510  1
  V  V57  1  0.49917394  0.25314654  0.24877080  1
  V  V58  1  0.74857920  0.12873184  0.39062432  1
  V  V59  1  0.62564722  0.75960714  0.37884440  1
  V  V60  1  0.37774228  0.87320448  0.00826703  1
  V  V61  1  0.12807554  0.62403109  -0.00590426  1
  V  V62  1  0.49436990  0.49730523  0.00076595  1
  V  V63  1  0.75499274  0.74451756  -0.00125024  1
  V  V64  1  0.37250279  0.25712309  0.62022484  1
  V  V65  1  0.11596763  0.36974992  0.24459474  1
  V  V66  1  0.37312771  0.62808094  0.24710733  1
  V  V67  1  0.00086491  0.74679663  0.75139043  1
  V  V68  1  0.74446950  0.00657376  0.24499638  1
  V  V69  1  0.11826780  0.86124784  0.24806895  1
  V  V70  1  0.87198983  0.00012298  0.37306274  1
  V  V71  1  -0.00351748  0.86771398  0.37095727  1
  V  V72  1  0.63009384  0.25202430  0.38836468  1
  V  V73  1  0.62901094  0.62363269  -0.00613668  1
  V  V74  1  0.87329478  0.37160047  -0.00048466  1
  V  V75  1  0.88047472  0.25167613  0.13648536  1
  V  V76  1  0.63134495  0.24973382  0.87508580  1
  V  V77  1  0.50113173  0.75783275  0.25040161  1
  V  V78  1  0.00094350  -0.00414552  0.49901131  1
  V  V79  1  0.62400384  0.50111115  0.12525902  1
  V  V80  1  0.11948610  0.50375466  0.61374394  1
  V  V81  1  0.12228772  -0.00463090  0.12505028  1
  V  V82  1  0.49899365  0.25319354  0.74819750  1
  V  V83  1  0.37251713  0.25308995  0.11063119  1
  V  V84  1  0.37010215  0.12637197  0.24897926  1
  Zn  Zn85  1  0.63398464  0.00707160  0.62909699  1
  Zn  Zn86  1  0.00474920  0.62618191  0.13007037  1
  Zn  Zn87  1  -0.00747698  0.12042370  0.62544825  1
  Zn  Zn88  1  0.12851043  -0.00199262  0.62201375  1
  Zn  Zn89  1  0.87476266  0.62705938  0.75096891  1
  Zn  Zn90  1  0.87737057  0.13023839  0.25443241  1
  Zn  Zn91  1  0.51200292  0.88234918  0.87047467  1
  Zn  Zn92  1  0.62325646  0.63004441  0.49965489  1
  Zn  Zn93  1  0.25335298  0.74673571  0.50396571  1
  Zn  Zn94  1  0.75222613  0.37330901  0.12639560  1
  Zn  Zn95  1  0.50289149  0.75533636  0.74610652  1
  Zn  Zn96  1  0.00592743  0.87965629  0.88142476  1
  Zn  Zn97  1  0.75441732  0.37924691  0.60796599  1
  Zn  Zn98  1  0.12323641  0.37717580  0.74888858  1
  Zn  Zn99  1  0.24448039  0.50198343  0.75218060  1
  Zn  Zn100  1  0.50131401  -0.00703416  0.48304217  1
  Zn  Zn101  1  0.74929396  0.10964577  0.86877040  1
  Zn  Zn102  1  0.61744153  0.88360044  0.24773951  1
  Zn  Zn103  1  0.38269176  0.87933775  0.49768170  1
  Zn  Zn104  1  0.75439924  0.24730403  0.00201260  1
  Zn  Zn105  1  0.85086442  0.11791486  0.74337716  1
  Zn  Zn106  1  0.88406405  0.00654392  0.86560254  1
  Zn  Zn107  1  0.18890492  0.18673631  0.18471586  1
  Zn  Zn108  1  0.18516262  0.18905803  0.68983865  1
  Zn  Zn109  1  0.18806775  0.68686827  0.18783310  1
  Zn  Zn110  1  0.18966724  0.68531177  0.68358144  1
  Zn  Zn111  1  0.69264000  0.19180901  0.19007602  1
  Zn  Zn112  1  0.68687615  0.19235425  0.68351011  1
  Zn  Zn113  1  0.68889300  0.68818961  0.18754096  1
  Zn  Zn114  1  0.68825610  0.68842375  0.68606943  1
  Zn  Zn115  1  0.30760103  0.31153197  0.30612615  1
  Zn  Zn116  1  0.30993927  0.31454439  0.81176835  1
  Zn  Zn117  1  0.32353471  0.79535335  0.34051518  1
  Zn  Zn118  1  0.34261536  0.83317029  0.79650553  1
  Zn  Zn119  1  0.81307857  0.31391261  0.43689595  1
  Zn  Zn120  1  0.81357649  0.31127983  0.80710606  1
  Zn  Zn121  1  0.80767532  0.81234031  0.30950737  1
  Zn  Zn122  1  0.81580334  0.81014104  0.81954947  1
  Zn  Zn123  1  0.18371858  0.43418622  0.43831657  1
  Zn  Zn124  1  0.18646817  0.43432819  0.93652326  1
  Zn  Zn125  1  0.18776255  0.93252676  0.43723834  1
  Zn  Zn126  1  0.18859691  0.93731548  0.93476712  1
  Zn  Zn127  1  0.68052968  0.44554664  0.43532278  1
  Zn  Zn128  1  0.68847380  0.43772713  0.93715317  1
  Zn  Zn129  1  0.67371132  0.94728430  0.44071102  1
  Zn  Zn130  1  0.69611477  0.93579079  0.93733929  1
  Zn  Zn131  1  0.31224233  0.05607269  0.07054624  1
  Zn  Zn132  1  0.32537613  0.05706258  0.55764054  1
  Zn  Zn133  1  0.31304968  0.56159073  0.06186118  1
  Zn  Zn134  1  0.31243631  0.56188014  0.56455616  1
  Zn  Zn135  1  0.81401076  0.06315737  0.06141255  1
  Zn  Zn136  1  0.81470543  0.05746544  0.56831524  1
  Zn  Zn137  1  0.81279879  0.56179431  0.06456820  1
  Zn  Zn138  1  0.81137188  0.56296526  0.56506051  1
  Zn  Zn139  1  0.43512559  0.43854000  0.18587091  1
  Zn  Zn140  1  0.43568180  0.43985375  0.68875664  1
  Zn  Zn141  1  0.43851081  0.94490791  0.31384306  1
  Zn  Zn142  1  0.47621679  0.95207608  0.70517793  1
  Zn  Zn143  1  0.93793509  0.43793839  0.19008444  1
  Zn  Zn144  1  0.93869116  0.43541094  0.68624678  1
  Zn  Zn145  1  0.93456357  0.93972348  0.18709818  1
  Zn  Zn146  1  0.93729853  0.93385499  0.68550609  1
  Zn  Zn147  1  0.06905781  0.05292339  0.31116196  1
  Zn  Zn148  1  0.05384246  0.05542694  0.81051670  1
  Zn  Zn149  1  0.06059901  0.55593166  0.31385149  1
  Zn  Zn150  1  0.06360547  0.56177109  0.80822380  1
  Zn  Zn151  1  0.57212304  0.07279275  0.30769306  1
  Zn  Zn152  1  0.57358399  0.06709771  0.80515473  1
  Zn  Zn153  1  0.56059446  0.56695852  0.31251435  1
  Zn  Zn154  1  0.55846641  0.56653190  0.81266472  1
  Zn  Zn155  1  0.43351453  0.19043459  0.43246749  1
  Zn  Zn156  1  0.44312253  0.18695752  0.93668209  1
  Zn  Zn157  1  0.43703558  0.69160266  0.43687469  1
  Zn  Zn158  1  0.43932837  0.68580699  0.93250828  1
  Zn  Zn159  1  0.94167165  0.18385430  0.43626927  1
  Zn  Zn160  1  0.93590587  0.18368807  0.93666653  1
  Zn  Zn161  1  0.93274390  0.68860562  0.43679858  1
  Zn  Zn162  1  0.94422454  0.69125315  0.93812035  1
  Zn  Zn163  1  0.06103479  0.30768232  0.05772978  1
  Zn  Zn164  1  0.06402838  0.30971433  0.56493889  1
  Zn  Zn165  1  0.06372896  0.80487986  0.06279383  1
  Zn  Zn166  1  0.06148545  0.81219276  0.56255417  1
  Zn  Zn167  1  0.56125608  0.31113546  0.06256273  1
  Zn  Zn168  1  0.55876956  0.32004957  0.56283249  1
  Zn  Zn169  1  0.56334415  0.81091773  0.06000220  1
  Zn  Zn170  1  0.56503823  0.82116129  0.55732481  1
  O  O171  1  0.12228598  0.11697791  0.11911158  1
  O  O172  1  0.12761653  0.12343976  0.61077043  1
  O  O173  1  0.12584323  0.61913834  0.11385639  1
  O  O174  1  0.11853456  0.61296056  0.62635772  1
  O  O175  1  0.61500282  0.13720026  0.11749006  1
  O  O176  1  0.60564210  0.13198860  0.62581907  1
  O  O177  1  0.61722451  0.61959475  0.11651410  1
  O  O178  1  0.61751920  0.61671508  0.62441178  1
  O  O179  1  0.37663043  0.38773688  0.36447158  1
  O  O180  1  0.38873028  0.38035501  0.86835994  1
  O  O181  1  0.33429714  0.90724218  0.33049512  1
  O  O182  1  0.36345381  0.89611703  0.89216065  1
  O  O183  1  0.88941053  0.37911039  0.37445490  1
  O  O184  1  0.87980451  0.37991641  0.88113921  1
  O  O185  1  0.87947292  0.87691752  0.37899342  1
  O  O186  1  0.88060464  0.86753715  0.89490783  1
  O  O187  1  0.23365104  0.01385233  0.36592747  1
  O  O188  1  0.25430013  0.00994941  0.86579786  1
  O  O189  1  0.25178349  0.50138586  0.36934778  1
  O  O190  1  0.26483896  0.49057877  0.87510334  1
  O  O191  1  0.75126508  0.01188296  0.36854168  1
  O  O192  1  0.76944348  -0.00159892  0.88752337  1
  O  O193  1  0.75591295  0.50835913  0.36729673  1
  O  O194  1  0.75988478  0.49542306  0.86696453  1
  O  O195  1  0.24546268  0.49064569  0.12737067  1
  O  O196  1  0.23974251  0.49380855  0.62407870  1
  O  O197  1  0.24341633  0.98468568  0.13609699  1
  O  O198  1  0.25332128  0.99617628  0.63654215  1
  O  O199  1  0.74261095  0.49784913  0.13255192  1
  O  O200  1  0.74058395  0.49884482  0.63231411  1
  O  O201  1  0.75842956  0.99006919  0.13240064  1
  O  O202  1  0.75180229  0.98177636  0.62708555  1
  O  O203  1  0.01300906  0.37808183  0.25663389  1
  O  O204  1  -0.00011348  0.36345501  0.75739037  1
  O  O205  1  0.00350771  0.88080197  0.26262267  1
  O  O206  1  0.01199662  0.86135001  0.74589983  1
  O  O207  1  0.50536240  0.37335499  0.25456140  1
  O  O208  1  0.51008648  0.37426061  0.75592890  1
  O  O209  1  0.49687833  0.86071258  0.24649536  1
  O  O210  1  0.46052203  0.86072313  0.76847147  1
  O  O211  1  0.49309686  0.13415695  0.24229182  1
  O  O212  1  0.49095360  0.13890207  0.74408107  1
  O  O213  1  0.49227286  0.62818285  0.24015162  1
  O  O214  1  0.49078688  0.62694649  0.74138948  1
  O  O215  1  1.00266322  0.11879985  0.24002022  1
  O  O216  1  1.01341019  0.13921113  0.74306342  1
  O  O217  1  0.98471216  0.61623918  0.24970965  1
  O  O218  1  1.00065319  0.63713838  0.74340499  1
  O  O219  1  0.38056560  0.24840822  0.01197498  1
  O  O220  1  0.35989646  0.24989819  0.50351679  1
  O  O221  1  0.36811710  0.75839566  -0.01058696  1
  O  O222  1  0.35828586  0.77127508  0.45395814  1
  O  O223  1  0.87640958  0.25943591  0.00583176  1
  O  O224  1  0.88073542  0.25009287  0.50957239  1
  O  O225  1  0.86959895  0.74864307  0.00871029  1
  O  O226  1  0.87827498  0.75981050  0.50935064  1
  O  O227  1  0.13311622  0.24209620  0.49258648  1
  O  O228  1  0.12153734  0.23823253  0.98567251  1
  O  O229  1  0.12876778  0.75415102  0.48617460  1
  O  O230  1  0.13257115  0.74178559  0.99211967  1
  O  O231  1  0.61943987  0.26033646  0.48688813  1
  O  O232  1  0.62532428  0.24349281  0.99209240  1
  O  O233  1  0.62334391  0.74722391  0.48206773  1
  O  O234  1  0.63421165  0.74147312  0.99592746  1
  O  O235  1  0.48887378  0.24669509  0.12959457  1
  O  O236  1  0.48996401  0.24949619  0.62667277  1
  O  O237  1  0.50390118  0.73859824  0.13031870  1
  O  O238  1  0.50839884  0.73872107  0.62544504  1
  O  O239  1  0.99524190  0.23880040  0.12205375  1
  O  O240  1  0.99222412  0.24895763  0.63123504  1
  O  O241  1  0.98705475  0.74500250  0.12535519  1
  O  O242  1  0.99334703  0.74388952  0.63046263  1
  O  O243  1  0.01061562  0.25852791  0.37636379  1
  O  O244  1  0.00555721  0.25424227  0.86818186  1
  O  O245  1  0.00370594  0.75657320  0.37529290  1
  O  O246  1  0.01423090  0.75382651  0.86732233  1
  O  O247  1  0.50524395  0.25699303  0.36758036  1
  O  O248  1  0.50865562  0.25811313  0.87047959  1
  O  O249  1  0.51710273  0.73800602  0.36237738  1
  O  O250  1  0.51846545  0.75134823  0.88001752  1
  O  O251  1  0.24464014  0.12994010  0.49098118  1
  O  O252  1  0.24462428  0.11827404  0.99170348  1
  O  O253  1  0.25451268  0.62636929  0.48681262  1
  O  O254  1  0.24609780  0.63578472  1.00249789  1
  O  O255  1  0.75267207  0.11840841  0.48877563  1
  O  O256  1  0.73707941  0.12643517  1.00243933  1
  O  O257  1  0.74824684  0.62242779  0.48685276  1
  O  O258  1  0.74125217  0.63196040  1.00700539  1
  O  O259  1  0.24640365  0.37433033  0.01322808  1
  O  O260  1  0.24332321  0.36557918  0.51064662  1
  O  O261  1  0.25230337  0.86448927  0.00401884  1
  O  O262  1  0.24905689  0.87834825  0.51686781  1
  O  O263  1  0.76283198  0.37637302  0.00285883  1
  O  O264  1  0.74758786  0.38188092  0.49517600  1
  O  O265  1  0.76332084  0.86457961  0.00997424  1
  O  O266  1  0.75962418  0.87806907  0.49376595  1
  O  O267  1  0.12960669  0.49188220  0.24112904  1
  O  O268  1  0.12747938  0.49608177  0.74075967  1
  O  O269  1  0.13725944  0.98228384  0.24549174  1
  O  O270  1  0.13496121  0.99165642  0.74719690  1
  O  O271  1  0.62846795  0.49625724  0.24597825  1
  O  O272  1  0.62929189  0.49788814  0.74615373  1
  O  O273  1  0.63993793  1.00052579  0.24555333  1
  O  O274  1  0.58567201  0.98646970  0.73154692  1
  O  O275  1  0.36688327  0.01854599  0.23810326  1
  O  O276  1  0.37055929  0.01003465  0.76164872  1
  O  O277  1  0.36929957  0.50808004  0.25452767  1
  O  O278  1  0.37261442  0.50687799  0.75809377  1
  O  O279  1  0.86629759  0.00261637  0.25842220  1
  O  O280  1  0.89473623  0.01231120  0.74805524  1
  O  O281  1  0.86655779  0.50443275  0.25664963  1
  O  O282  1  0.86756173  0.49931997  0.75782834  1
  O  O283  1  0.11744727  0.36831000  0.36667983  1
  O  O284  1  0.11667132  0.36598132  0.87576007  1
  O  O285  1  0.11716197  0.86456342  0.36721546  1
  O  O286  1  0.12916737  0.86710451  0.86146807  1
  O  O287  1  0.61652175  0.37421834  0.36362095  1
  O  O288  1  0.61598823  0.37146374  0.86961394  1
  O  O289  1  0.63452289  0.86167299  0.36762151  1
  O  O290  1  0.62688011  0.85925786  0.88406158  1
  O  O291  1  0.37905590  0.13635465  0.12807095  1
  O  O292  1  0.37418938  0.14264425  0.62802495  1
  O  O293  1  0.38367962  0.61957824  0.13382391  1
  O  O294  1  0.38225821  0.61866890  0.63812061  1
  O  O295  1  0.88660184  0.13232060  0.12439037  1
  O  O296  1  0.87509930  0.13867717  0.62415155  1
  O  O297  1  0.87551782  0.63060294  0.13405250  1
  O  O298  1  0.88231136  0.63128811  0.62724195  1
  O  O299  1  0.26357466  0.25456138  0.12658710  1
  O  O300  1  0.25242794  0.25683293  0.61724195  1
  O  O301  1  0.24431548  0.75826697  0.11349822  1
  O  O302  1  0.25013625  0.76251043  0.62224134  1
  O  O303  1  0.76314022  0.25433573  0.12227252  1
  O  O304  1  0.76299740  0.25728345  0.62439105  1
  O  O305  1  0.75872380  0.75515597  0.11772294  1
  O  O306  1  0.76495736  0.75510969  0.63151294  1
  O  O307  1  0.23997821  0.24519037  0.37979570  1
  O  O308  1  0.24161429  0.24051771  0.86990672  1
  O  O309  1  0.23118010  0.73222851  0.36536007  1
  O  O310  1  0.24033087  0.75314232  0.88136404  1
  O  O311  1  0.74582968  0.23844728  0.37755588  1
  O  O312  1  0.73655881  0.25658313  0.87766534  1
  O  O313  1  0.73606159  0.73951439  0.36450106  1
  O  O314  1  0.74216443  0.74981528  0.88897940  1
  O  O315  1  0.01112667  0.12476287  0.01026367  1
  O  O316  1  0.00973617  0.11481789  0.49960069  1
  O  O317  1  0.01048597  0.61893491  0.00247039  1
  O  O318  1  -0.00162931  0.62961834  0.51106259  1
  O  O319  1  0.51012603  0.12035826  0.00547521  1
  O  O320  1  0.49511175  0.13482071  0.50936368  1
  O  O321  1  0.50566572  0.61874198  0.00655416  1
  O  O322  1  0.49484959  0.61818383  0.50720539  1
  O  O323  1  0.50061604  0.39161655  0.49199450  1
  O  O324  1  0.50599716  0.38552424  0.99142741  1
  O  O325  1  0.49587055  0.87460315  0.49253112  1
  O  O326  1  0.49388531  0.88315304  0.99979094  1
  O  O327  1  1.00894236  0.37345036  0.48533534  1
  O  O328  1  0.99103028  0.38043350  0.99319880  1
  O  O329  1  0.99559127  0.87947283  0.48903696  1
  O  O330  1  0.98714632  0.86518254  1.00396220  1
  O  O331  1  0.49009879  0.49962619  0.38125989  1
  O  O332  1  0.49409805  0.49353167  0.88172060  1
  O  O333  1  0.51301273  1.00221874  0.36707644  1
  O  O334  1  0.49195431  1.00258546  0.88528891  1
  O  O335  1  0.99162409  0.48545233  0.37260251  1
  O  O336  1  0.99357404  0.49255920  0.87856155  1
  O  O337  1  0.99498096  0.99240448  0.38227956  1
  O  O338  1  0.99969767  0.99292196  0.88266024  1
  O  O339  1  0.01593118  0.00451485  0.13166472  1
  O  O340  1  0.00537635  -0.00273762  0.60874228  1
  O  O341  1  0.00782734  0.50018249  0.11729175  1
  O  O342  1  0.01033005  0.50769908  0.62910322  1
  O  O343  1  0.49727696  0.01732154  0.11733373  1
  O  O344  1  0.47740816  0.02718749  0.61899600  1
  O  O345  1  0.50338372  0.50661932  0.11724001  1
  O  O346  1  0.50412205  0.50611665  0.61850179  1
  O  O347  1  0.23828136  0.37972269  0.24093126  1
  O  O348  1  0.24734460  0.37585134  0.73526044  1
  O  O349  1  0.23531030  0.86594746  0.23578482  1
  O  O350  1  0.24971482  0.88259928  0.74047540  1
  O  O351  1  0.73926965  0.39105291  0.24943494  1
  O  O352  1  0.73730270  0.38400367  0.74937804  1
  O  O353  1  0.75043169  0.88477906  0.24026515  1
  O  O354  1  0.75459744  0.87220636  0.74552930  1
  O  O355  1  0.25497654  0.12203154  0.25627644  1
  O  O356  1  0.25431634  0.11981206  0.75676459  1
  O  O357  1  0.25581202  0.61635478  0.25322330  1
  O  O358  1  0.26280788  0.62010270  0.74552327  1
  O  O359  1  0.75508388  0.11946170  0.25528444  1
  O  O360  1  0.73593693  0.12488461  0.75520888  1
  O  O361  1  0.75619400  0.61489071  0.25476176  1
  O  O362  1  0.75290130  0.61255791  0.74736692  1
  O  O363  1  0.36093117  0.13367588  0.36340965  1
  O  O364  1  0.36833116  0.12029211  0.87493805  1
  O  O365  1  0.36569569  0.61171973  0.36697958  1
  O  O366  1  0.38239662  0.61297768  0.86188287  1
  O  O367  1  0.86594077  0.12072411  0.37478427  1
  O  O368  1  0.86829542  0.12817954  0.86910473  1
  O  O369  1  0.86782105  0.61919828  0.36892990  1
  O  O370  1  0.88255506  0.61247627  0.87494837  1
  O  O371  1  0.12962280  0.37474058  0.12815979  1
  O  O372  1  0.12952780  0.38504548  0.62555268  1
  O  O373  1  0.12637989  0.87734852  0.12845403  1
  O  O374  1  0.13261991  0.87484235  0.63550539  1
  O  O375  1  0.62338609  0.38032420  0.13565777  1
  O  O376  1  0.62253812  0.38889707  0.63316070  1
  O  O377  1  0.63956816  0.86964511  0.12475808  1
  O  O378  1  0.64741937  0.86043539  0.62699302  1
  O  O379  1  0.13074962  0.25663286  0.25779274  1
  O  O380  1  0.11909700  0.25388532  0.76073533  1
  O  O381  1  0.11898446  0.75697837  0.25270426  1
  O  O382  1  0.12381033  0.75317285  0.75434479  1
  O  O383  1  0.62111669  0.26138243  0.25573067  1
  O  O384  1  0.61879884  0.26210851  0.75527000  1
  O  O385  1  0.61678042  0.75138778  0.25424431  1
  O  O386  1  0.62525020  0.74165263  0.76773809  1
  O  O387  1  0.37817657  0.24211792  0.24190352  1
  O  O388  1  0.37831916  0.24841699  0.74185371  1
  O  O389  1  0.38363310  0.73424822  0.26004994  1
  O  O390  1  0.37348408  0.73084756  0.75722794  1
  O  O391  1  0.87887244  0.24996583  0.23547752  1
  O  O392  1  0.88210361  0.24644558  0.73969237  1
  O  O393  1  0.86722641  0.73833697  0.24169254  1
  O  O394  1  0.88524917  0.74899007  0.74597993  1
  O  O395  1  0.37908836  0.50151731  0.49029153  1
  O  O396  1  0.38711423  0.50566902  0.99203743  1
  O  O397  1  0.38086419  0.99417346  0.48610652  1
  O  O398  1  0.38551060  0.99829776  0.99882183  1
  O  O399  1  0.87375905  0.50435868  0.48805509  1
  O  O400  1  0.87904702  0.49412751  0.99407377  1
  O  O401  1  0.88286673  0.99142414  0.49377390  1
  O  O402  1  0.88195779  0.98367136  1.01138243  1
  O  O403  1  0.13387406  0.00593363  0.01162923  1
  O  O404  1  0.11895723  0.00604101  0.49768037  1
  O  O405  1  0.12217565  0.50667849  0.00207857  1
  O  O406  1  0.12573683  0.49892844  0.51421473  1
  O  O407  1  0.61438563  0.00625543  -0.00323437  1
  O  O408  1  0.61343690  -0.00163229  0.51665189  1
  O  O409  1  0.61734429  0.50586941  0.00327006  1
  O  O410  1  0.61314834  0.50791244  0.50833490  1
  O  O411  1  0.36736636  0.36191512  0.12957784  1
  O  O412  1  0.36751248  0.36563741  0.62736004  1
  O  O413  1  0.36165215  0.87706742  0.10998186  1
  O  O414  1  0.36382331  0.87406954  0.62623046  1
  O  O415  1  0.87850873  0.36901760  0.11739146  1
  O  O416  1  0.87433564  0.36066256  0.62709660  1
  O  O417  1  0.87079722  0.86558826  0.11989610  1
  O  O418  1  0.86663703  0.86722175  0.61680244  1
  O  O419  1  0.12791558  0.13212640  0.38106375  1
  O  O420  1  0.13083584  0.12792980  0.88180375  1
  O  O421  1  0.12894510  0.62767745  0.37003570  1
  O  O422  1  0.12354933  0.62991303  0.88528805  1
  O  O423  1  0.64029611  0.13929056  0.37182356  1
  O  O424  1  0.62254230  0.13494045  0.88385109  1
  O  O425  1  0.63424059  0.63008916  0.37425270  1
  O  O426  1  0.62153287  0.63085377  0.88855501  1
