# generated using pymatgen
data_V85Zn86O256
_symmetry_space_group_name_H-M   'P 1'
_cell_length_a   16.95461907
_cell_length_b   16.93921212
_cell_length_c   16.94494674
_cell_angle_alpha   89.98537032
_cell_angle_beta   89.90477216
_cell_angle_gamma   90.03947999
_symmetry_Int_Tables_number   1
_chemical_formula_structural   V85Zn86O256
_chemical_formula_sum   'V85 Zn86 O256'
_cell_volume   4866.54489384
_cell_formula_units_Z   1
loop_
 _symmetry_equiv_pos_site_id
 _symmetry_equiv_pos_as_xyz
  1  'x, y, z'
loop_
 _atom_site_type_symbol
 _atom_site_label
 _atom_site_symmetry_multiplicity
 _atom_site_fract_x
 _atom_site_fract_y
 _atom_site_fract_z
 _atom_site_occupancy
  V  V0  1  0.74782287  0.87759564  0.62120236  1
  V  V1  1  0.49718972  0.00306317  0.50848784  1
  V  V2  1  0.38025948  0.12384986  0.74253592  1
  V  V3  1  0.74875309  0.38049203  0.62012157  1
  V  V4  1  0.74645010  -0.00452009  0.74900529  1
  V  V5  1  0.73648910  -0.00723821  0.24897683  1
  V  V6  1  0.38120372  0.25313802  0.61835652  1
  V  V7  1  0.87249619  0.75153213  0.63241900  1
  V  V8  1  0.87349287  -0.02117122  0.87713623  1
  V  V9  1  0.12623726  0.24484985  0.87860062  1
  V  V10  1  0.50462331  -0.00020669  0.00721796  1
  V  V11  1  0.25429743  0.37526200  0.61686356  1
  V  V12  1  0.68242328  0.42846631  0.79334807  1
  V  V13  1  0.12503431  -0.00650956  0.62980982  1
  V  V14  1  0.24008705  0.87783859  0.13045709  1
  V  V15  1  0.25088098  0.00290198  0.75275918  1
  V  V16  1  0.25056367  0.63140567  0.87590030  1
  V  V17  1  0.12276002  0.62387657  0.49821783  1
  V  V18  1  0.87752963  0.37891636  -0.00381647  1
  V  V19  1  0.12415916  0.37406168  0.74770765  1
  V  V20  1  0.62657319  0.74534719  0.87506404  1
  V  V21  1  0.24435227  -0.00663072  0.25313324  1
  V  V22  1  0.87412921  0.12046940  0.75067416  1
  V  V23  1  0.87436821  0.74587702  0.13127417  1
  V  V24  1  0.75039150  0.38335126  0.12611715  1
  V  V25  1  0.12654178  0.25479916  0.37393398  1
  V  V26  1  0.62014269  0.50199547  0.62481529  1
  V  V27  1  0.62651133  0.25371496  0.37379280  1
  V  V28  1  0.00129048  0.24930728  0.24123892  1
  V  V29  1  0.75313118  0.24618916  0.00570298  1
  V  V30  1  0.24969826  0.49212270  0.24421468  1
  V  V31  1  0.33692108  0.45731863  0.90614818  1
  V  V32  1  0.49915991  0.37811283  0.38130274  1
  V  V33  1  0.75063569  0.12499817  0.37283220  1
  V  V34  1  -0.00101499  -0.00262008  0.49928270  1
  V  V35  1  0.62554298  0.74981327  0.37845123  1
  V  V36  1  0.49229523  0.50770545  0.50798457  1
  V  V37  1  0.50015887  0.87670118  0.87447302  1
  V  V38  1  0.62786130  0.24611203  0.87396147  1
  V  V39  1  0.11926237  0.63539318  -0.00013782  1
  V  V40  1  0.48746526  0.12374160  0.13514934  1
  V  V41  1  0.75974317  0.75243578  -0.00550807  1
  V  V42  1  0.24926949  0.62362857  0.37429677  1
  V  V43  1  0.25023288  0.75022999  0.50030641  1
  V  V44  1  0.50746466  0.24996393  0.74514576  1
  V  V45  1  -0.00736357  0.37177648  0.37371709  1
  V  V46  1  0.75492719  0.25430223  0.49678720  1
  V  V47  1  0.00304659  0.87623099  0.36468275  1
  V  V48  1  0.49549828  0.74271149  0.74502362  1
  V  V49  1  -0.00446160  0.73660327  0.24810291  1
  V  V50  1  0.75083418  0.11916124  0.87768688  1
  V  V51  1  0.25098703  0.87138536  0.63076231  1
  V  V52  1  0.37464688  0.00209105  0.37202471  1
  V  V53  1  0.25423537  0.12841618  0.37186911  1
  V  V54  1  -0.00420936  0.50815433  0.00120627  1
  V  V55  1  0.01794083  0.75817745  0.75431485  1
  V  V56  1  0.37496100  0.88166753  0.00510710  1
  V  V57  1  0.62694129  0.12139067  0.01452133  1
  V  V58  1  0.87616084  0.25332388  0.61919134  1
  V  V59  1  -0.00683743  0.00179865  0.00620177  1
  V  V60  1  0.02338567  0.87657983  0.87843031  1
  V  V61  1  0.11401266  0.00304958  0.13296044  1
  V  V62  1  0.62488803  0.62681863  0.00960163  1
  V  V63  1  0.61990224  0.12718907  0.50612373  1
  V  V64  1  0.74145050  0.87769017  0.12014171  1
  V  V65  1  0.37610536  0.62348953  0.24962196  1
  V  V66  1  0.87873932  0.12257663  0.24102312  1
  V  V67  1  0.12558062  0.75425381  0.36498222  1
  V  V68  1  0.12009535  0.50478907  0.12885596  1
  V  V69  1  0.37327165  0.75365176  0.12790369  1
  V  V70  1  0.62455190  0.38587164  0.24603943  1
  V  V71  1  -0.00591640  0.63007046  0.62739653  1
  V  V72  1  0.50575627  0.75554412  0.24828420  1
  V  V73  1  0.12247259  0.49868076  0.62350159  1
  V  V74  1  -0.00988344  0.49536772  0.49959619  1
  V  V75  1  0.49940503  0.37579955  0.87848509  1
  V  V76  1  0.87458598  -0.00136680  0.37312235  1
  V  V77  1  0.87222381  0.50611796  0.36464096  1
  V  V78  1  0.24602317  0.75736845  -0.00431390  1
  V  V79  1  0.00010684  0.12251429  0.62296142  1
  V  V80  1  0.00113712  0.24605871  0.75147373  1
  V  V81  1  0.49166061  0.24931896  0.24998157  1
  V  V82  1  0.12778704  0.12624023  0.49985919  1
  V  V83  1  0.50292728  0.87696734  0.37303723  1
  V  V84  1  0.37243840  0.48857930  0.37763560  1
  Zn  Zn85  1  0.24759341  0.50323559  0.75165373  1
  Zn  Zn86  1  0.75177241  0.51399204  0.23680729  1
  Zn  Zn87  1  0.37555426  0.87315084  0.50123665  1
  Zn  Zn88  1  0.62469354  0.62759823  0.50542882  1
  Zn  Zn89  1  0.61944266  0.00451314  0.62873958  1
  Zn  Zn90  1  0.62205603  0.87432601  0.74761664  1
  Zn  Zn91  1  0.50155159  0.61828396  0.12626029  1
  Zn  Zn92  1  0.37686179  0.73865757  0.62522651  1
  Zn  Zn93  1  0.75319400  0.63115006  0.37297112  1
  Zn  Zn94  1  0.25955671  0.25510273  0.49471966  1
  Zn  Zn95  1  0.87552514  0.87252695  0.49850345  1
  Zn  Zn96  1  0.31155581  0.30862382  0.04313513  1
  Zn  Zn97  1  0.37868018  0.00536424  0.87402730  1
  Zn  Zn98  1  0.37772319  0.60779019  0.75468352  1
  Zn  Zn99  1  0.88179733  0.24667021  0.12173383  1
  Zn  Zn100  1  0.83177154  0.55722895  0.80862326  1
  Zn  Zn101  1  -0.01199616  0.38922826  0.86320830  1
  Zn  Zn102  1  0.16392019  0.33647555  0.19941511  1
  Zn  Zn103  1  0.12227595  0.12655859  0.00623584  1
  Zn  Zn104  1  0.27787924  0.15738969  0.90833606  1
  Zn  Zn105  1  0.50172030  0.49375219  0.00394501  1
  Zn  Zn106  1  0.75086499  0.74753780  0.50164006  1
  Zn  Zn107  1  0.19150018  0.17383363  0.18641521  1
  Zn  Zn108  1  0.19241471  0.18580837  0.68662520  1
  Zn  Zn109  1  0.18719620  0.68571930  0.18626339  1
  Zn  Zn110  1  0.18720850  0.68379528  0.68663357  1
  Zn  Zn111  1  0.68899694  0.18991730  0.19068491  1
  Zn  Zn112  1  0.68983735  0.18787101  0.68667990  1
  Zn  Zn113  1  0.69109598  0.69116947  0.19108080  1
  Zn  Zn114  1  0.68814800  0.68161778  0.69313356  1
  Zn  Zn115  1  0.32217708  0.30698282  0.21187526  1
  Zn  Zn116  1  0.31202466  0.31064439  0.80108381  1
  Zn  Zn117  1  0.31650039  0.81458485  0.31443817  1
  Zn  Zn118  1  0.31318310  0.81639717  0.81550766  1
  Zn  Zn119  1  0.81579536  0.31668308  0.30880813  1
  Zn  Zn120  1  0.81783254  0.30457756  0.81563884  1
  Zn  Zn121  1  0.81227111  0.81394391  0.31040159  1
  Zn  Zn122  1  0.81731630  0.71757069  0.81467058  1
  Zn  Zn123  1  0.18479114  0.43651868  0.43576702  1
  Zn  Zn124  1  0.16730107  0.43930909  0.93717056  1
  Zn  Zn125  1  0.18630893  0.93563772  0.44056600  1
  Zn  Zn126  1  0.19806204  0.96670761  0.95139011  1
  Zn  Zn127  1  0.68682328  0.44049925  0.43992113  1
  Zn  Zn128  1  0.68770252  0.43966824  0.95610014  1
  Zn  Zn129  1  0.68385535  0.93662954  0.43761182  1
  Zn  Zn130  1  0.68415502  0.93391855  0.93793126  1
  Zn  Zn131  1  0.32034532  0.09387642  0.05191025  1
  Zn  Zn132  1  0.31390766  0.06438316  0.56299234  1
  Zn  Zn133  1  0.30943023  0.56471015  0.06429719  1
  Zn  Zn134  1  0.31412194  0.56333756  0.56666504  1
  Zn  Zn135  1  0.81402917  0.05506750  0.06433328  1
  Zn  Zn136  1  0.81110586  0.06452237  0.56056305  1
  Zn  Zn137  1  0.81289600  0.56960194  0.05302800  1
  Zn  Zn138  1  0.81009088  0.56658101  0.55959328  1
  Zn  Zn139  1  0.43643042  0.43557499  0.17460519  1
  Zn  Zn140  1  0.43405315  0.43658989  0.70197939  1
  Zn  Zn141  1  0.43548210  0.94175851  0.18962500  1
  Zn  Zn142  1  0.43375809  0.92990198  0.68622274  1
  Zn  Zn143  1  0.94171236  0.43438348  0.18474011  1
  Zn  Zn144  1  0.93387954  0.43479989  0.68231987  1
  Zn  Zn145  1  0.92881679  0.92901722  0.18741764  1
  Zn  Zn146  1  0.93600818  0.93050954  0.69314531  1
  Zn  Zn147  1  0.06307224  0.06481360  0.31167554  1
  Zn  Zn148  1  0.06197195  0.05928893  0.81273526  1
  Zn  Zn149  1  0.06192990  0.56041413  0.31246101  1
  Zn  Zn150  1  0.02034368  0.54855349  0.79676398  1
  Zn  Zn151  1  0.56198665  0.06469813  0.31840246  1
  Zn  Zn152  1  0.56201253  0.06609535  0.81509385  1
  Zn  Zn153  1  0.56191548  0.56622886  0.31295336  1
  Zn  Zn154  1  0.55938071  0.56643760  0.82320328  1
  Zn  Zn155  1  0.43752226  0.18872709  0.43469017  1
  Zn  Zn156  1  0.44211270  0.19100821  0.93943364  1
  Zn  Zn157  1  0.43720816  0.68441614  0.43544622  1
  Zn  Zn158  1  0.43653208  0.69073117  0.93924431  1
  Zn  Zn159  1  0.93784965  0.18489722  0.43320848  1
  Zn  Zn160  1  0.93763045  0.18323221  0.93577434  1
  Zn  Zn161  1  0.93617358  0.68869235  0.44041805  1
  Zn  Zn162  1  0.94304263  0.69603035  0.93936382  1
  Zn  Zn163  1  0.06128111  0.31683964  0.05604401  1
  Zn  Zn164  1  0.06216135  0.31278938  0.55945498  1
  Zn  Zn165  1  0.05672678  0.81893564  0.06451146  1
  Zn  Zn166  1  0.06315348  0.81319633  0.55704597  1
  Zn  Zn167  1  0.56211790  0.30858711  0.06673811  1
  Zn  Zn168  1  0.56478324  0.32011489  0.56340365  1
  Zn  Zn169  1  0.56523731  0.81107012  0.06470055  1
  Zn  Zn170  1  0.56287956  0.81621811  0.56254180  1
  O  O171  1  0.12123390  0.10798969  0.12543563  1
  O  O172  1  0.12214813  0.11802247  0.61664608  1
  O  O173  1  0.12991922  0.61557709  0.11534311  1
  O  O174  1  0.11421583  0.61970237  0.61834554  1
  O  O175  1  0.62426913  0.12780844  0.11666958  1
  O  O176  1  0.63040040  0.12549894  0.60959165  1
  O  O177  1  0.62190446  0.63881872  0.11232930  1
  O  O178  1  0.62934244  0.60652244  0.62689474  1
  O  O179  1  0.38467630  0.38772195  0.37016058  1
  O  O180  1  0.38732330  0.36315967  0.87427344  1
  O  O181  1  0.38380022  0.88267989  0.38114522  1
  O  O182  1  0.38716257  0.87707090  0.88574792  1
  O  O183  1  0.88682203  0.38227660  0.37476140  1
  O  O184  1  0.87476822  0.36838009  0.89057288  1
  O  O185  1  0.88246308  0.88231397  0.37654443  1
  O  O186  1  0.88133499  0.88188121  0.86950529  1
  O  O187  1  0.25506585  0.00274191  0.37376067  1
  O  O188  1  0.25889271  -0.01417726  0.85468390  1
  O  O189  1  0.25502492  0.50460886  0.37062847  1
  O  O190  1  0.24238544  0.51222750  0.87664917  1
  O  O191  1  0.75374516  0.00172330  0.36585869  1
  O  O192  1  0.75502330  -0.00077697  0.86882825  1
  O  O193  1  0.76813904  0.49433709  0.37762069  1
  O  O194  1  0.74067091  0.48274492  0.85661380  1
  O  O195  1  0.24002938  0.50393265  0.13441433  1
  O  O196  1  0.24000323  0.49206856  0.62822936  1
  O  O197  1  0.24001199  0.99408333  0.13868514  1
  O  O198  1  0.24456910  0.99231073  0.62981199  1
  O  O199  1  0.75459096  0.48776469  0.11997828  1
  O  O200  1  0.74705616  0.48705151  0.61872380  1
  O  O201  1  0.75130573  0.98871900  0.13597254  1
  O  O202  1  0.74899976  0.99679071  0.63134216  1
  O  O203  1  -0.00006758  0.36404671  0.25916702  1
  O  O204  1  0.00840414  0.35928709  0.74365397  1
  O  O205  1  -0.00332771  0.86641975  0.26204110  1
  O  O206  1  0.00547919  0.86919825  0.76232235  1
  O  O207  1  0.50852906  0.36778078  0.25820272  1
  O  O208  1  0.50140010  0.35976676  0.76397686  1
  O  O209  1  0.49150835  0.86806366  0.25987780  1
  O  O210  1  0.50138399  0.86933561  0.75985940  1
  O  O211  1  0.51053526  0.13118947  0.24039724  1
  O  O212  1  0.49509342  0.13779652  0.75072724  1
  O  O213  1  0.49090011  0.63392012  0.24914095  1
  O  O214  1  0.49585971  0.63921446  0.76060025  1
  O  O215  1  0.98924123  0.13522133  0.25825188  1
  O  O216  1  0.99553798  0.12952035  0.74221880  1
  O  O217  1  1.00226632  0.63741175  0.25258082  1
  O  O218  1  1.00699252  0.64591394  0.73997700  1
  O  O219  1  0.34519210  0.20746385  -0.00408597  1
  O  O220  1  0.37823380  0.24840361  0.51334556  1
  O  O221  1  0.36601800  0.76018440  0.00885395  1
  O  O222  1  0.36005336  0.74604426  0.49819648  1
  O  O223  1  0.86970256  0.25296527  0.00212345  1
  O  O224  1  0.86687670  0.24253324  0.50674160  1
  O  O225  1  0.86409185  0.75462255  0.01065787  1
  O  O226  1  0.87513910  0.75315850  0.51428493  1
  O  O227  1  0.12413894  0.23773542  0.49453644  1
  O  O228  1  0.11947025  0.24722108  0.98413368  1
  O  O229  1  0.13375582  0.74460515  0.48995810  1
  O  O230  1  0.13079672  0.74286079  1.01393611  1
  O  O231  1  0.63021715  0.24711996  0.49072176  1
  O  O232  1  0.63542141  0.24081567  0.99605782  1
  O  O233  1  0.62438645  0.74901182  0.49334757  1
  O  O234  1  0.63235590  0.74716473  0.99334770  1
  O  O235  1  0.50492148  0.23497467  0.13568201  1
  O  O236  1  0.49536494  0.26034214  0.63328818  1
  O  O237  1  0.49038961  0.75257161  0.13387204  1
  O  O238  1  0.50065868  0.75523455  0.64186387  1
  O  O239  1  1.00382956  0.25482726  0.13681370  1
  O  O240  1  0.99321042  0.24341090  0.62806866  1
  O  O241  1  0.98422219  0.76051577  0.13392244  1
  O  O242  1  0.99845076  0.74788598  0.63011994  1
  O  O243  1  0.00501399  0.25584112  0.36930019  1
  O  O244  1  0.00408890  0.25057482  0.86241426  1
  O  O245  1  0.00558296  0.75549812  0.36934575  1
  O  O246  1  0.00729464  0.76511248  0.86560159  1
  O  O247  1  0.51000494  0.25870533  0.37327136  1
  O  O248  1  0.51132984  0.25308560  0.87156655  1
  O  O249  1  0.50145932  0.75900751  0.37038118  1
  O  O250  1  0.50642248  0.75873299  0.87020847  1
  O  O251  1  0.24182684  0.12498352  0.49144962  1
  O  O252  1  0.23140915  0.08369129  0.98348955  1
  O  O253  1  0.24218242  0.63038146  0.49399095  1
  O  O254  1  0.24328140  0.63989197  0.99996265  1
  O  O255  1  0.74390403  0.13585870  0.49238356  1
  O  O256  1  0.74583448  0.12743548  1.00002795  1
  O  O257  1  0.74453474  0.62903366  0.49149161  1
  O  O258  1  0.73700639  0.64035560  1.00231134  1
  O  O259  1  0.26984396  0.39200460  -0.03447667  1
  O  O260  1  0.24390633  0.37329274  0.51246762  1
  O  O261  1  0.25395935  0.87589206  0.01068240  1
  O  O262  1  0.25028560  0.86630757  0.50876464  1
  O  O263  1  0.75534508  0.36518832  0.00728428  1
  O  O264  1  0.74562498  0.36216762  0.50570558  1
  O  O265  1  0.74509049  0.87066829  0.01280683  1
  O  O266  1  0.75175167  0.87758430  0.51116699  1
  O  O267  1  0.13117915  0.50530230  0.23795991  1
  O  O268  1  0.11505808  0.48832486  0.74129728  1
  O  O269  1  0.13021099  0.99786422  0.24722326  1
  O  O270  1  0.13447570  1.00824868  0.73848100  1
  O  O271  1  0.62678451  0.48830374  0.25683252  1
  O  O272  1  0.61933701  0.49617510  0.74654385  1
  O  O273  1  0.63887544  1.00466713  0.25606533  1
  O  O274  1  0.63220006  1.00154300  0.74887089  1
  O  O275  1  0.36531082  -0.00317541  0.26579814  1
  O  O276  1  0.37115612  0.00793354  0.74463551  1
  O  O277  1  0.36731778  0.50668839  0.25466288  1
  O  O278  1  0.36453527  0.49070299  0.78082100  1
  O  O279  1  0.86860816  0.00602288  0.25638647  1
  O  O280  1  0.86794594  0.00319436  0.75668202  1
  O  O281  1  0.87516884  0.49467306  0.26167292  1
  O  O282  1  0.91802522  0.49347190  0.77450017  1
  O  O283  1  0.11682207  0.36038459  0.37994880  1
  O  O284  1  0.11516107  0.36235693  0.86366593  1
  O  O285  1  0.11672098  0.86497056  0.38021898  1
  O  O286  1  0.11976234  0.88978232  0.88149382  1
  O  O287  1  0.62017672  0.37070669  0.36957086  1
  O  O288  1  0.62999713  0.37163158  0.86776636  1
  O  O289  1  0.61074895  0.86731194  0.37863412  1
  O  O290  1  0.61282993  0.86750475  0.87498088  1
  O  O291  1  0.38828820  0.12048580  0.13839863  1
  O  O292  1  0.37356358  0.13550205  0.63320623  1
  O  O293  1  0.37184706  0.63298825  0.13751807  1
  O  O294  1  0.36342267  0.62699261  0.64241861  1
  O  O295  1  0.87143150  0.12502649  0.13734633  1
  O  O296  1  0.87827618  0.13379991  0.62999812  1
  O  O297  1  0.86567042  0.64585498  0.12245014  1
  O  O298  1  0.88819892  0.63222403  0.61999981  1
  O  O299  1  0.23959510  0.26380898  0.13978287  1
  O  O300  1  0.25931592  0.25764122  0.62196984  1
  O  O301  1  0.25392960  0.76011314  0.12168389  1
  O  O302  1  0.24431457  0.75628514  0.61564089  1
  O  O303  1  0.75278972  0.25489178  0.11542784  1
  O  O304  1  0.75665664  0.25636452  0.61678534  1
  O  O305  1  0.75519277  0.76015019  0.12061534  1
  O  O306  1  0.75663403  0.76050755  0.62679003  1
  O  O307  1  0.24002101  0.23989405  0.37808297  1
  O  O308  1  0.23001435  0.25057234  0.86124148  1
  O  O309  1  0.24292403  0.74684273  0.37895323  1
  O  O310  1  0.24836226  0.75373682  0.89004397  1
  O  O311  1  0.74642901  0.24926529  0.37960896  1
  O  O312  1  0.74761237  0.24113925  0.88651854  1
  O  O313  1  0.73832999  0.75731385  0.37784068  1
  O  O314  1  0.73898938  0.76688838  0.88590128  1
  O  O315  1  0.00111067  0.10668357  -0.00559579  1
  O  O316  1  0.00687284  0.11848996  0.50396525  1
  O  O317  1  0.01229001  0.62647081  0.00264656  1
  O  O318  1  0.00625537  0.61977792  0.50575821  1
  O  O319  1  0.50727508  0.12076453  0.01486191  1
  O  O320  1  0.50927591  0.11670937  0.49147974  1
  O  O321  1  0.51370258  0.63257599  0.00131141  1
  O  O322  1  0.49982868  0.61131380  0.50010076  1
  O  O323  1  0.50454180  0.38382414  0.48595905  1
  O  O324  1  0.51236163  0.36935937  0.98500976  1
  O  O325  1  0.49760858  0.88488490  0.49240221  1
  O  O326  1  0.49785594  0.88309214  0.99878361  1
  O  O327  1  1.00405223  0.38412569  0.49030670  1
  O  O328  1  0.99032620  0.38652624  0.99886984  1
  O  O329  1  0.99868751  0.88213005  0.48869766  1
  O  O330  1  1.00003436  0.88157571  0.98425038  1
  O  O331  1  0.49253702  0.49592001  0.38138784  1
  O  O332  1  0.50492981  0.48469413  0.88142675  1
  O  O333  1  0.49274167  0.99512779  0.37977989  1
  O  O334  1  0.50009701  0.99322001  0.88401220  1
  O  O335  1  0.99304532  0.49188099  0.37819310  1
  O  O336  1  1.02161706  0.49834811  0.89900218  1
  O  O337  1  0.99595054  0.99339707  0.37748868  1
  O  O338  1  0.99391066  0.98964620  0.87827720  1
  O  O339  1  0.00145834  -0.01276487  0.11927929  1
  O  O340  1  0.00666038  0.00284000  0.62283216  1
  O  O341  1  0.01007843  0.50324392  0.11880767  1
  O  O342  1  0.00194748  0.50726884  0.61597211  1
  O  O343  1  0.50117562  0.01211386  0.12267689  1
  O  O344  1  0.49835428  -0.00486150  0.61185202  1
  O  O345  1  0.49837068  0.50514922  0.11682115  1
  O  O346  1  0.50521498  0.48619113  0.61860860  1
  O  O347  1  0.24846991  0.38905700  0.26071307  1
  O  O348  1  0.23509104  0.37527658  0.74015046  1
  O  O349  1  0.25276713  0.88430421  0.24662713  1
  O  O350  1  0.25510993  0.87926742  0.73595886  1
  O  O351  1  0.74362671  0.37744097  0.24098736  1
  O  O352  1  0.74942220  0.36747031  0.74139928  1
  O  O353  1  0.74915740  0.88852325  0.24570013  1
  O  O354  1  0.74712657  0.88994700  0.73875312  1
  O  O355  1  0.24530103  0.10977314  0.26529592  1
  O  O356  1  0.26123408  0.11503507  0.74623698  1
  O  O357  1  0.25603350  0.61793134  0.25665615  1
  O  O358  1  0.24165832  0.62349901  0.76470067  1
  O  O359  1  0.75599701  0.11610982  0.25440791  1
  O  O360  1  0.75410651  0.11469861  0.75466153  1
  O  O361  1  0.74167024  0.62222442  0.26059392  1
  O  O362  1  0.76776607  0.63399937  0.75241463  1
  O  O363  1  0.36401915  0.11679344  0.38193815  1
  O  O364  1  0.37826069  0.12398821  0.85744359  1
  O  O365  1  0.36994258  0.61749176  0.36412360  1
  O  O366  1  0.35613163  0.63749204  0.87552396  1
  O  O367  1  0.86782399  0.11819325  0.36651643  1
  O  O368  1  0.86749416  0.11757938  0.86764634  1
  O  O369  1  0.87898056  0.60908275  0.37668479  1
  O  O370  1  0.86850863  0.63929547  0.88143361  1
  O  O371  1  0.12249369  0.39683354  0.11375843  1
  O  O372  1  0.12921313  0.37748676  0.62936476  1
  O  O373  1  0.13507136  0.88166365  0.12610731  1
  O  O374  1  0.13133733  0.88843404  0.61578351  1
  O  O375  1  0.63581377  0.36733475  0.13544492  1
  O  O376  1  0.63668983  0.38498382  0.62799644  1
  O  O377  1  0.64157591  0.86746024  0.13054571  1
  O  O378  1  0.63382905  0.88146455  0.62728733  1
  O  O379  1  0.11781761  0.24543888  0.25877193  1
  O  O380  1  0.11654074  0.25219599  0.75070841  1
  O  O381  1  0.11961388  0.74728519  0.25994207  1
  O  O382  1  0.11581457  0.75856537  0.74199731  1
  O  O383  1  0.62271577  0.25667493  0.26264850  1
  O  O384  1  0.61968159  0.24148383  0.75877818  1
  O  O385  1  0.60970001  0.74947454  0.25786180  1
  O  O386  1  0.61397050  0.75113981  0.75773644  1
  O  O387  1  0.39402313  0.24271114  0.27034826  1
  O  O388  1  0.38365262  0.24292111  0.73918614  1
  O  O389  1  0.38121578  0.74275297  0.24858827  1
  O  O390  1  0.39057455  0.75444126  0.75351243  1
  O  O391  1  0.88271263  0.24151882  0.24809249  1
  O  O392  1  0.88308880  0.24241508  0.74227404  1
  O  O393  1  0.88086198  0.75064623  0.24186232  1
  O  O394  1  0.89297866  0.75988570  0.73504028  1
  O  O395  1  0.37916041  0.50317615  0.49036461  1
  O  O396  1  0.37720383  0.51113659  0.98397172  1
  O  O397  1  0.38090586  1.00017730  0.49145202  1
  O  O398  1  0.38961290  1.00038413  1.00022097  1
  O  O399  1  0.88711951  0.50235061  0.49193535  1
  O  O400  1  0.88400496  0.49428976  1.00340867  1
  O  O401  1  0.88167467  1.00244504  0.49077248  1
  O  O402  1  0.87953106  0.99960506  0.98921718  1
  O  O403  1  0.10777031  -0.00548057  0.01663575  1
  O  O404  1  0.11969358  0.01031457  0.50534506  1
  O  O405  1  0.12169266  0.51560880  0.01243705  1
  O  O406  1  0.11476509  0.50512666  0.50313506  1
  O  O407  1  0.61359803  0.00715949  -0.00205257  1
  O  O408  1  0.61580074  0.01073357  0.49826501  1
  O  O409  1  0.62623402  0.52286847  -0.00393637  1
  O  O410  1  0.61407788  0.50074884  0.50827951  1
  O  O411  1  0.37352625  0.35901877  0.12575819  1
  O  O412  1  0.36383009  0.36734523  0.63562017  1
  O  O413  1  0.36404899  0.87463693  0.12274285  1
  O  O414  1  0.36515249  0.86397126  0.61917868  1
  O  O415  1  0.86870507  0.37012873  0.11539700  1
  O  O416  1  0.86725920  0.36122419  0.62618220  1
  O  O417  1  0.85579626  0.86237990  0.13155822  1
  O  O418  1  0.86645229  0.87107201  0.62255637  1
  O  O419  1  0.12905970  0.13244948  0.38289207  1
  O  O420  1  0.11795473  0.14105461  0.87145575  1
  O  O421  1  0.12933831  0.63148408  0.37959647  1
  O  O422  1  0.13537902  0.63032322  0.89820041  1
  O  O423  1  0.63191688  0.13534678  0.38235414  1
  O  O424  1  0.63283789  0.12692048  0.88840144  1
  O  O425  1  0.61793650  0.64167451  0.37946584  1
  O  O426  1  0.62349168  0.64052436  0.88487904  1
