# generated using pymatgen
data_V85Zn86O256
_symmetry_space_group_name_H-M   'P 1'
_cell_length_a   16.94104998
_cell_length_b   16.93622730
_cell_length_c   16.93890072
_cell_angle_alpha   90.08101344
_cell_angle_beta   89.95784842
_cell_angle_gamma   90.05490125
_symmetry_Int_Tables_number   1
_chemical_formula_structural   V85Zn86O256
_chemical_formula_sum   'V85 Zn86 O256'
_cell_volume   4860.05819345
_cell_formula_units_Z   1
loop_
 _symmetry_equiv_pos_site_id
 _symmetry_equiv_pos_as_xyz
  1  'x, y, z'
loop_
 _atom_site_type_symbol
 _atom_site_label
 _atom_site_symmetry_multiplicity
 _atom_site_fract_x
 _atom_site_fract_y
 _atom_site_fract_z
 _atom_site_occupancy
  V  V0  1  0.13660682  -0.00164270  0.12894850  1
  V  V1  1  0.25157370  0.12761849  0.87378124  1
  V  V2  1  0.87133519  0.37376880  0.49956533  1
  V  V3  1  0.25160288  0.25271744  -0.00285678  1
  V  V4  1  0.87413803  0.62806356  0.24894900  1
  V  V5  1  0.50171974  0.74663961  0.75373858  1
  V  V6  1  0.12691919  0.74961836  0.87336028  1
  V  V7  1  0.49832052  0.87325951  0.37544967  1
  V  V8  1  0.62923125  0.74747082  0.88997918  1
  V  V9  1  -0.00074825  0.50265627  0.49871636  1
  V  V10  1  0.76313817  0.62635131  0.87682149  1
  V  V11  1  0.37663017  -0.00037757  0.87499928  1
  V  V12  1  -0.00489477  0.74200535  0.74904920  1
  V  V13  1  0.25103270  0.00060123  0.74875709  1
  V  V14  1  -0.01116928  0.50024833  -0.00464282  1
  V  V15  1  0.00125787  0.24351420  0.74680493  1
  V  V16  1  0.38567109  0.12555277  0.74556461  1
  V  V17  1  0.12556681  0.62346483  -0.00227941  1
  V  V18  1  0.62299311  0.60462970  0.00443410  1
  V  V19  1  0.61549666  0.38110832  0.24237378  1
  V  V20  1  0.12538953  0.50183647  0.62726347  1
  V  V21  1  -0.00077673  0.87688383  0.87481787  1
  V  V22  1  0.74794503  0.50137950  0.23911542  1
  V  V23  1  -0.00868048  0.12943735  0.13046380  1
  V  V24  1  0.50602111  0.37701334  0.86315014  1
  V  V25  1  0.24921983  0.25054125  0.49750302  1
  V  V26  1  0.63065192  0.63299326  0.50321861  1
  V  V27  1  0.50455414  0.62139165  0.62512543  1
  V  V28  1  0.63436814  0.87518050  0.75390302  1
  V  V29  1  0.50021501  0.87412057  0.87738873  1
  V  V30  1  0.24628707  0.12019342  0.37340585  1
  V  V31  1  0.25173422  0.74862746  0.49647312  1
  V  V32  1  0.25344263  0.38446963  0.62203671  1
  V  V33  1  0.86472504  0.75246489  0.12151231  1
  V  V34  1  0.62470944  0.26786959  0.37681640  1
  V  V35  1  0.12772848  0.74710180  0.37305582  1
  V  V36  1  0.50550343  0.49159408  0.49220246  1
  V  V37  1  0.38497662  0.37900631  -0.00240816  1
  V  V38  1  0.86191564  0.73982310  0.62833202  1
  V  V39  1  0.37312335  0.87518909  0.01000425  1
  V  V40  1  -0.00098979  -0.00128730  0.00352360  1
  V  V41  1  0.62589352  0.13128837  0.00021232  1
  V  V42  1  0.11706729  0.00850200  0.62366116  1
  V  V43  1  0.63040040  0.25406804  0.86893692  1
  V  V44  1  0.75346203  0.13022123  0.87980195  1
  V  V45  1  0.14118442  0.88096662  0.24920747  1
  V  V46  1  0.12969479  0.37579396  0.74818148  1
  V  V47  1  0.74630567  0.87718125  0.11941945  1
  V  V48  1  0.75979537  0.49465407  0.76035513  1
  V  V49  1  0.25155047  0.75305531  0.00415075  1
  V  V50  1  -0.00324456  0.37241964  0.37269552  1
  V  V51  1  0.12140748  0.62565283  0.49541787  1
  V  V52  1  0.25097860  0.51324133  0.25585678  1
  V  V53  1  0.37722662  0.00153051  0.37578009  1
  V  V54  1  -0.00179792  0.62676179  0.12472112  1
  V  V55  1  0.74817934  0.88010313  0.61971647  1
  V  V56  1  -0.00686329  0.37763163  0.87128604  1
  V  V57  1  0.49556365  0.61290918  0.12554957  1
  V  V58  1  0.87718897  0.24584572  0.62204299  1
  V  V59  1  0.12281829  0.49986438  0.12212937  1
  V  V60  1  0.37944322  0.88140054  0.50335505  1
  V  V61  1  0.37154124  0.61756137  0.74450825  1
  V  V62  1  0.24953974  0.37731295  0.12266166  1
  V  V63  1  0.12453228  0.37282392  0.24866668  1
  V  V64  1  0.61341665  0.00769608  0.62981649  1
  V  V65  1  0.75111887  0.35870097  0.12189287  1
  V  V66  1  0.38203654  0.50160392  0.87503641  1
  V  V67  1  0.62585982  0.00434776  0.13078767  1
  V  V68  1  0.37930024  0.25174082  0.12591192  1
  V  V69  1  0.75001324  0.63715477  0.37622020  1
  V  V70  1  0.62657648  0.87631715  0.25221467  1
  V  V71  1  0.87225199  0.50261177  0.37430698  1
  V  V72  1  0.87358303  0.35986820  0.00300133  1
  V  V73  1  0.86795763  -0.00096637  0.87379429  1
  V  V74  1  -0.00160799  0.76012013  0.24719235  1
  V  V75  1  0.37424471  0.74921875  0.62557548  1
  V  V76  1  0.74430090  0.37393532  0.62899295  1
  V  V77  1  0.87339024  0.11850814  0.74507276  1
  V  V78  1  0.38124819  0.24832836  0.62275887  1
  V  V79  1  0.12553625  0.87369913  0.74820743  1
  V  V80  1  0.85286968  0.12636987  0.26041113  1
  V  V81  1  0.37234769  0.12189311  0.24988877  1
  V  V82  1  0.25058715  0.61780569  0.87009357  1
  V  V83  1  0.12693679  0.12473518  0.00158138  1
  V  V84  1  0.62066595  0.11481497  0.48523624  1
  Zn  Zn85  1  -0.00676382  0.62344156  0.62765665  1
  Zn  Zn86  1  0.12187303  0.24662019  0.37287391  1
  Zn  Zn87  1  -0.00064058  0.88078678  0.38210694  1
  Zn  Zn88  1  0.50051158  0.00327249  0.00135919  1
  Zn  Zn89  1  -0.01036866  0.25319011  0.24309341  1
  Zn  Zn90  1  0.12620205  0.25120674  0.87307173  1
  Zn  Zn91  1  0.49438686  0.74302749  0.24754095  1
  Zn  Zn92  1  0.49365177  0.25642675  0.25986292  1
  Zn  Zn93  1  0.49981935  0.12674161  0.12492560  1
  Zn  Zn94  1  0.86500714  0.00996364  0.38105021  1
  Zn  Zn95  1  0.75255625  0.24064663  0.49136082  1
  Zn  Zn96  1  0.87549945  0.87459579  0.49919480  1
  Zn  Zn97  1  0.86792313  0.87322228  -0.00137257  1
  Zn  Zn98  1  0.24990119  0.87558085  0.62426809  1
  Zn  Zn99  1  0.62313749  0.75216873  0.37661824  1
  Zn  Zn100  1  0.62855197  0.49593362  0.63384621  1
  Zn  Zn101  1  0.38414875  0.37091142  0.48693943  1
  Zn  Zn102  1  0.50910270  0.24982447  0.74296181  1
  Zn  Zn103  1  -0.01153306  0.00735294  0.50119690  1
  Zn  Zn104  1  0.37320593  0.74439601  0.13457162  1
  Zn  Zn105  1  0.11794444  0.12874457  0.50126203  1
  Zn  Zn106  1  0.37923486  0.50402410  0.36495220  1
  Zn  Zn107  1  0.18845036  0.18749387  0.18730924  1
  Zn  Zn108  1  0.19441565  0.19014247  0.68598464  1
  Zn  Zn109  1  0.18517325  0.69154742  0.18392789  1
  Zn  Zn110  1  0.18772430  0.68555281  0.68310023  1
  Zn  Zn111  1  0.68117571  0.19210825  0.19180224  1
  Zn  Zn112  1  0.69523363  0.18368905  0.69034545  1
  Zn  Zn113  1  0.68058715  0.69040399  0.18769477  1
  Zn  Zn114  1  0.68799611  0.68300600  0.69896289  1
  Zn  Zn115  1  0.31288448  0.31802617  0.31423693  1
  Zn  Zn116  1  0.31435903  0.31400568  0.80816421  1
  Zn  Zn117  1  0.31654381  0.80727095  0.31371275  1
  Zn  Zn118  1  0.31346818  0.80917964  0.81513580  1
  Zn  Zn119  1  0.80901519  0.30778394  0.30738204  1
  Zn  Zn120  1  0.81469339  0.31069886  0.81215791  1
  Zn  Zn121  1  0.80153285  0.84258554  0.32676766  1
  Zn  Zn122  1  0.81231147  0.80835969  0.81367319  1
  Zn  Zn123  1  0.18794108  0.43543164  0.43623937  1
  Zn  Zn124  1  0.18754940  0.43840467  0.93408496  1
  Zn  Zn125  1  0.18892583  0.93586763  0.43758924  1
  Zn  Zn126  1  0.18829057  0.93846095  0.93781570  1
  Zn  Zn127  1  0.68976613  0.44353859  0.43866980  1
  Zn  Zn128  1  0.69281286  0.43498337  0.93620182  1
  Zn  Zn129  1  0.68855249  0.94162127  0.43974217  1
  Zn  Zn130  1  0.68613890  0.94163404  0.94220444  1
  Zn  Zn131  1  0.31472519  0.06390557  0.06156972  1
  Zn  Zn132  1  0.30997946  0.06407412  0.56202718  1
  Zn  Zn133  1  0.31246787  0.56089437  0.06052393  1
  Zn  Zn134  1  0.32739054  0.57570842  0.52491878  1
  Zn  Zn135  1  0.80983092  0.06200501  0.06336228  1
  Zn  Zn136  1  0.80378433  0.06029078  0.56227345  1
  Zn  Zn137  1  0.81035080  0.56391670  0.05792702  1
  Zn  Zn138  1  0.81009754  0.56097432  0.56442742  1
  Zn  Zn139  1  0.43392072  0.44530775  0.18464855  1
  Zn  Zn140  1  0.43649113  0.43935356  0.68255412  1
  Zn  Zn141  1  0.44041099  0.94056705  0.19100187  1
  Zn  Zn142  1  0.43997393  0.93444470  0.69070984  1
  Zn  Zn143  1  0.93317496  0.43770523  0.18452125  1
  Zn  Zn144  1  0.93459778  0.43698225  0.68696556  1
  Zn  Zn145  1  0.93420761  0.94387794  0.18999632  1
  Zn  Zn146  1  0.93591995  0.93281884  0.68734152  1
  Zn  Zn147  1  0.05540285  0.05856162  0.31620854  1
  Zn  Zn148  1  0.06174549  0.06289050  0.81342275  1
  Zn  Zn149  1  0.06359035  0.56401731  0.31168480  1
  Zn  Zn150  1  0.06209007  0.55894499  0.81171247  1
  Zn  Zn151  1  0.55555431  0.06138766  0.31050197  1
  Zn  Zn152  1  0.56714944  0.06059215  0.81325953  1
  Zn  Zn153  1  0.56745993  0.56400927  0.31125914  1
  Zn  Zn154  1  0.57013262  0.55953514  0.81216288  1
  Zn  Zn155  1  0.44453991  0.18563020  0.44027372  1
  Zn  Zn156  1  0.44221274  0.19071930  0.93469940  1
  Zn  Zn157  1  0.43685449  0.68384809  0.43263127  1
  Zn  Zn158  1  0.44077266  0.68572140  0.94424801  1
  Zn  Zn159  1  0.93920769  0.18324285  0.43626231  1
  Zn  Zn160  1  0.94256900  0.18584729  0.93478774  1
  Zn  Zn161  1  0.92293356  0.71436605  0.42653876  1
  Zn  Zn162  1  0.94063009  0.69237894  0.94055157  1
  Zn  Zn163  1  0.06163267  0.31128938  0.05894578  1
  Zn  Zn164  1  0.06075390  0.31110488  0.56071416  1
  Zn  Zn165  1  0.06483495  0.81539164  0.06500659  1
  Zn  Zn166  1  0.05706453  0.81529988  0.56419919  1
  Zn  Zn167  1  0.56559547  0.31548773  0.05825502  1
  Zn  Zn168  1  0.56696570  0.30639928  0.56137646  1
  Zn  Zn169  1  0.55692970  0.81088344  0.06790333  1
  Zn  Zn170  1  0.56144086  0.81276260  0.56390265  1
  O  O171  1  0.11937010  0.11805540  0.12008427  1
  O  O172  1  0.13094849  0.11078649  0.62959828  1
  O  O173  1  0.11703017  0.62117499  0.11655038  1
  O  O174  1  0.11941862  0.61541283  0.62077836  1
  O  O175  1  0.62408765  0.12219594  0.11861465  1
  O  O176  1  0.62506721  0.10875142  0.63560230  1
  O  O177  1  0.62143491  0.62693999  0.10872177  1
  O  O178  1  0.62075599  0.62630771  0.62148631  1
  O  O179  1  0.37122178  0.38926308  0.37594797  1
  O  O180  1  0.38028825  0.38313296  0.87714450  1
  O  O181  1  0.37737845  0.88302051  0.38303256  1
  O  O182  1  0.38390579  0.87933664  0.87848225  1
  O  O183  1  0.87895247  0.37947894  0.37739539  1
  O  O184  1  0.88686786  0.37179257  0.88176311  1
  O  O185  1  0.89320838  0.82561710  0.38969507  1
  O  O186  1  0.87955208  0.88156553  0.87623791  1
  O  O187  1  0.25878723  0.01314495  0.38084614  1
  O  O188  1  0.25500684  0.00479666  0.86491034  1
  O  O189  1  0.23983006  0.49921149  0.35667578  1
  O  O190  1  0.25865624  0.51172942  0.87526960  1
  O  O191  1  0.77164935  -0.05242197  0.36746432  1
  O  O192  1  0.76354115  0.00460896  0.87970886  1
  O  O193  1  0.75773725  0.50790495  0.36523952  1
  O  O194  1  0.75355431  0.50718420  0.86845164  1
  O  O195  1  0.24125705  0.49537516  0.12797457  1
  O  O196  1  0.24150873  0.48742517  0.61523125  1
  O  O197  1  0.23584191  1.00437398  0.11939850  1
  O  O198  1  0.24460586  0.99764078  0.63833965  1
  O  O199  1  0.75668901  0.49882690  0.13705969  1
  O  O200  1  0.75084424  0.49015437  0.63431560  1
  O  O201  1  0.73621963  0.99310306  0.12188235  1
  O  O202  1  0.73738957  0.98387906  0.62857804  1
  O  O203  1  0.00402832  0.37501787  0.25407919  1
  O  O204  1  0.00560772  0.36765952  0.75463671  1
  O  O205  1  0.00259319  0.86608399  0.24920631  1
  O  O206  1  0.00835201  0.86650803  0.75554987  1
  O  O207  1  0.51190812  0.37876809  0.23878479  1
  O  O208  1  0.49586482  0.37424324  0.76010277  1
  O  O209  1  0.50725084  0.87457517  0.25948084  1
  O  O210  1  0.50624957  0.86731738  0.76219605  1
  O  O211  1  0.48570296  0.13172273  0.24714156  1
  O  O212  1  0.48799403  0.12514266  0.75537965  1
  O  O213  1  0.51034086  0.62143043  0.23068906  1
  O  O214  1  0.49490865  0.62790601  0.74494089  1
  O  O215  1  1.00430773  0.12932222  0.23551419  1
  O  O216  1  0.99361566  0.13779689  0.75621509  1
  O  O217  1  0.99589754  0.63286320  0.24274507  1
  O  O218  1  1.00544161  0.63863455  0.75220873  1
  O  O219  1  0.36896833  0.25718972  0.00339445  1
  O  O220  1  0.36922925  0.25111483  0.50552249  1
  O  O221  1  0.36676782  0.75888847  -0.00321651  1
  O  O222  1  0.36652766  0.75620857  0.50596857  1
  O  O223  1  0.88284770  0.26080127  -0.00205772  1
  O  O224  1  0.87132001  0.25384936  0.50674974  1
  O  O225  1  0.88614543  0.75758119  0.01676863  1
  O  O226  1  0.87618563  0.75162409  0.52743048  1
  O  O227  1  0.13561842  0.25049309  0.49742230  1
  O  O228  1  0.13487503  0.24456505  0.99770839  1
  O  O229  1  0.12755581  0.74663398  0.49228064  1
  O  O230  1  0.13063453  0.74664200  0.99256478  1
  O  O231  1  0.62903844  0.24606536  0.48620535  1
  O  O232  1  0.62122848  0.23825951  0.98881755  1
  O  O233  1  0.62056359  0.73675438  0.49905129  1
  O  O234  1  0.62397955  0.75191231  0.99045249  1
  O  O235  1  0.48630754  0.25261808  0.12232443  1
  O  O236  1  0.48644702  0.25654766  0.62635730  1
  O  O237  1  0.49518643  0.73596758  0.12375366  1
  O  O238  1  0.49544393  0.73901799  0.63136993  1
  O  O239  1  1.00474647  0.23299583  0.12143119  1
  O  O240  1  0.98651155  0.25628933  0.63255916  1
  O  O241  1  0.99821366  0.74578411  0.13193467  1
  O  O242  1  0.99151248  0.74827806  0.63595117  1
  O  O243  1  -0.00037727  0.26326580  0.37018736  1
  O  O244  1  0.00506285  0.25856166  0.86546756  1
  O  O245  1  0.01831756  0.74320241  0.36073571  1
  O  O246  1  0.00729618  0.75736235  0.87030938  1
  O  O247  1  0.51819112  0.24768514  0.37472932  1
  O  O248  1  0.50857571  0.25969386  0.86885440  1
  O  O249  1  0.49818571  0.76161759  0.37617240  1
  O  O250  1  0.50695958  0.75553540  0.87336917  1
  O  O251  1  0.24540380  0.13461303  0.49286604  1
  O  O252  1  0.24793384  0.13265110  0.99328731  1
  O  O253  1  0.23092710  0.63766552  0.51195199  1
  O  O254  1  0.24432898  0.63026615  0.99059793  1
  O  O255  1  0.72614207  0.12956794  0.51350447  1
  O  O256  1  0.74458880  0.12222752  0.98842903  1
  O  O257  1  0.74257914  0.61843614  0.48991118  1
  O  O258  1  0.73727412  0.61772828  0.98817144  1
  O  O259  1  0.25716784  0.37056566  0.00218531  1
  O  O260  1  0.25152984  0.36685753  0.50574656  1
  O  O261  1  0.26021700  0.86511653  -0.01043323  1
  O  O262  1  0.25925076  0.86728370  0.50253065  1
  O  O263  1  0.75904998  0.38003242  0.01335382  1
  O  O264  1  0.75723180  0.37462015  0.50808880  1
  O  O265  1  0.74849541  0.87560281  0.01357179  1
  O  O266  1  0.74311001  0.86692478  0.51980569  1
  O  O267  1  0.12671403  0.49078859  0.24114632  1
  O  O268  1  0.12007794  0.49181172  0.73568405  1
  O  O269  1  0.12134486  0.98743336  0.24464104  1
  O  O270  1  0.13189135  0.99444479  0.74594340  1
  O  O271  1  0.63653027  0.49106045  0.25450430  1
  O  O272  1  0.64720234  0.50492962  0.74887106  1
  O  O273  1  0.61851871  0.99235906  0.24136958  1
  O  O274  1  0.62043720  0.98794601  0.74129854  1
  O  O275  1  0.37530797  0.00968818  0.25943758  1
  O  O276  1  0.36875509  0.00485274  0.75326815  1
  O  O277  1  0.35616246  0.50301629  0.24647767  1
  O  O278  1  0.37596077  0.51175577  0.75455680  1
  O  O279  1  0.87933632  0.02490661  0.24767367  1
  O  O280  1  0.88527729  0.00974347  0.75948492  1
  O  O281  1  0.87048277  0.50887503  0.25521253  1
  O  O282  1  0.86052150  0.50256619  0.74532325  1
  O  O283  1  0.11471727  0.37492992  0.36527562  1
  O  O284  1  0.11792497  0.37569690  0.86329906  1
  O  O285  1  0.12318355  0.86955385  0.36414033  1
  O  O286  1  0.12101194  0.87258232  0.86483948  1
  O  O287  1  0.62798299  0.37205902  0.36566798  1
  O  O288  1  0.61751676  0.36691806  0.88159954  1
  O  O289  1  0.61375290  0.87660018  0.37047230  1
  O  O290  1  0.62033009  0.87083376  0.87245401  1
  O  O291  1  0.37389552  0.13399530  0.13178625  1
  O  O292  1  0.36763603  0.13455038  0.63387944  1
  O  O293  1  0.39128943  0.62489671  0.11123428  1
  O  O294  1  0.38272426  0.62822422  0.62873257  1
  O  O295  1  0.88912795  0.12153963  0.12455763  1
  O  O296  1  0.86621951  0.13105754  0.63637445  1
  O  O297  1  0.87845921  0.63324389  0.12720492  1
  O  O298  1  0.87258310  0.63557515  0.62914210  1
  O  O299  1  0.25999350  0.25697561  0.11809034  1
  O  O300  1  0.25768121  0.25835550  0.61536990  1
  O  O301  1  0.25207575  0.74487145  0.10814956  1
  O  O302  1  0.25537389  0.75368899  0.61656616  1
  O  O303  1  0.74910854  0.26038186  0.12457955  1
  O  O304  1  0.76283714  0.25713170  0.62949103  1
  O  O305  1  0.75870747  0.75573422  0.12798723  1
  O  O306  1  0.75774914  0.75590245  0.63913801  1
  O  O307  1  0.24992035  0.24140312  0.38304370  1
  O  O308  1  0.24953181  0.24680893  0.87941261  1
  O  O309  1  0.24050675  0.75458019  0.38743036  1
  O  O310  1  0.24534292  0.73880706  0.88137868  1
  O  O311  1  0.73079501  0.25210990  0.37296271  1
  O  O312  1  0.74447025  0.24319007  0.87496024  1
  O  O313  1  0.74659699  0.73912976  0.36848867  1
  O  O314  1  0.74321809  0.73621262  0.87293037  1
  O  O315  1  0.00572072  0.11517683  0.00606912  1
  O  O316  1  0.00554704  0.12125143  0.49942618  1
  O  O317  1  0.00587226  0.61728250  0.00205757  1
  O  O318  1  0.01021118  0.62216342  0.50130501  1
  O  O319  1  0.50914715  0.12425366  0.00105023  1
  O  O320  1  0.52250924  0.13086963  0.50630265  1
  O  O321  1  0.51599072  0.62523066  0.00531004  1
  O  O322  1  0.51029324  0.61701755  0.51028988  1
  O  O323  1  0.50976040  0.38849432  0.50323842  1
  O  O324  1  0.48837252  0.37030639  0.98807052  1
  O  O325  1  0.48690921  0.87000663  0.49447023  1
  O  O326  1  0.49302116  0.87597459  0.98961753  1
  O  O327  1  0.99337379  0.38033645  0.49055303  1
  O  O328  1  0.99509261  0.38084155  0.99254020  1
  O  O329  1  0.99842087  0.88650655  0.50219110  1
  O  O330  1  1.00274732  0.88735303  0.99569888  1
  O  O331  1  0.50276254  0.50630652  0.39014103  1
  O  O332  1  0.48991223  0.49481218  0.86982391  1
  O  O333  1  0.48574715  0.98924756  0.37472305  1
  O  O334  1  0.49525807  0.99058514  0.87585587  1
  O  O335  1  0.99403054  0.49142164  0.37758947  1
  O  O336  1  1.00431704  0.49047475  0.88296314  1
  O  O337  1  0.98497954  0.99585531  0.37618263  1
  O  O338  1  0.99280905  0.99632115  0.88297185  1
  O  O339  1  0.00770287  0.00834701  0.11837208  1
  O  O340  1  0.01581900  -0.00149482  0.63320613  1
  O  O341  1  0.00419899  0.50576961  0.11708410  1
  O  O342  1  0.00662659  0.50023018  0.61705232  1
  O  O343  1  0.51145526  0.00360943  0.12182253  1
  O  O344  1  0.51522020  -0.00895116  0.62564805  1
  O  O345  1  0.49848692  0.51248844  0.11819365  1
  O  O346  1  0.50899320  0.51103609  0.62658607  1
  O  O347  1  0.23996556  0.38169244  0.23996651  1
  O  O348  1  0.23695535  0.37018812  0.74023128  1
  O  O349  1  0.23897765  0.87488841  0.25403259  1
  O  O350  1  0.24363769  0.88201816  0.75233341  1
  O  O351  1  0.74580492  0.38105090  0.23663900  1
  O  O352  1  0.75691727  0.38522271  0.74584790  1
  O  O353  1  0.73193800  0.86613358  0.23586878  1
  O  O354  1  0.73759062  0.87077971  0.74831674  1
  O  O355  1  0.26205903  0.13296303  0.25917868  1
  O  O356  1  0.25771039  0.11797156  0.75566004  1
  O  O357  1  0.23767069  0.61096959  0.24430845  1
  O  O358  1  0.25976766  0.63153104  0.75733159  1
  O  O359  1  0.75489990  0.12402211  0.24477167  1
  O  O360  1  0.76313603  0.12473595  0.76556845  1
  O  O361  1  0.75253837  0.61943272  0.25493079  1
  O  O362  1  0.75129372  0.61666610  0.76952933  1
  O  O363  1  0.37205177  0.11931945  0.37106279  1
  O  O364  1  0.37044556  0.11987820  0.86846870  1
  O  O365  1  0.36170879  0.60507395  0.41605839  1
  O  O366  1  0.37154621  0.61876871  0.86879397  1
  O  O367  1  0.86403101  0.12877326  0.36545377  1
  O  O368  1  0.87179721  0.11865490  0.87088885  1
  O  O369  1  0.86895423  0.62512869  0.36919652  1
  O  O370  1  0.86179410  0.62987751  0.88650210  1
  O  O371  1  0.12695605  0.38064832  0.12863641  1
  O  O372  1  0.12911601  0.38130624  0.62942931  1
  O  O373  1  0.12377872  0.88225534  0.13949734  1
  O  O374  1  0.12773536  0.88203299  0.63805514  1
  O  O375  1  0.63852438  0.37189847  0.12896316  1
  O  O376  1  0.64099562  0.37001092  0.62469682  1
  O  O377  1  0.62662678  0.88276516  0.12997738  1
  O  O378  1  0.63168099  0.87535013  0.63459369  1
  O  O379  1  0.12345601  0.26416030  0.24813116  1
  O  O380  1  0.11783058  0.25713816  0.74618920  1
  O  O381  1  0.12244542  0.76126265  0.25293361  1
  O  O382  1  0.12168028  0.75731203  0.75383572  1
  O  O383  1  0.61932055  0.26226242  0.25896646  1
  O  O384  1  0.62545827  0.24245452  0.76357483  1
  O  O385  1  0.61555429  0.76010876  0.25414376  1
  O  O386  1  0.61860844  0.75582324  0.76242828  1
  O  O387  1  0.37498180  0.24804225  0.24093060  1
  O  O388  1  0.37507886  0.24060686  0.74147829  1
  O  O389  1  0.37888674  0.74698101  0.24824483  1
  O  O390  1  0.38104648  0.73946128  0.74630264  1
  O  O391  1  0.87440449  0.23344661  0.24736506  1
  O  O392  1  0.88322696  0.24136198  0.74429700  1
  O  O393  1  0.88516212  0.74434328  0.23768400  1
  O  O394  1  0.88463761  0.75439855  0.74155465  1
  O  O395  1  0.40126452  0.48799647  0.51945361  1
  O  O396  1  0.36953828  0.49011012  0.98678096  1
  O  O397  1  0.36929742  0.99128027  0.49435767  1
  O  O398  1  0.37539626  0.99269813  0.99236083  1
  O  O399  1  0.88044738  0.49529868  0.49403639  1
  O  O400  1  0.88684533  0.49179461  1.00475194  1
  O  O401  1  0.86981566  0.99330450  0.50188328  1
  O  O402  1  0.88356791  0.99730381  0.99376897  1
  O  O403  1  0.11904639  0.00412882  0.00617647  1
  O  O404  1  0.13235897  -0.00057407  0.51909001  1
  O  O405  1  0.11726009  0.50336476  0.00432801  1
  O  O406  1  0.12023768  0.50619684  0.50578050  1
  O  O407  1  0.62264749  0.01401165  0.00606585  1
  O  O408  1  0.62608826  0.00814707  0.51089095  1
  O  O409  1  0.62380842  0.50652720  -0.00288145  1
  O  O410  1  0.61840228  0.50874261  0.50681114  1
  O  O411  1  0.37077320  0.37175126  0.11490375  1
  O  O412  1  0.36544731  0.36674383  0.62653480  1
  O  O413  1  0.38099138  0.87592725  0.11194124  1
  O  O414  1  0.37509145  0.86836839  0.62033552  1
  O  O415  1  0.86278239  0.37454940  0.11833283  1
  O  O416  1  0.86862608  0.36672373  0.61832434  1
  O  O417  1  0.86398146  0.87145494  0.12787652  1
  O  O418  1  0.85786032  0.86875849  0.63182601  1
  O  O419  1  0.13380899  0.12647373  0.37178855  1
  O  O420  1  0.13283155  0.12570385  0.88213813  1
  O  O421  1  0.12539338  0.63282977  0.38303704  1
  O  O422  1  0.13332312  0.62723094  0.87739258  1
  O  O423  1  0.62442440  0.12059543  0.38258542  1
  O  O424  1  0.63459050  0.12885919  0.88031842  1
  O  O425  1  0.63366265  0.62632734  0.38421031  1
  O  O426  1  0.62867658  0.63102416  0.88727221  1
