# generated using pymatgen
data_V85Zn86O256
_symmetry_space_group_name_H-M   'P 1'
_cell_length_a   16.95767394
_cell_length_b   16.94130147
_cell_length_c   16.95862008
_cell_angle_alpha   89.98879857
_cell_angle_beta   90.03428295
_cell_angle_gamma   90.06916767
_symmetry_Int_Tables_number   1
_chemical_formula_structural   V85Zn86O256
_chemical_formula_sum   'V85 Zn86 O256'
_cell_volume   4871.95378280
_cell_formula_units_Z   1
loop_
 _symmetry_equiv_pos_site_id
 _symmetry_equiv_pos_as_xyz
  1  'x, y, z'
loop_
 _atom_site_type_symbol
 _atom_site_label
 _atom_site_symmetry_multiplicity
 _atom_site_fract_x
 _atom_site_fract_y
 _atom_site_fract_z
 _atom_site_occupancy
  V  V0  1  0.25627862  0.62540992  0.87809792  1
  V  V1  1  0.74730901  0.12096469  0.88258002  1
  V  V2  1  0.74868552  0.87214275  0.12490581  1
  V  V3  1  0.87570660  0.00005447  0.87670938  1
  V  V4  1  0.86849983  0.86944258  -0.00208275  1
  V  V5  1  0.87813054  0.38808415  0.49656876  1
  V  V6  1  0.61098702  0.35774912  0.26286888  1
  V  V7  1  0.11715973  0.37565322  0.73706686  1
  V  V8  1  0.62789680  0.63386514  0.00008306  1
  V  V9  1  0.49215787  0.48807199  0.49609280  1
  V  V10  1  0.87808872  0.37634988  0.00049729  1
  V  V11  1  0.25768917  0.37826266  0.62034286  1
  V  V12  1  0.12802422  0.74936042  0.87679180  1
  V  V13  1  0.12385728  0.26195948  0.37750465  1
  V  V14  1  0.75096539  0.37406793  0.62840045  1
  V  V15  1  0.62160836  0.49460421  0.12815789  1
  V  V16  1  0.49489390  0.87346883  0.38044218  1
  V  V17  1  0.37359426  0.74757393  0.12735003  1
  V  V18  1  0.12175100  0.12652913  0.00331014  1
  V  V19  1  0.37000298  0.61654308  0.25891369  1
  V  V20  1  0.24881302  0.49955322  0.74674898  1
  V  V21  1  -0.00118464  0.39023726  0.37614462  1
  V  V22  1  0.74853766  0.12630489  0.38255010  1
  V  V23  1  0.37541060  0.00721376  0.87572959  1
  V  V24  1  0.88251722  0.87343811  0.50594022  1
  V  V25  1  0.48841661  0.63113270  0.63723047  1
  V  V26  1  0.00223474  0.87556022  0.87720381  1
  V  V27  1  0.62119554  0.49960488  0.62897467  1
  V  V28  1  0.00352736  0.74575344  0.24495523  1
  V  V29  1  0.75246998  0.74502921  0.50237773  1
  V  V30  1  0.61784792  0.62222842  0.50245074  1
  V  V31  1  0.50741760  -0.00100276  0.50185198  1
  V  V32  1  0.25406140  0.25487614  0.00333858  1
  V  V33  1  0.12179609  0.00297933  0.62376251  1
  V  V34  1  0.74803888  0.36834801  0.12609713  1
  V  V35  1  0.75345590  0.86624544  0.62571040  1
  V  V36  1  0.62146346  0.23982635  0.87894681  1
  V  V37  1  0.87582585  0.12803840  0.25207380  1
  V  V38  1  0.37304951  0.87318490  0.00154937  1
  V  V39  1  0.00284823  0.87042533  0.37482945  1
  V  V40  1  0.49859352  0.49600985  -0.00035708  1
  V  V41  1  0.12519446  0.86928684  0.25019677  1
  V  V42  1  0.93856763  0.69469913  0.57961108  1
  V  V43  1  0.37520524  0.13561604  0.24398073  1
  V  V44  1  0.49529285  0.36797770  0.86839302  1
  V  V45  1  0.11726932  0.61300995  -0.00533730  1
  V  V46  1  0.86735526  0.74534751  0.12118495  1
  V  V47  1  0.49896422  0.86857121  0.86711394  1
  V  V48  1  0.00338015  0.25595728  0.25264387  1
  V  V49  1  0.63175409  0.01160160  0.61815919  1
  V  V50  1  0.57133004  0.17798666  0.44747685  1
  V  V51  1  0.24856114  0.87262637  0.12554663  1
  V  V52  1  0.50213921  0.00178098  0.00262202  1
  V  V53  1  0.25311790  0.76430511  0.49808991  1
  V  V54  1  0.49886818  0.74851413  0.25303234  1
  V  V55  1  0.12095648  0.49456270  0.13520069  1
  V  V56  1  0.37627767  0.50114973  0.86917575  1
  V  V57  1  0.88280495  0.13037731  0.75151745  1
  V  V58  1  0.75301031  -0.00465367  0.74793161  1
  V  V59  1  0.25613062  0.25740072  0.49810497  1
  V  V60  1  0.23747558  0.62522973  0.37898562  1
  V  V61  1  0.62381412  0.36739280  0.75358873  1
  V  V62  1  0.74943559  -0.00098090  0.25254555  1
  V  V63  1  0.49680907  0.62217296  0.12711805  1
  V  V64  1  0.74879724  0.50303812  0.76294559  1
  V  V65  1  0.62547873  0.87346338  0.25119143  1
  V  V66  1  0.24535057  0.00122882  0.75201914  1
  V  V67  1  0.88706733  0.25303871  0.62780413  1
  V  V68  1  0.37322978  -0.00017531  0.38028390  1
  V  V69  1  0.25073790  0.00004527  0.24698820  1
  V  V70  1  0.11485838  0.25244691  0.87154805  1
  V  V71  1  0.24795739  0.12892040  0.37368229  1
  V  V72  1  0.25148766  0.37929528  0.13521088  1
  V  V73  1  -0.00230410  0.74206564  0.75368989  1
  V  V74  1  0.75081450  0.24904300  0.50106151  1
  V  V75  1  0.62459657  0.00530235  0.12267871  1
  V  V76  1  0.62477262  0.74809690  0.37608911  1
  V  V77  1  0.87294139  0.61584900  0.24982489  1
  V  V78  1  0.87572717  -0.00263561  0.37542137  1
  V  V79  1  0.49751005  0.13436815  0.12550239  1
  V  V80  1  0.00151648  0.38601959  0.87726670  1
  V  V81  1  0.74737843  0.49303908  0.25717725  1
  V  V82  1  0.25126054  0.13041749  0.87225450  1
  V  V83  1  0.37813866  0.23921210  0.63034276  1
  V  V84  1  0.75013191  0.61934731  0.37598210  1
  Zn  Zn85  1  0.37510487  0.37074396  0.00490045  1
  Zn  Zn86  1  0.62736096  0.75085613  0.86449133  1
  Zn  Zn87  1  0.37130161  0.48619009  0.37462201  1
  Zn  Zn88  1  0.12477787  0.87395807  0.74576490  1
  Zn  Zn89  1  0.74684225  0.24449826  0.00208532  1
  Zn  Zn90  1  0.12110840  -0.00036708  0.12412728  1
  Zn  Zn91  1  -0.00467966  0.61627324  0.11901687  1
  Zn  Zn92  1  0.12200463  0.12850531  0.49984680  1
  Zn  Zn93  1  0.00252674  0.12924223  0.62402698  1
  Zn  Zn94  1  0.88047729  0.50574027  0.88127972  1
  Zn  Zn95  1  -0.00068164  0.12605025  0.12681237  1
  Zn  Zn96  1  0.61282703  0.86901013  0.73693075  1
  Zn  Zn97  1  0.87466107  0.62635276  0.75266325  1
  Zn  Zn98  1  0.00218335  0.00507945  0.49925411  1
  Zn  Zn99  1  0.75680349  0.63879009  0.88418526  1
  Zn  Zn100  1  0.24748949  0.74614914  0.00372115  1
  Zn  Zn101  1  0.13384958  0.62353316  0.52832537  1
  Zn  Zn102  1  0.46643436  0.18993728  0.75861711  1
  Zn  Zn103  1  0.87665620  0.24947457  0.12470195  1
  Zn  Zn104  1  0.26749182  0.89208266  0.61237145  1
  Zn  Zn105  1  0.39139170  0.78636728  0.63588482  1
  Zn  Zn106  1  -0.00126228  0.00139659  0.00473061  1
  Zn  Zn107  1  0.18564556  0.19420689  0.18746860  1
  Zn  Zn108  1  0.18710848  0.19079150  0.68670581  1
  Zn  Zn109  1  0.18743856  0.68031398  0.18590176  1
  Zn  Zn110  1  0.23733481  0.69553179  0.68892623  1
  Zn  Zn111  1  0.68597359  0.18577704  0.19143632  1
  Zn  Zn112  1  0.69619797  0.18775283  0.69362558  1
  Zn  Zn113  1  0.68621145  0.68326709  0.18626099  1
  Zn  Zn114  1  0.68267803  0.68773906  0.69149036  1
  Zn  Zn115  1  0.31087764  0.31370700  0.30584270  1
  Zn  Zn116  1  0.30821791  0.31316376  0.81056067  1
  Zn  Zn117  1  0.31246953  0.80986165  0.31544997  1
  Zn  Zn118  1  0.31521848  0.81500735  0.80901589  1
  Zn  Zn119  1  0.81094945  0.31183634  0.31732418  1
  Zn  Zn120  1  0.81205663  0.31113150  0.81673253  1
  Zn  Zn121  1  0.81519285  0.80708817  0.31246388  1
  Zn  Zn122  1  0.81058711  0.80502818  0.81376246  1
  Zn  Zn123  1  0.18873505  0.44578237  0.43475938  1
  Zn  Zn124  1  0.18685552  0.43640159  0.93651402  1
  Zn  Zn125  1  0.18193219  0.94155787  0.43261831  1
  Zn  Zn126  1  0.18740138  0.93984860  0.94045389  1
  Zn  Zn127  1  0.68236678  0.43303225  0.43875364  1
  Zn  Zn128  1  0.68420953  0.43389831  0.94119723  1
  Zn  Zn129  1  0.68949087  0.93393220  0.43998025  1
  Zn  Zn130  1  0.68615621  0.93275511  0.93813225  1
  Zn  Zn131  1  0.30949750  0.06376038  0.06109620  1
  Zn  Zn132  1  0.31198842  0.06370404  0.55793263  1
  Zn  Zn133  1  0.31123984  0.55767828  0.06223090  1
  Zn  Zn134  1  0.31063454  0.56325914  0.55985284  1
  Zn  Zn135  1  0.81483176  0.05931216  0.06428589  1
  Zn  Zn136  1  0.81822459  0.06164548  0.56370612  1
  Zn  Zn137  1  0.80856243  0.55447805  0.06511387  1
  Zn  Zn138  1  0.80427720  0.55888653  0.56908491  1
  Zn  Zn139  1  0.43458436  0.43116307  0.19068740  1
  Zn  Zn140  1  0.43534421  0.43806845  0.68514664  1
  Zn  Zn141  1  0.43689397  0.93817927  0.19011137  1
  Zn  Zn142  1  0.43928302  0.98143637  0.69120121  1
  Zn  Zn143  1  0.93794829  0.43502980  0.18613904  1
  Zn  Zn144  1  0.93474286  0.43894165  0.69395470  1
  Zn  Zn145  1  0.93795893  0.93751233  0.18501184  1
  Zn  Zn146  1  0.94139805  0.93612344  0.68990059  1
  Zn  Zn147  1  0.06328288  0.06178701  0.31100229  1
  Zn  Zn148  1  0.06254461  0.06372362  0.81512191  1
  Zn  Zn149  1  0.06491206  0.56107275  0.30996468  1
  Zn  Zn150  1  0.07889390  0.57018493  0.69471926  1
  Zn  Zn151  1  0.55878216  0.06171224  0.30702760  1
  Zn  Zn152  1  0.56823555  0.05155826  0.81028391  1
  Zn  Zn153  1  0.56094444  0.55732260  0.31382780  1
  Zn  Zn154  1  0.56373232  0.56108662  0.81479470  1
  Zn  Zn155  1  0.43575508  0.31456287  0.43968176  1
  Zn  Zn156  1  0.43770762  0.18692218  0.94416654  1
  Zn  Zn157  1  0.43161765  0.68962510  0.44661170  1
  Zn  Zn158  1  0.43844068  0.68633997  0.93962040  1
  Zn  Zn159  1  0.93862146  0.19330748  0.44088991  1
  Zn  Zn160  1  0.93539013  0.19247320  0.93974511  1
  Zn  Zn161  1  0.94492443  0.67818058  0.41646264  1
  Zn  Zn162  1  0.93764444  0.68633050  0.93650961  1
  Zn  Zn163  1  0.06289316  0.31230718  0.06265203  1
  Zn  Zn164  1  0.05945422  0.44827399  0.55813786  1
  Zn  Zn165  1  0.05936055  0.80810689  0.06151564  1
  Zn  Zn166  1  0.08353389  0.81245539  0.55904489  1
  Zn  Zn167  1  0.56509071  0.31266129  0.06010602  1
  Zn  Zn168  1  0.55969368  0.30804250  0.57752751  1
  Zn  Zn169  1  0.55777032  0.81511165  0.06453432  1
  Zn  Zn170  1  0.56459327  0.81211781  0.56430791  1
  O  O171  1  0.12630366  0.12683654  0.11268054  1
  O  O172  1  0.12354047  0.11746539  0.62484653  1
  O  O173  1  0.12675403  0.61315084  0.11205539  1
  O  O174  1  0.15312547  0.63485726  0.64088691  1
  O  O175  1  0.61623037  0.11160752  0.13452484  1
  O  O176  1  0.64007772  0.11041040  0.62964824  1
  O  O177  1  0.61712144  0.61587953  0.11889636  1
  O  O178  1  0.61798779  0.61823211  0.61720628  1
  O  O179  1  0.37754066  0.37427276  0.36798684  1
  O  O180  1  0.38193358  0.37854397  0.87705713  1
  O  O181  1  0.38486732  0.88630596  0.36647679  1
  O  O182  1  0.38132930  0.88090454  0.88248266  1
  O  O183  1  0.88020680  0.37133063  0.39030530  1
  O  O184  1  0.88381242  0.37271937  0.88215698  1
  O  O185  1  0.88124095  0.87496318  0.38474825  1
  O  O186  1  0.88093762  0.87841357  0.88327081  1
  O  O187  1  0.25555262  0.00737410  0.36797121  1
  O  O188  1  0.25392263  0.01096745  0.87526793  1
  O  O189  1  0.25755600  0.51986138  0.37625168  1
  O  O190  1  0.25984332  0.50238302  0.87282318  1
  O  O191  1  0.75590197  0.00534476  0.37271928  1
  O  O192  1  0.75366966  0.00095985  0.86723175  1
  O  O193  1  0.74316073  0.50189258  0.36351152  1
  O  O194  1  0.74410777  0.50059049  0.86848604  1
  O  O195  1  0.23858842  0.48720427  0.11743313  1
  O  O196  1  0.26016126  0.49263804  0.63653953  1
  O  O197  1  0.24773395  0.99159456  0.13217169  1
  O  O198  1  0.24307464  1.00758543  0.63541984  1
  O  O199  1  0.74202470  0.48651375  0.13611916  1
  O  O200  1  0.73969281  0.49204238  0.63766461  1
  O  O201  1  0.74185259  0.99514550  0.13195375  1
  O  O202  1  0.75124084  0.98992599  0.62898566  1
  O  O203  1  -0.01093684  0.36253919  0.26064842  1
  O  O204  1  0.01327575  0.37322643  0.75682330  1
  O  O205  1  0.00539081  0.86693541  0.25219909  1
  O  O206  1  0.00245454  0.86934033  0.76434366  1
  O  O207  1  0.51268786  0.37260175  0.24600658  1
  O  O208  1  0.50753446  0.37940085  0.76097043  1
  O  O209  1  0.50621290  0.87026429  0.26003062  1
  O  O210  1  0.49595771  0.88721599  0.76713580  1
  O  O211  1  0.48326889  0.11839998  0.24185251  1
  O  O212  1  0.49081321  0.08472493  0.73900539  1
  O  O213  1  0.49334755  0.62869784  0.24595109  1
  O  O214  1  0.50457758  0.61787641  0.73500011  1
  O  O215  1  0.99099019  0.13459748  0.25435305  1
  O  O216  1  0.98584905  0.12342838  0.75161703  1
  O  O217  1  0.99066799  0.62990430  0.24786584  1
  O  O218  1  1.00227983  0.63987710  0.75351420  1
  O  O219  1  0.35851972  0.24978536  -0.00163673  1
  O  O220  1  0.36302232  0.25547220  0.51248988  1
  O  O221  1  0.37438731  0.75459624  0.01120813  1
  O  O222  1  0.35997554  0.74895585  0.51030638  1
  O  O223  1  0.86696260  0.25936510  0.00375596  1
  O  O224  1  0.86647448  0.25938713  0.50933910  1
  O  O225  1  0.87846495  0.75644563  0.01065712  1
  O  O226  1  0.87894732  0.74915783  0.50746516  1
  O  O227  1  0.13975743  0.24551468  0.48354207  1
  O  O228  1  0.13205179  0.24487717  0.99130625  1
  O  O229  1  0.14406943  0.74105748  0.49565039  1
  O  O230  1  0.12568735  0.74047739  0.99344699  1
  O  O231  1  0.62960683  0.24254249  0.50874016  1
  O  O232  1  0.62513206  0.24933602  0.98276172  1
  O  O233  1  0.63003640  0.74005816  0.49488845  1
  O  O234  1  0.61703334  0.73448420  1.00719368  1
  O  O235  1  0.50303715  0.23325493  0.11335984  1
  O  O236  1  0.48180877  0.24837220  0.63492005  1
  O  O237  1  0.49315986  0.74387209  0.13311027  1
  O  O238  1  0.49738131  0.73724941  0.61986226  1
  O  O239  1  0.99905976  0.24788987  0.13762087  1
  O  O240  1  0.98568932  0.25027620  0.62508123  1
  O  O241  1  0.98718456  0.74573730  0.13205317  1
  O  O242  1  1.00283169  0.75742904  0.63302286  1
  O  O243  1  0.00800527  0.25924522  0.37250832  1
  O  O244  1  0.01216617  0.25381343  0.87544470  1
  O  O245  1  -0.00423419  0.76158921  0.35922083  1
  O  O246  1  0.00693143  0.75666740  0.87200222  1
  O  O247  1  0.50834040  0.23420742  0.39660139  1
  O  O248  1  0.50191183  0.24756049  0.86516384  1
  O  O249  1  0.50244364  0.75608721  0.37381465  1
  O  O250  1  0.49713375  0.76564958  0.87977387  1
  O  O251  1  0.25143349  0.13457469  0.48649712  1
  O  O252  1  0.24150119  0.13212070  0.99307446  1
  O  O253  1  0.25298299  0.63175071  0.48839433  1
  O  O254  1  0.24296682  0.62316742  0.99240445  1
  O  O255  1  0.75751112  0.12981730  0.48992432  1
  O  O256  1  0.75396068  0.12075592  0.98662067  1
  O  O257  1  0.73883499  0.62630580  0.49850844  1
  O  O258  1  0.73039203  0.61534023  1.00376900  1
  O  O259  1  0.25068783  0.36759969  0.00370060  1
  O  O260  1  0.24321761  0.37040392  0.50971091  1
  O  O261  1  0.25701766  0.87291733  0.00729970  1
  O  O262  1  0.25129385  0.86825692  0.48509846  1
  O  O263  1  0.75138301  0.37045856  0.01082474  1
  O  O264  1  0.75513246  0.36732340  0.50493999  1
  O  O265  1  0.76130427  0.87944438  0.00847411  1
  O  O266  1  0.76290952  0.86442260  0.50340065  1
  O  O267  1  0.13064923  0.50656734  0.23301680  1
  O  O268  1  0.13659324  0.48360869  0.75605017  1
  O  O269  1  0.13653486  0.99244608  0.24836047  1
  O  O270  1  0.12844253  1.00103847  0.74409071  1
  O  O271  1  0.63069027  0.49373757  0.24434171  1
  O  O272  1  0.62936998  0.48824119  0.74960394  1
  O  O273  1  0.63022684  0.99336997  0.24514801  1
  O  O274  1  0.64116227  0.98733097  0.74073843  1
  O  O275  1  0.36236294  0.00044713  0.25592143  1
  O  O276  1  0.35890247  0.00130317  0.77114078  1
  O  O277  1  0.38112611  0.51471473  0.25172796  1
  O  O278  1  0.36807359  0.49294930  0.76310144  1
  O  O279  1  0.86865657  0.00542726  0.25630392  1
  O  O280  1  0.86962878  0.00524098  0.75615227  1
  O  O281  1  0.86404689  0.50889113  0.24135886  1
  O  O282  1  0.86111908  0.50050673  0.75761940  1
  O  O283  1  0.11442361  0.37157529  0.37846096  1
  O  O284  1  0.11897826  0.36859293  0.87019477  1
  O  O285  1  0.11681243  0.87713656  0.35903826  1
  O  O286  1  0.11598959  0.86777638  0.88328112  1
  O  O287  1  0.62439751  0.37396684  0.36178658  1
  O  O288  1  0.61594056  0.36476362  0.87055274  1
  O  O289  1  0.62058742  0.86727282  0.36927189  1
  O  O290  1  0.60597805  0.87643786  0.87916156  1
  O  O291  1  0.38123016  0.11458835  0.13617409  1
  O  O292  1  0.36610800  0.14019658  0.62343412  1
  O  O293  1  0.37702385  0.62743037  0.13471339  1
  O  O294  1  0.38989556  0.61842799  0.62456977  1
  O  O295  1  0.87126374  0.12651961  0.14101741  1
  O  O296  1  0.87412490  0.13394411  0.63444433  1
  O  O297  1  0.87288303  0.62903302  0.12871411  1
  O  O298  1  0.87546112  0.62980678  0.62829174  1
  O  O299  1  0.23766629  0.26702697  0.11504655  1
  O  O300  1  0.25308619  0.25775274  0.61615541  1
  O  O301  1  0.25655565  0.75426067  0.12601612  1
  O  O302  1  0.24492133  0.77649798  0.60515675  1
  O  O303  1  0.74846166  0.25799583  0.12546826  1
  O  O304  1  0.75426590  0.25557382  0.61636744  1
  O  O305  1  0.75976597  0.75474320  0.13197033  1
  O  O306  1  0.74901070  0.75897393  0.61857612  1
  O  O307  1  0.24610991  0.24618763  0.37748334  1
  O  O308  1  0.24095227  0.24602677  0.88168678  1
  O  O309  1  0.26060136  0.73560828  0.38310157  1
  O  O310  1  0.24455188  0.74213246  0.88011968  1
  O  O311  1  0.75218954  0.24254295  0.39151231  1
  O  O312  1  0.74027106  0.23714657  0.87494985  1
  O  O313  1  0.74565466  0.74152289  0.38232073  1
  O  O314  1  0.74119373  0.75172440  0.88067199  1
  O  O315  1  0.00763716  0.12678259  0.00214066  1
  O  O316  1  0.00197839  0.12338157  0.50210629  1
  O  O317  1  0.01419560  0.62648603  0.00127841  1
  O  O318  1  -0.00434764  0.64297741  0.51342154  1
  O  O319  1  0.49336653  0.10926304  0.00932969  1
  O  O320  1  0.51289853  0.11435320  0.50006182  1
  O  O321  1  0.50571689  0.61567767  0.00791972  1
  O  O322  1  0.50852189  0.61781020  0.50597949  1
  O  O323  1  0.50419984  0.38425686  0.50751929  1
  O  O324  1  0.49819899  0.37835679  0.98888484  1
  O  O325  1  0.50773492  0.88027701  0.48576390  1
  O  O326  1  0.49027505  0.88420529  0.99808923  1
  O  O327  1  0.98534518  0.38007136  0.49372855  1
  O  O328  1  0.99000781  0.36685234  0.99119371  1
  O  O329  1  0.99841898  0.87100965  0.49011089  1
  O  O330  1  0.98920235  0.87399868  0.99214007  1
  O  O331  1  0.50124940  0.50168498  0.39400192  1
  O  O332  1  0.49505411  0.49024180  0.88066327  1
  O  O333  1  0.49477168  0.99370430  0.38078194  1
  O  O334  1  0.49212145  0.99312624  0.88719154  1
  O  O335  1  0.99695779  0.48986302  0.36530045  1
  O  O336  1  0.99956833  0.48468925  0.87460172  1
  O  O337  1  0.99404041  0.98618369  0.37187466  1
  O  O338  1  0.99399447  0.99173422  0.87834733  1
  O  O339  1  0.00264017  0.00688821  0.12429777  1
  O  O340  1  0.00794902  0.00357722  0.62386196  1
  O  O341  1  0.01399970  0.49928272  0.12787059  1
  O  O342  1  0.00609699  0.50319620  0.63915764  1
  O  O343  1  0.50687591  0.00257966  0.12086562  1
  O  O344  1  0.51784826  -0.01017087  0.60694282  1
  O  O345  1  0.50130300  0.50084138  0.11774916  1
  O  O346  1  0.50417588  0.50489017  0.61625159  1
  O  O347  1  0.24393546  0.37232177  0.23354049  1
  O  O348  1  0.24188936  0.38230298  0.74320461  1
  O  O349  1  0.24259651  0.87842536  0.24743567  1
  O  O350  1  0.24155634  0.89512033  0.76073709  1
  O  O351  1  0.74425488  0.37792436  0.24625751  1
  O  O352  1  0.74146243  0.38054203  0.75026013  1
  O  O353  1  0.74646515  0.87887486  0.24621682  1
  O  O354  1  0.76218259  0.88196275  0.73799821  1
  O  O355  1  0.25495454  0.11768991  0.24843713  1
  O  O356  1  0.23980871  0.11903306  0.76641798  1
  O  O357  1  0.26449115  0.63275376  0.26034107  1
  O  O358  1  0.24548327  0.60826703  0.77143879  1
  O  O359  1  0.75476463  0.12102954  0.26349344  1
  O  O360  1  0.76008072  0.11253343  0.75941539  1
  O  O361  1  0.75353174  0.61400470  0.25341550  1
  O  O362  1  0.74868325  0.61411535  0.75238009  1
  O  O363  1  0.36183024  0.11527981  0.35596951  1
  O  O364  1  0.36479495  0.11946055  0.88232505  1
  O  O365  1  0.38024075  0.62390731  0.36309797  1
  O  O366  1  0.36923936  0.61409968  0.88289211  1
  O  O367  1  0.86795970  0.12081770  0.36814764  1
  O  O368  1  0.86869158  0.12103710  0.87008174  1
  O  O369  1  0.86381837  0.62433074  0.36234216  1
  O  O370  1  0.87128047  0.62127614  0.87420058  1
  O  O371  1  0.13070045  0.38900290  0.11770357  1
  O  O372  1  0.13127417  0.37465849  0.63550831  1
  O  O373  1  0.12790582  0.87428555  0.13418318  1
  O  O374  1  0.13073904  0.89287876  0.62667686  1
  O  O375  1  0.63084071  0.37684159  0.13192780  1
  O  O376  1  0.62966507  0.37796928  0.63694492  1
  O  O377  1  0.62879944  0.88153020  0.13172965  1
  O  O378  1  0.64015394  0.88247770  0.61931943  1
  O  O379  1  0.11488258  0.24557917  0.26400538  1
  O  O380  1  0.13378981  0.26608489  0.75855167  1
  O  O381  1  0.11294039  0.75404389  0.24038783  1
  O  O382  1  0.11919185  0.75612452  0.76892848  1
  O  O383  1  0.62477174  0.25866311  0.25230769  1
  O  O384  1  0.62902211  0.25935163  0.75819634  1
  O  O385  1  0.61871007  0.75182782  0.25596711  1
  O  O386  1  0.62212174  0.75876121  0.75007320  1
  O  O387  1  0.36782914  0.23349407  0.24305126  1
  O  O388  1  0.36759263  0.24672294  0.73796433  1
  O  O389  1  0.38195370  0.74190765  0.24503536  1
  O  O390  1  0.33599446  0.74287990  0.72839991  1
  O  O391  1  0.87995580  0.24154062  0.25288413  1
  O  O392  1  0.86384755  0.24126531  0.74061103  1
  O  O393  1  0.87997882  0.73795690  0.24205369  1
  O  O394  1  0.89012922  0.74914730  0.75184414  1
  O  O395  1  0.38990774  0.50035921  0.49911279  1
  O  O396  1  0.38680062  0.49732868  0.99253528  1
  O  O397  1  0.38606456  1.00985009  0.48531462  1
  O  O398  1  0.37785515  0.99327809  0.99366145  1
  O  O399  1  0.86413864  0.48619122  0.50391779  1
  O  O400  1  0.86741766  0.48270692  0.99857044  1
  O  O401  1  0.87919162  0.98908266  0.49287330  1
  O  O402  1  0.87677468  0.99051302  0.99405160  1
  O  O403  1  0.12213747  0.01209595  0.00199578  1
  O  O404  1  0.12414267  0.00571913  0.50762644  1
  O  O405  1  0.12563149  0.51097466  0.00238721  1
  O  O406  1  0.12348921  0.51423522  0.49512377  1
  O  O407  1  0.61538514  -0.00646771  0.01179573  1
  O  O408  1  0.62139239  -0.00103679  0.50393981  1
  O  O409  1  0.61201454  0.50232659  0.00609804  1
  O  O410  1  0.61821402  0.50491844  0.50743701  1
  O  O411  1  0.35752675  0.38094555  0.12252368  1
  O  O412  1  0.36192446  0.36551045  0.63103727  1
  O  O413  1  0.37027417  0.86842854  0.12229553  1
  O  O414  1  0.37991212  0.89982373  0.63136632  1
  O  O415  1  0.86549508  0.37182471  0.11991076  1
  O  O416  1  0.86883550  0.37046008  0.61897916  1
  O  O417  1  0.86921556  0.86657155  0.11933646  1
  O  O418  1  0.87228967  0.87920672  0.61171106  1
  O  O419  1  0.13811889  0.12868268  0.37080736  1
  O  O420  1  0.12927215  0.13323370  0.88388647  1
  O  O421  1  0.13883422  0.62882139  0.36568534  1
  O  O422  1  0.13398981  0.63168504  0.88860383  1
  O  O423  1  0.63034333  0.12325106  0.37712657  1
  O  O424  1  0.63388918  0.12790336  0.86611406  1
  O  O425  1  0.62902148  0.62831237  0.38244515  1
  O  O426  1  0.61881075  0.62683339  0.89219281  1
