# generated using pymatgen
data_V85Zn86O256
_symmetry_space_group_name_H-M   'P 1'
_cell_length_a   16.94002564
_cell_length_b   16.92969662
_cell_length_c   16.93580439
_cell_angle_alpha   89.97356130
_cell_angle_beta   89.94577561
_cell_angle_gamma   90.04964878
_symmetry_Int_Tables_number   1
_chemical_formula_structural   V85Zn86O256
_chemical_formula_sum   'V85 Zn86 O256'
_cell_volume   4857.00626898
_cell_formula_units_Z   1
loop_
 _symmetry_equiv_pos_site_id
 _symmetry_equiv_pos_as_xyz
  1  'x, y, z'
loop_
 _atom_site_type_symbol
 _atom_site_label
 _atom_site_symmetry_multiplicity
 _atom_site_fract_x
 _atom_site_fract_y
 _atom_site_fract_z
 _atom_site_occupancy
  V  V0  1  0.50239303  0.49476310  -0.01077855  1
  V  V1  1  0.12728810  0.62797173  0.50067756  1
  V  V2  1  0.25566159  0.62903673  0.37168415  1
  V  V3  1  0.00084942  0.62238511  0.12311191  1
  V  V4  1  0.87478895  0.62285111  0.74918118  1
  V  V5  1  0.12616871  0.50210107  0.62496635  1
  V  V6  1  0.73387475  0.49735401  0.24790114  1
  V  V7  1  0.50293583  0.37996908  0.36511412  1
  V  V8  1  0.36768048  0.24984162  0.62062334  1
  V  V9  1  0.12962487  0.12622728  0.00021693  1
  V  V10  1  0.50438107  0.12487258  0.62582210  1
  V  V11  1  0.25071895  0.49912677  0.74718789  1
  V  V12  1  0.12567987  0.37501699  0.24972121  1
  V  V13  1  0.25912437  0.12275254  0.37885208  1
  V  V14  1  0.37524256  0.50662302  0.37223303  1
  V  V15  1  0.25134341  0.36645081  0.12172120  1
  V  V16  1  0.62958139  0.62164419  0.00112742  1
  V  V17  1  0.50228555  0.50966757  0.49619755  1
  V  V18  1  0.61794108  0.25523621  0.87621441  1
  V  V19  1  0.87343699  0.75184546  0.62483845  1
  V  V20  1  0.12466109  -0.01030942  0.62628852  1
  V  V21  1  0.12497071  0.00049277  0.12653605  1
  V  V22  1  0.74371337  0.89276074  0.62879820  1
  V  V23  1  0.86562879  0.37608131  0.50816713  1
  V  V24  1  0.00109536  0.75472591  0.76246171  1
  V  V25  1  0.87400865  0.49053156  0.87294278  1
  V  V26  1  0.00175665  0.49472771  -0.00636626  1
  V  V27  1  0.62627994  0.11620938  0.50072412  1
  V  V28  1  0.87132498  0.24581787  0.12878865  1
  V  V29  1  0.12489265  0.13065017  0.51123386  1
  V  V30  1  0.50916823  0.75168714  0.74945115  1
  V  V31  1  0.62785776  0.49402561  0.61912467  1
  V  V32  1  0.25258630  0.76480906  0.50515788  1
  V  V33  1  0.75362738  0.87450262  0.12545512  1
  V  V34  1  0.12312050  0.25688764  0.88281942  1
  V  V35  1  0.87395942  0.87744891  0.49690388  1
  V  V36  1  0.37554892  0.36535023  -0.00803042  1
  V  V37  1  0.00065849  0.62917791  0.62526280  1
  V  V38  1  -0.00029303  0.00564582  0.50470585  1
  V  V39  1  0.87698025  0.37002618  -0.00146142  1
  V  V40  1  0.11770933  0.37544890  0.75202744  1
  V  V41  1  0.73999509  0.37657647  0.12974908  1
  V  V42  1  0.12478851  0.75094707  0.37668800  1
  V  V43  1  0.87712430  0.75381204  0.11287407  1
  V  V44  1  0.49321078  0.24203104  0.24972507  1
  V  V45  1  0.62385389  0.12296704  0.00428846  1
  V  V46  1  0.62603372  0.25509406  0.37246639  1
  V  V47  1  -0.00113348  0.74990241  0.24937062  1
  V  V48  1  0.50199263  0.87758961  0.87661042  1
  V  V49  1  0.25235774  0.87370137  0.12499391  1
  V  V50  1  0.50454298  0.62656813  0.61839667  1
  V  V51  1  0.37061078  0.37530263  0.49831233  1
  V  V52  1  0.74119009  0.74848611  0.50275157  1
  V  V53  1  0.61650861  0.37339528  0.75267094  1
  V  V54  1  0.75599781  0.12766569  0.36879904  1
  V  V55  1  0.37400650  0.76489539  0.62450689  1
  V  V56  1  0.74937861  0.49221711  0.74502273  1
  V  V57  1  0.12424604  0.87164334  0.76593387  1
  V  V58  1  0.25187811  0.62943114  0.87265212  1
  V  V59  1  0.24913473  0.75066241  -0.00346431  1
  V  V60  1  0.62334774  -0.00735063  0.13508646  1
  V  V61  1  0.00000721  0.37474258  0.37602782  1
  V  V62  1  0.74910466  0.12371369  0.86956023  1
  V  V63  1  0.26756345  0.00355666  0.25369322  1
  V  V64  1  0.62675234  0.75956348  0.36736862  1
  V  V65  1  0.87495375  0.50015001  0.37027252  1
  V  V66  1  -0.00500232  -0.01244445  -0.00335425  1
  V  V67  1  0.25459212  0.50405864  0.24629682  1
  V  V68  1  0.25236817  -0.00436175  0.74762965  1
  V  V69  1  -0.00063873  0.50215882  0.49886032  1
  V  V70  1  0.12588087  0.62491275  -0.00684920  1
  V  V71  1  0.87133022  -0.01359083  0.87502641  1
  V  V72  1  0.88343585  0.12167333  0.75320134  1
  V  V73  1  0.12988238  0.24837089  0.38191707  1
  V  V74  1  0.12573097  0.87847151  0.25227072  1
  V  V75  1  0.37757722  0.62510299  0.74819826  1
  V  V76  1  -0.00455930  0.12197679  0.12772598  1
  V  V77  1  0.50697175  0.75328867  0.24547300  1
  V  V78  1  0.37641820  0.74290789  0.12922776  1
  V  V79  1  -0.00409498  0.24503171  0.25236273  1
  V  V80  1  0.74593348  0.62631092  0.37633272  1
  V  V81  1  0.37272537  0.12768475  0.75214774  1
  V  V82  1  0.87180528  0.24261848  0.62654172  1
  V  V83  1  0.50031111  0.61212723  0.12689620  1
  V  V84  1  0.48258631  -0.00311301  0.49700118  1
  Zn  Zn85  1  0.75615222  -0.00245469  0.25115432  1
  Zn  Zn86  1  -0.00049072  0.25068950  0.75121924  1
  Zn  Zn87  1  0.49687772  -0.00124290  0.00208293  1
  Zn  Zn88  1  0.25099726  0.12713894  0.87986977  1
  Zn  Zn89  1  0.36762466  0.24167511  0.12688068  1
  Zn  Zn90  1  0.37293181  0.00001696  0.87834538  1
  Zn  Zn91  1  0.88231570  0.01000906  0.36862406  1
  Zn  Zn92  1  0.12673787  0.49763948  0.12219319  1
  Zn  Zn93  1  0.24540821  0.36955323  0.61911833  1
  Zn  Zn94  1  0.63045383  0.89591408  0.75342044  1
  Zn  Zn95  1  0.74929837  0.62451421  0.87355593  1
  Zn  Zn96  1  0.75344590  0.75628146  -0.00624380  1
  Zn  Zn97  1  0.49014299  0.88846172  0.36793210  1
  Zn  Zn98  1  -0.00204321  0.87777556  0.37551452  1
  Zn  Zn99  1  0.73761511  0.25557860  0.51311657  1
  Zn  Zn100  1  0.87389602  0.62468744  0.24722244  1
  Zn  Zn101  1  0.49253399  0.11842881  0.13024717  1
  Zn  Zn102  1  0.37911646  0.49383464  0.87041641  1
  Zn  Zn103  1  0.62969374  0.75154040  0.87517528  1
  Zn  Zn104  1  0.49461156  0.25725994  0.75263222  1
  Zn  Zn105  1  0.74868077  0.25014016  0.00006239  1
  Zn  Zn106  1  0.37585420  0.87446065  -0.00286019  1
  Zn  Zn107  1  0.18566062  0.18428688  0.19386885  1
  Zn  Zn108  1  0.18788371  0.18797605  0.69093374  1
  Zn  Zn109  1  0.18525601  0.68610096  0.18464237  1
  Zn  Zn110  1  0.18856961  0.69362347  0.68819595  1
  Zn  Zn111  1  0.68066688  0.18956810  0.18998940  1
  Zn  Zn112  1  0.68761065  0.07358839  0.68616985  1
  Zn  Zn113  1  0.68928035  0.68393430  0.18413775  1
  Zn  Zn114  1  0.68808450  0.68191944  0.68408032  1
  Zn  Zn115  1  0.31217947  0.31400423  0.31464934  1
  Zn  Zn116  1  0.30392075  0.30952415  0.81192876  1
  Zn  Zn117  1  0.31608622  0.81469431  0.31053534  1
  Zn  Zn118  1  0.31475007  0.81380687  0.80926722  1
  Zn  Zn119  1  0.81092728  0.31344916  0.31359750  1
  Zn  Zn120  1  0.80419710  0.30840347  0.80769281  1
  Zn  Zn121  1  0.81264387  0.81635442  0.30754132  1
  Zn  Zn122  1  0.80949439  0.81054191  0.80932336  1
  Zn  Zn123  1  0.18823783  0.43997139  0.43606814  1
  Zn  Zn124  1  0.19308961  0.43718991  0.93598618  1
  Zn  Zn125  1  0.18758131  0.94279238  0.43646917  1
  Zn  Zn126  1  0.18860046  0.94149828  0.93726736  1
  Zn  Zn127  1  0.68590914  0.43978015  0.43540625  1
  Zn  Zn128  1  0.68969428  0.43759668  0.93886357  1
  Zn  Zn129  1  0.68584690  0.93911798  0.43672311  1
  Zn  Zn130  1  0.68631077  0.93698571  0.94231939  1
  Zn  Zn131  1  0.31671878  0.06176824  0.06502099  1
  Zn  Zn132  1  0.30848534  0.06409474  0.56530093  1
  Zn  Zn133  1  0.31697076  0.55654239  0.05947528  1
  Zn  Zn134  1  0.31595754  0.56918473  0.56048627  1
  Zn  Zn135  1  0.80924529  0.06098506  0.06001337  1
  Zn  Zn136  1  0.81633399  0.06994173  0.55451930  1
  Zn  Zn137  1  0.81429536  0.55975832  0.06505701  1
  Zn  Zn138  1  0.81055443  0.56336945  0.56130006  1
  Zn  Zn139  1  0.43420020  0.43482196  0.18453842  1
  Zn  Zn140  1  0.43764756  0.43774329  0.68351442  1
  Zn  Zn141  1  0.43889858  0.93133167  0.18310564  1
  Zn  Zn142  1  0.44729661  0.94372349  0.69048357  1
  Zn  Zn143  1  0.93570188  0.43415948  0.18519649  1
  Zn  Zn144  1  0.93984910  0.43663103  0.68504554  1
  Zn  Zn145  1  0.93327040  0.93698591  0.18971163  1
  Zn  Zn146  1  0.93812498  0.93808876  0.68821550  1
  Zn  Zn147  1  0.06451229  0.06385904  0.31687663  1
  Zn  Zn148  1  0.06162572  0.06104628  0.81673016  1
  Zn  Zn149  1  0.06665519  0.56342843  0.31127355  1
  Zn  Zn150  1  0.06178258  0.56336149  0.81393142  1
  Zn  Zn151  1  0.56488527  0.06434168  0.31770281  1
  Zn  Zn152  1  0.55819331  0.06619949  0.81631057  1
  Zn  Zn153  1  0.56220041  0.57371294  0.31393645  1
  Zn  Zn154  1  0.56539362  0.56389274  0.81193869  1
  Zn  Zn155  1  0.44076677  0.19127609  0.44027915  1
  Zn  Zn156  1  0.43940075  0.18467793  0.93906179  1
  Zn  Zn157  1  0.42438488  0.72170838  0.42165066  1
  Zn  Zn158  1  0.43871664  0.68730578  0.93719404  1
  Zn  Zn159  1  0.93964660  0.19026997  0.44410664  1
  Zn  Zn160  1  0.94220152  0.18541126  0.93744729  1
  Zn  Zn161  1  0.93352842  0.68926948  0.43670157  1
  Zn  Zn162  1  0.93599760  0.68020399  0.93421703  1
  Zn  Zn163  1  0.06118262  0.31199888  0.06389827  1
  Zn  Zn164  1  0.05573190  0.31309174  0.56655249  1
  Zn  Zn165  1  0.06705108  0.81024438  0.06184195  1
  Zn  Zn166  1  0.06063767  0.81524910  0.56521892  1
  Zn  Zn167  1  0.56009057  0.31219316  0.06189206  1
  Zn  Zn168  1  0.55623821  0.31377786  0.56023430  1
  Zn  Zn169  1  0.56645684  0.80988695  0.06095577  1
  Zn  Zn170  1  0.56430059  0.81697897  0.56054573  1
  O  O171  1  0.11717219  0.11947647  0.12132481  1
  O  O172  1  0.13097791  0.11880091  0.61525606  1
  O  O173  1  0.11898516  0.62058967  0.11198196  1
  O  O174  1  0.12085687  0.62245277  0.62087442  1
  O  O175  1  0.62334357  0.11534249  0.12003960  1
  O  O176  1  0.61632183  0.13342676  0.61435673  1
  O  O177  1  0.61260554  0.62501191  0.11292538  1
  O  O178  1  0.61132833  0.61405628  0.62703219  1
  O  O179  1  0.38080405  0.38465761  0.38050427  1
  O  O180  1  0.36657780  0.37347570  0.88769977  1
  O  O181  1  0.39548702  0.82963899  0.38479586  1
  O  O182  1  0.38613627  0.87446917  0.87431830  1
  O  O183  1  0.88172631  0.38153340  0.38188640  1
  O  O184  1  0.86861766  0.38228560  0.88137164  1
  O  O185  1  0.87371649  0.87442995  0.38856953  1
  O  O186  1  0.87024654  0.88768504  0.87279208  1
  O  O187  1  0.24785336  0.01267598  0.36829819  1
  O  O188  1  0.24932417  0.00461222  0.86169255  1
  O  O189  1  0.25389066  0.50975404  0.36749421  1
  O  O190  1  0.25123550  0.51071735  0.86225610  1
  O  O191  1  0.74781794  0.01671398  0.37587939  1
  O  O192  1  0.76529606  0.00646336  0.88611067  1
  O  O193  1  0.75697881  0.50653250  0.36897819  1
  O  O194  1  0.75817713  0.50163321  0.86578942  1
  O  O195  1  0.25024948  0.49238150  0.13206579  1
  O  O196  1  0.24569786  0.50541919  0.63502999  1
  O  O197  1  0.24284287  0.99354802  0.13519916  1
  O  O198  1  0.24066883  1.00343034  0.63868509  1
  O  O199  1  0.75869685  0.49050994  0.13840725  1
  O  O200  1  0.73932307  0.50378869  0.62961832  1
  O  O201  1  0.74096446  0.99436827  0.12623451  1
  O  O202  1  0.75284748  0.99613445  0.62062930  1
  O  O203  1  0.00597714  0.36848525  0.25573099  1
  O  O204  1  0.01465680  0.38154705  0.75183313  1
  O  O205  1  0.00937369  0.86693723  0.25076740  1
  O  O206  1  0.01271043  0.86802684  0.74578124  1
  O  O207  1  0.49705203  0.37340953  0.26160804  1
  O  O208  1  0.51093394  0.37931009  0.74988356  1
  O  O209  1  0.49926066  0.85758317  0.24942155  1
  O  O210  1  0.50599688  0.86805398  0.75644555  1
  O  O211  1  0.50122892  0.13921629  0.25478856  1
  O  O212  1  0.48690262  0.12822294  0.74218433  1
  O  O213  1  0.50323546  0.62785650  0.23054267  1
  O  O214  1  0.49651710  0.63178404  0.74245085  1
  O  O215  1  1.00631757  0.13117341  0.23847257  1
  O  O216  1  0.98742593  0.12460490  0.75422491  1
  O  O217  1  1.00306529  0.63245782  0.24175220  1
  O  O218  1  0.99539188  0.63095664  0.74444351  1
  O  O219  1  0.37997262  0.26226592  0.00234970  1
  O  O220  1  0.38015972  0.26314588  0.50717727  1
  O  O221  1  0.36310930  0.74745878  0.00686935  1
  O  O222  1  0.36597623  0.74233231  0.51883381  1
  O  O223  1  0.87492540  0.25577907  0.00657793  1
  O  O224  1  0.87677522  0.25868967  0.51189154  1
  O  O225  1  0.87616154  0.74209444  0.00972937  1
  O  O226  1  0.86704389  0.75933110  0.50516727  1
  O  O227  1  0.11788593  0.24432725  0.49379841  1
  O  O228  1  0.11961569  0.24410971  0.99107130  1
  O  O229  1  0.13136735  0.74651719  0.49863326  1
  O  O230  1  0.13940548  0.73988739  1.00428257  1
  O  O231  1  0.62041516  0.24537643  0.48984234  1
  O  O232  1  0.62672581  0.24408965  0.99462228  1
  O  O233  1  0.63655584  0.75267242  0.49318720  1
  O  O234  1  0.62754520  0.73364889  0.99859793  1
  O  O235  1  0.50437793  0.25213864  0.14430330  1
  O  O236  1  0.48828226  0.24159595  0.62619875  1
  O  O237  1  0.49549558  0.74026536  0.12705719  1
  O  O238  1  0.49507186  0.74513967  0.62653567  1
  O  O239  1  0.99386757  0.24217752  0.13281767  1
  O  O240  1  0.98124334  0.26060165  0.63424455  1
  O  O241  1  0.99671384  0.74409470  0.12971323  1
  O  O242  1  0.99268470  0.74552549  0.63062477  1
  O  O243  1  0.00686709  0.25258125  0.36915682  1
  O  O244  1  0.01636646  0.24684877  0.87063832  1
  O  O245  1  0.00586496  0.75077870  0.36676839  1
  O  O246  1  -0.00428226  0.74522457  0.86170465  1
  O  O247  1  0.50384514  0.26011446  0.36773385  1
  O  O248  1  0.51405833  0.24471604  0.87238346  1
  O  O249  1  0.51863833  0.72408711  0.35680750  1
  O  O250  1  0.50156004  0.75561053  0.86418968  1
  O  O251  1  0.23938884  0.11969777  0.48815164  1
  O  O252  1  0.23289183  0.11656397  1.00233768  1
  O  O253  1  0.24324308  0.63257182  0.49284029  1
  O  O254  1  0.24540026  0.62622616  0.99202531  1
  O  O255  1  0.74088954  0.13365212  0.49351583  1
  O  O256  1  0.73981403  0.12702424  0.99220668  1
  O  O257  1  0.75867938  0.63766016  0.48997231  1
  O  O258  1  0.73736855  0.61939968  1.00257002  1
  O  O259  1  0.26360933  0.38132297  0.00911563  1
  O  O260  1  0.26473146  0.38453833  0.50050472  1
  O  O261  1  0.24720190  0.86545723  0.00488134  1
  O  O262  1  0.24585461  0.86375508  0.49615189  1
  O  O263  1  0.76329157  0.37551523  0.00887267  1
  O  O264  1  0.76208079  0.37238169  0.49051029  1
  O  O265  1  0.74408362  0.87083032  0.01694065  1
  O  O266  1  0.75443161  0.87154640  0.50887116  1
  O  O267  1  0.13521525  0.49259988  0.24898901  1
  O  O268  1  0.13158831  0.49702995  0.74611449  1
  O  O269  1  0.12664404  0.98972777  0.24711599  1
  O  O270  1  0.12679156  0.99078583  0.74626603  1
  O  O271  1  0.63513758  0.50282212  0.25563585  1
  O  O272  1  0.63138623  0.49559593  0.74313738  1
  O  O273  1  0.62879370  1.00623306  0.23773750  1
  O  O274  1  0.61962201  1.00760510  0.74454580  1
  O  O275  1  0.36622044  -0.00958772  0.25069939  1
  O  O276  1  0.36753091  0.00719824  0.74954577  1
  O  O277  1  0.36270760  0.49721772  0.25591915  1
  O  O278  1  0.36731452  0.50467725  0.74951345  1
  O  O279  1  0.87140676  -0.00111149  0.25696668  1
  O  O280  1  0.88191911  0.00442698  0.76652768  1
  O  O281  1  0.87576044  0.49922052  0.26250562  1
  O  O282  1  0.86912731  0.49896025  0.75439140  1
  O  O283  1  0.12021832  0.36772579  0.37285980  1
  O  O284  1  0.12990279  0.36504873  0.87020324  1
  O  O285  1  0.12400439  0.86944547  0.36679882  1
  O  O286  1  0.12250896  0.87718966  0.86444395  1
  O  O287  1  0.61378836  0.36890169  0.38114426  1
  O  O288  1  0.63090653  0.36701838  0.86848849  1
  O  O289  1  0.61768217  0.86236690  0.37848023  1
  O  O290  1  0.61934830  0.87234058  0.87109434  1
  O  O291  1  0.37956938  0.13023834  0.12464321  1
  O  O292  1  0.37874525  0.13334680  0.63006048  1
  O  O293  1  0.39061189  0.62874728  0.11440915  1
  O  O294  1  0.38776530  0.62950077  0.63128316  1
  O  O295  1  0.88055222  0.13702324  0.11881313  1
  O  O296  1  0.87206033  0.13485344  0.63344195  1
  O  O297  1  0.88556819  0.63055567  0.12668040  1
  O  O298  1  0.88049053  0.62972293  0.63003531  1
  O  O299  1  0.24697201  0.26286356  0.13511832  1
  O  O300  1  0.26237805  0.25133602  0.62716799  1
  O  O301  1  0.25708945  0.75112558  0.11875293  1
  O  O302  1  0.26451453  0.74882676  0.62063694  1
  O  O303  1  0.75726670  0.25480206  0.12755965  1
  O  O304  1  0.77162657  0.25930101  0.62574991  1
  O  O305  1  0.76195406  0.75320904  0.12404013  1
  O  O306  1  0.75498257  0.75270590  0.61703369  1
  O  O307  1  0.23636271  0.24159674  0.36813478  1
  O  O308  1  0.22959341  0.24339115  0.87057664  1
  O  O309  1  0.24284031  0.74435397  0.38072932  1
  O  O310  1  0.25543966  0.73809631  0.88059179  1
  O  O311  1  0.74192460  0.24441174  0.37690913  1
  O  O312  1  0.74025050  0.24016370  0.87712838  1
  O  O313  1  0.74563182  0.74581397  0.37825178  1
  O  O314  1  0.74932842  0.74301125  0.87671354  1
  O  O315  1  0.00812096  0.11863062  0.01252627  1
  O  O316  1  0.01073363  0.11740843  0.49838705  1
  O  O317  1  0.00862350  0.61739889  0.00238757  1
  O  O318  1  0.00555561  0.62231465  0.50365481  1
  O  O319  1  0.51350706  0.12299537  0.00264650  1
  O  O320  1  0.50556066  0.11963039  0.50529338  1
  O  O321  1  0.50796617  0.61664268  0.00531314  1
  O  O322  1  0.49388131  0.61455864  0.50443824  1
  O  O323  1  0.48941075  0.38832697  0.49078907  1
  O  O324  1  0.48688759  0.38224883  1.00562047  1
  O  O325  1  0.50327699  0.89607433  0.50544613  1
  O  O326  1  0.50033150  0.87071100  0.98801818  1
  O  O327  1  0.99342553  0.38431402  0.49307578  1
  O  O328  1  0.98712261  0.38151244  1.00521236  1
  O  O329  1  0.98995784  0.88113162  0.49962420  1
  O  O330  1  1.00530236  0.88917984  1.00526394  1
  O  O331  1  0.49627155  0.49988857  0.37776573  1
  O  O332  1  0.49831057  0.50273107  0.88518666  1
  O  O333  1  0.50006225  1.00256576  0.38965169  1
  O  O334  1  0.49689981  0.98912262  0.87771388  1
  O  O335  1  0.99381185  0.49826435  0.37945284  1
  O  O336  1  0.99243963  0.50179211  0.88635666  1
  O  O337  1  1.00208497  0.99767880  0.38870290  1
  O  O338  1  0.98924247  1.00319806  0.88962201  1
  O  O339  1  0.00266544  0.00540139  0.11761113  1
  O  O340  1  0.00714494  -0.00290604  0.61380634  1
  O  O341  1  -0.00076312  0.50473368  0.11307135  1
  O  O342  1  0.00572073  0.50887306  0.61805137  1
  O  O343  1  0.51183490  -0.00197173  0.12522515  1
  O  O344  1  0.49392887  0.01717098  0.61394188  1
  O  O345  1  0.49489076  0.50861707  0.11583344  1
  O  O346  1  0.50422719  0.50757869  0.61518415  1
  O  O347  1  0.24470098  0.38287322  0.24512231  1
  O  O348  1  0.24028928  0.38537160  0.74618269  1
  O  O349  1  0.24376534  0.88005772  0.24771122  1
  O  O350  1  0.23596680  0.88025240  0.75359675  1
  O  O351  1  0.75451873  0.38496358  0.24322693  1
  O  O352  1  0.73928512  0.38705946  0.75037757  1
  O  O353  1  0.74947160  0.87545439  0.23432622  1
  O  O354  1  0.75128359  0.87479161  0.73146080  1
  O  O355  1  0.24353399  0.11469419  0.26522355  1
  O  O356  1  0.26015150  0.11781694  0.74995100  1
  O  O357  1  0.24187610  0.61667783  0.25839595  1
  O  O358  1  0.25419901  0.62214070  0.75562889  1
  O  O359  1  0.74601765  0.12938762  0.26676739  1
  O  O360  1  0.76210628  0.12026700  0.76382878  1
  O  O361  1  0.75446946  0.61539109  0.25524229  1
  O  O362  1  0.75745209  0.61228454  0.74799868  1
  O  O363  1  0.35700827  0.13628531  0.38209223  1
  O  O364  1  0.37209727  0.12504206  0.86649458  1
  O  O365  1  0.36110259  0.62588168  0.37845597  1
  O  O366  1  0.36858646  0.62258463  0.86665289  1
  O  O367  1  0.85923388  0.13056036  0.38450111  1
  O  O368  1  0.86881554  0.12129663  0.87062232  1
  O  O369  1  0.86752615  0.61711993  0.37205350  1
  O  O370  1  0.87395754  0.60884379  0.86674085  1
  O  O371  1  0.13133365  0.37703116  0.12978940  1
  O  O372  1  0.12676670  0.38389722  0.63093483  1
  O  O373  1  0.13196098  0.87825461  0.13436240  1
  O  O374  1  0.12509450  0.88653238  0.63049569  1
  O  O375  1  0.64131755  0.37113117  0.11882587  1
  O  O376  1  0.61710271  0.38730557  0.63137389  1
  O  O377  1  0.62913543  0.88752643  0.12355791  1
  O  O378  1  0.64229087  0.87444301  0.62468039  1
  O  O379  1  0.11363256  0.25495286  0.25853940  1
  O  O380  1  0.12219819  0.25918454  0.75587288  1
  O  O381  1  0.11683886  0.75743582  0.25217019  1
  O  O382  1  0.11815837  0.76408345  0.74627980  1
  O  O383  1  0.61339944  0.24999246  0.26493238  1
  O  O384  1  0.62143664  0.26424544  0.75893302  1
  O  O385  1  0.62048968  0.74482222  0.25429336  1
  O  O386  1  0.61454325  0.74747942  0.74687476  1
  O  O387  1  0.39015766  0.25697172  0.25187111  1
  O  O388  1  0.37463627  0.24533351  0.74394776  1
  O  O389  1  0.38105611  0.74461370  0.23345551  1
  O  O390  1  0.38435029  0.74544909  0.73881343  1
  O  O391  1  0.88802135  0.25458169  0.24460336  1
  O  O392  1  0.87571445  0.24242621  0.74457920  1
  O  O393  1  0.88902892  0.74899835  0.24465069  1
  O  O394  1  0.88200604  0.74531454  0.74317254  1
  O  O395  1  0.38155992  0.49846971  0.49178911  1
  O  O396  1  0.38399129  0.48900666  0.99421802  1
  O  O397  1  0.38363654  1.00393126  0.50090803  1
  O  O398  1  0.37734070  0.99306148  0.99689723  1
  O  O399  1  0.87736170  0.49450847  0.49000618  1
  O  O400  1  0.88112425  0.49322862  0.99198171  1
  O  O401  1  0.88307962  0.99564645  0.49617696  1
  O  O402  1  0.88740349  1.00379158  0.99188285  1
  O  O403  1  0.11386368  0.00576140  0.00467676  1
  O  O404  1  0.11992829  0.00572501  0.50912540  1
  O  O405  1  0.11795455  0.50394411  -0.00163337  1
  O  O406  1  0.12054737  0.50760537  0.50447735  1
  O  O407  1  0.62289323  0.00752782  0.01216564  1
  O  O408  1  0.62008264  0.01386993  0.49749288  1
  O  O409  1  0.61694505  0.50869643  -0.00299959  1
  O  O410  1  0.61615845  0.49703523  0.50686274  1
  O  O411  1  0.36691220  0.36888389  0.11620264  1
  O  O412  1  0.37369084  0.36900572  0.61616795  1
  O  O413  1  0.36829298  0.86233376  0.12052683  1
  O  O414  1  0.38249118  0.86274328  0.63096242  1
  O  O415  1  0.87094202  0.36219453  0.11871676  1
  O  O416  1  0.87767826  0.37560316  0.61225835  1
  O  O417  1  0.87008358  0.86385113  0.12454791  1
  O  O418  1  0.86494238  0.87385943  0.61574564  1
  O  O419  1  0.13031340  0.13283138  0.38619620  1
  O  O420  1  0.12412287  0.13215887  0.88474255  1
  O  O421  1  0.13323759  0.63141663  0.38085856  1
  O  O422  1  0.13302702  0.62216321  0.88560210  1
  O  O423  1  0.63301161  0.13481225  0.38324417  1
  O  O424  1  0.63261259  0.13050032  0.88247915  1
  O  O425  1  0.64224509  0.63097474  0.37508264  1
  O  O426  1  0.62646326  0.62647794  0.88742195  1
