# generated using pymatgen
data_V85Zn86O256
_symmetry_space_group_name_H-M   'P 1'
_cell_length_a   16.95368012
_cell_length_b   16.94779501
_cell_length_c   16.96463226
_cell_angle_alpha   89.95884828
_cell_angle_beta   89.97879640
_cell_angle_gamma   89.94797704
_symmetry_Int_Tables_number   1
_chemical_formula_structural   V85Zn86O256
_chemical_formula_sum   'V85 Zn86 O256'
_cell_volume   4874.40169740
_cell_formula_units_Z   1
loop_
 _symmetry_equiv_pos_site_id
 _symmetry_equiv_pos_as_xyz
  1  'x, y, z'
loop_
 _atom_site_type_symbol
 _atom_site_label
 _atom_site_symmetry_multiplicity
 _atom_site_fract_x
 _atom_site_fract_y
 _atom_site_fract_z
 _atom_site_occupancy
  V  V0  1  -0.00193772  0.88035083  0.37500964  1
  V  V1  1  0.24774792  0.74816280  0.50668554  1
  V  V2  1  0.62838564  0.12416255  -0.00332308  1
  V  V3  1  -0.00677979  0.64388782  0.61422136  1
  V  V4  1  -0.00386035  0.62039761  0.13132348  1
  V  V5  1  0.50348871  0.12704997  0.62362971  1
  V  V6  1  0.49880937  0.00193340  0.00396058  1
  V  V7  1  0.12343819  0.38328972  0.74820937  1
  V  V8  1  0.50227294  0.50011310  0.50138359  1
  V  V9  1  0.63262603  0.50126929  0.62559142  1
  V  V10  1  0.11739688  0.13355324  0.50114719  1
  V  V11  1  0.12555915  0.12670921  0.00067282  1
  V  V12  1  0.63104830  0.37895683  0.75462589  1
  V  V13  1  0.37608878  0.49923445  0.38032458  1
  V  V14  1  0.37422383  0.00110387  0.37571573  1
  V  V15  1  0.37058027  0.74926789  0.63515404  1
  V  V16  1  0.37985556  0.62580943  0.25078867  1
  V  V17  1  0.25708775  0.24792263  0.51007449  1
  V  V18  1  0.49426566  0.62289648  0.62927467  1
  V  V19  1  0.50709422  0.37611002  0.37053506  1
  V  V20  1  0.75590540  0.12216682  0.87119828  1
  V  V21  1  0.24603043  0.62366014  0.38198495  1
  V  V22  1  0.00357593  0.87457004  0.88159499  1
  V  V23  1  -0.00690563  -0.00029857  0.00189065  1
  V  V24  1  0.87531457  0.25090308  0.12535522  1
  V  V25  1  0.87857694  0.50495103  0.36414589  1
  V  V26  1  0.63204708  0.00383057  0.13006967  1
  V  V27  1  0.73736509  0.37542608  0.13308105  1
  V  V28  1  0.13191681  0.87373153  0.74665686  1
  V  V29  1  0.24973133  0.00106750  0.25141918  1
  V  V30  1  0.00186022  0.24556045  0.25756694  1
  V  V31  1  0.85934741  0.00439009  0.37202703  1
  V  V32  1  0.37332535  0.49872421  0.86354989  1
  V  V33  1  0.12583963  0.25210773  0.87403066  1
  V  V34  1  0.00265400  0.49818034  -0.00184243  1
  V  V35  1  0.37377136  0.87686887  0.00217674  1
  V  V36  1  -0.00088627  0.00214236  0.51108404  1
  V  V37  1  0.24346542  0.50623899  0.74490597  1
  V  V38  1  0.37023362  0.87445648  0.50598267  1
  V  V39  1  0.75031927  0.74780332  0.49993981  1
  V  V40  1  0.87202021  0.37865405  0.00163579  1
  V  V41  1  0.12853309  0.49902908  0.12751753  1
  V  V42  1  0.39006518  0.40125949  0.02419038  1
  V  V43  1  0.75676310  0.87974489  0.12989987  1
  V  V44  1  0.73707009  0.50654128  0.24740130  1
  V  V45  1  0.75541473  -0.00072536  0.73898382  1
  V  V46  1  0.25116997  0.12744216  0.87250703  1
  V  V47  1  0.37506562  0.13105853  0.74249761  1
  V  V48  1  0.00149204  0.24376475  0.74437596  1
  V  V49  1  -0.00069365  0.12551622  0.12752241  1
  V  V50  1  0.62739848  -0.00789833  0.62106555  1
  V  V51  1  0.13317816  0.00044911  0.62358279  1
  V  V52  1  0.24388093  0.13425734  0.37516607  1
  V  V53  1  0.63001493  0.24722113  0.36714432  1
  V  V54  1  0.49820147  0.37820388  0.87483191  1
  V  V55  1  0.37485660  0.13559667  0.24821507  1
  V  V56  1  0.62438829  0.74821267  0.37193486  1
  V  V57  1  0.87867728  0.24377221  0.62283394  1
  V  V58  1  0.49607922  0.13496196  0.12469821  1
  V  V59  1  0.87753467  0.75188029  0.12639755  1
  V  V60  1  0.49732642  0.87502797  0.37320397  1
  V  V61  1  0.87467425  0.38175953  0.49938503  1
  V  V62  1  0.12534105  0.75008556  0.87180651  1
  V  V63  1  0.12520654  0.36757066  0.25566757  1
  V  V64  1  0.26514538  0.25026622  0.00169424  1
  V  V65  1  0.00086902  0.37333502  0.38083039  1
  V  V66  1  0.50968209  0.74717090  0.75512341  1
  V  V67  1  0.37950793  0.74938752  0.12769528  1
  V  V68  1  0.87013492  0.87254724  0.50052843  1
  V  V69  1  0.11405974  0.50682778  0.60534504  1
  V  V70  1  -0.00373149  0.74342832  0.25473465  1
  V  V71  1  -0.00604503  0.37552401  0.87508543  1
  V  V72  1  0.49945190  0.25345836  0.74158447  1
  V  V73  1  0.59036436  0.59989912  0.00449874  1
  V  V74  1  0.24928131  0.49923625  0.25150942  1
  V  V75  1  0.12452555  0.74572388  0.37936139  1
  V  V76  1  0.74917464  0.24611312  0.49949406  1
  V  V77  1  0.76397305  0.51439787  0.76434036  1
  V  V78  1  0.25348940  0.36625192  0.12810749  1
  V  V79  1  0.25072202  0.74665863  0.00383482  1
  V  V80  1  0.62854175  0.88211448  0.25309336  1
  V  V81  1  0.85968054  0.12316690  0.25350482  1
  V  V82  1  0.25084064  0.62359046  0.87234378  1
  V  V83  1  0.37503700  0.00109745  0.87312701  1
  V  V84  1  0.12536462  0.87477585  0.25150770  1
  Zn  Zn85  1  0.24973077  0.87569532  0.12715155  1
  Zn  Zn86  1  0.88683363  0.66204870  0.74640720  1
  Zn  Zn87  1  0.50063530  0.25898528  0.24530443  1
  Zn  Zn88  1  0.50249275  0.86467888  0.88018610  1
  Zn  Zn89  1  0.25349473  0.37463866  0.62703531  1
  Zn  Zn90  1  0.82190394  0.82496360  -0.02862160  1
  Zn  Zn91  1  0.38151618  0.36762677  0.50815028  1
  Zn  Zn92  1  0.79498041  0.82130864  0.65614138  1
  Zn  Zn93  1  0.74994624  0.25398505  -0.00458548  1
  Zn  Zn94  1  0.88524492  0.11521754  0.74338367  1
  Zn  Zn95  1  0.75467764  0.37786432  0.62776839  1
  Zn  Zn96  1  0.12466497  -0.00079833  0.12532731  1
  Zn  Zn97  1  0.62707390  0.24888195  0.87132116  1
  Zn  Zn98  1  0.50540170  0.74337069  0.24616471  1
  Zn  Zn99  1  0.25556357  -0.00227581  0.74260876  1
  Zn  Zn100  1  0.62688252  0.87295038  0.75276087  1
  Zn  Zn101  1  0.75440274  0.62752684  0.36722669  1
  Zn  Zn102  1  0.49932784  0.00206450  0.50064848  1
  Zn  Zn103  1  0.63053860  0.12442416  0.49726243  1
  Zn  Zn104  1  0.62893106  0.62295704  0.49576173  1
  Zn  Zn105  1  0.87691038  -0.00319608  0.87297257  1
  Zn  Zn106  1  0.12897529  0.62248873  0.00252121  1
  Zn  Zn107  1  0.18555830  0.18680799  0.18691429  1
  Zn  Zn108  1  0.18213940  0.18375057  0.68569219  1
  Zn  Zn109  1  0.18855907  0.68590640  0.19012241  1
  Zn  Zn110  1  0.17511954  0.68264004  0.68549087  1
  Zn  Zn111  1  0.68584609  0.19319104  0.18411451  1
  Zn  Zn112  1  0.68875286  0.18639895  0.68582580  1
  Zn  Zn113  1  0.69553419  0.68671539  0.09048401  1
  Zn  Zn114  1  0.68453435  0.67698546  0.69001762  1
  Zn  Zn115  1  0.31461579  0.31390401  0.32176005  1
  Zn  Zn116  1  0.31314062  0.31437466  0.80928415  1
  Zn  Zn117  1  0.31209660  0.81087801  0.31566447  1
  Zn  Zn118  1  0.31233468  0.81404703  0.81399006  1
  Zn  Zn119  1  0.81262524  0.31168275  0.31185815  1
  Zn  Zn120  1  0.81384067  0.31103500  0.81121265  1
  Zn  Zn121  1  0.81076389  0.81351647  0.31090310  1
  Zn  Zn122  1  0.80444165  0.80905145  0.81503961  1
  Zn  Zn123  1  0.18922297  0.43085627  0.43539358  1
  Zn  Zn124  1  0.19074294  0.43552368  0.93854749  1
  Zn  Zn125  1  0.18817642  0.93807306  0.43829779  1
  Zn  Zn126  1  0.18959767  0.93913768  0.93808267  1
  Zn  Zn127  1  0.69095189  0.43437878  0.43512367  1
  Zn  Zn128  1  0.68637000  0.45803557  0.94433606  1
  Zn  Zn129  1  0.68587296  0.93649596  0.44142533  1
  Zn  Zn130  1  0.69141917  0.92017170  0.92529511  1
  Zn  Zn131  1  0.31168498  0.06425652  0.06574966  1
  Zn  Zn132  1  0.31306775  0.06447242  0.56130062  1
  Zn  Zn133  1  0.33273662  0.56000195  0.06282304  1
  Zn  Zn134  1  0.31245161  0.56125880  0.56526571  1
  Zn  Zn135  1  0.81035533  0.06254203  0.06439916  1
  Zn  Zn136  1  0.81556115  0.06401951  0.55932646  1
  Zn  Zn137  1  0.81333854  0.55833769  0.06362099  1
  Zn  Zn138  1  0.81778297  0.56732955  0.56090578  1
  Zn  Zn139  1  0.43232240  0.43539316  0.19248916  1
  Zn  Zn140  1  0.43471094  0.43563611  0.68564758  1
  Zn  Zn141  1  0.43810703  0.94080988  0.18764551  1
  Zn  Zn142  1  0.44033681  0.93629910  0.68660988  1
  Zn  Zn143  1  0.93737108  0.43438373  0.18831905  1
  Zn  Zn144  1  0.93922913  0.43605732  0.68416038  1
  Zn  Zn145  1  0.93811487  0.94019244  0.19028473  1
  Zn  Zn146  1  0.93163246  0.89920163  0.70388333  1
  Zn  Zn147  1  0.06081505  0.06275722  0.31685111  1
  Zn  Zn148  1  0.06528895  0.05894616  0.81201168  1
  Zn  Zn149  1  0.06324135  0.55935529  0.31827975  1
  Zn  Zn150  1  0.02788383  0.58395462  0.82174481  1
  Zn  Zn151  1  0.56060555  0.06593193  0.31384080  1
  Zn  Zn152  1  0.57576357  0.03636479  0.82394637  1
  Zn  Zn153  1  0.56534407  0.56286996  0.30918037  1
  Zn  Zn154  1  0.56540402  0.56432823  0.81710858  1
  Zn  Zn155  1  0.43963790  0.18793347  0.43435876  1
  Zn  Zn156  1  0.44255962  0.18839012  0.92997375  1
  Zn  Zn157  1  0.43689920  0.68714030  0.44013749  1
  Zn  Zn158  1  0.43616876  0.68241915  0.93511075  1
  Zn  Zn159  1  0.93404411  0.18670746  0.43706594  1
  Zn  Zn160  1  0.93619348  0.18860259  0.93530118  1
  Zn  Zn161  1  0.93855901  0.68524785  0.44358533  1
  Zn  Zn162  1  0.93965450  0.68267948  0.94020005  1
  Zn  Zn163  1  0.06508388  0.31028636  0.06529220  1
  Zn  Zn164  1  0.06563518  0.31540040  0.56378907  1
  Zn  Zn165  1  0.06472669  0.81090448  0.06500954  1
  Zn  Zn166  1  0.06682871  0.81903719  0.56088602  1
  Zn  Zn167  1  0.56465343  0.31212588  0.05648217  1
  Zn  Zn168  1  0.56739976  0.31587857  0.56187619  1
  Zn  Zn169  1  0.56274300  0.81254204  0.06310359  1
  Zn  Zn170  1  0.55931186  0.81022137  0.55969465  1
  O  O171  1  0.11773844  0.12411113  0.11686575  1
  O  O172  1  0.12342505  0.11489197  0.61380904  1
  O  O173  1  0.11825090  0.61685648  0.12676439  1
  O  O174  1  0.11845720  0.61219367  0.61487683  1
  O  O175  1  0.61930667  0.12135555  0.12000469  1
  O  O176  1  0.61734490  0.12066521  0.61939949  1
  O  O177  1  0.60377036  0.62187398  0.11191029  1
  O  O178  1  0.61363239  0.61397333  0.62173972  1
  O  O179  1  0.38380123  0.38204924  0.38456907  1
  O  O180  1  0.38265635  0.38127544  0.87453893  1
  O  O181  1  0.38027865  0.87999065  0.38016070  1
  O  O182  1  0.37851876  0.88523769  0.88175685  1
  O  O183  1  0.88260432  0.37917339  0.37915569  1
  O  O184  1  0.88750380  0.36873145  0.88356423  1
  O  O185  1  0.88150397  0.88342897  0.37888890  1
  O  O186  1  0.89657123  0.87623584  0.88465189  1
  O  O187  1  0.25331348  0.00886188  0.36691136  1
  O  O188  1  0.26184125  0.00922140  0.87561673  1
  O  O189  1  0.25414358  0.50507723  0.37242210  1
  O  O190  1  0.24564667  0.50638495  0.86227100  1
  O  O191  1  0.76040293  -0.00121489  0.37872918  1
  O  O192  1  0.75467495  0.00862349  0.86354654  1
  O  O193  1  0.76050013  0.49451263  0.36186820  1
  O  O194  1  0.75330637  0.49866379  0.86195761  1
  O  O195  1  0.24791712  0.48872579  0.13322026  1
  O  O196  1  0.23679498  0.50336180  0.63088299  1
  O  O197  1  0.24650556  1.00103180  0.14023890  1
  O  O198  1  0.23805287  1.00190006  0.62215543  1
  O  O199  1  0.75896898  0.48411211  0.14023518  1
  O  O200  1  0.74334299  0.50174390  0.62939341  1
  O  O201  1  0.73663949  1.00437715  0.13382805  1
  O  O202  1  0.74198132  1.00824266  0.62703395  1
  O  O203  1  0.00677916  0.36581130  0.25664687  1
  O  O204  1  0.00560928  0.36965289  0.75899424  1
  O  O205  1  0.00761425  0.86969660  0.25791612  1
  O  O206  1  0.02019917  0.87964168  0.76901117  1
  O  O207  1  0.49432182  0.37646026  0.26419101  1
  O  O208  1  0.50953812  0.37100697  0.75337433  1
  O  O209  1  0.50224173  0.87650065  0.26268937  1
  O  O210  1  0.49919494  0.85645102  0.74694743  1
  O  O211  1  0.48988928  0.12725709  0.24258111  1
  O  O212  1  0.49478338  0.13455567  0.73895621  1
  O  O213  1  0.48444916  0.62494394  0.25624234  1
  O  O214  1  0.50366533  0.63506654  0.74182350  1
  O  O215  1  0.99829200  0.13163452  0.24661309  1
  O  O216  1  1.00288213  0.13974934  0.75638805  1
  O  O217  1  1.00762561  0.63339243  0.24598145  1
  O  O218  1  1.01177457  0.62892987  0.71955213  1
  O  O219  1  0.36563921  0.24879374  -0.00538136  1
  O  O220  1  0.36000899  0.24588879  0.49712739  1
  O  O221  1  0.36690084  0.75440770  0.00671108  1
  O  O222  1  0.36763438  0.75537450  0.50895948  1
  O  O223  1  0.87485307  0.26085209  0.00548567  1
  O  O224  1  0.87053728  0.25844703  0.50330951  1
  O  O225  1  0.89008217  0.74967252  0.01851093  1
  O  O226  1  0.86305009  0.76024423  0.48922395  1
  O  O227  1  0.13208484  0.23794266  0.50409435  1
  O  O228  1  0.13013112  0.24088315  0.99470916  1
  O  O229  1  0.14053775  0.75930761  0.49382860  1
  O  O230  1  0.14022327  0.74957831  0.99805678  1
  O  O231  1  0.63382081  0.24991482  0.49294325  1
  O  O232  1  0.62803002  0.23642791  0.99432645  1
  O  O233  1  0.62897529  0.75211137  0.48590540  1
  O  O234  1  0.61246732  0.72624243  1.01718292  1
  O  O235  1  0.50595777  0.23907904  0.12726376  1
  O  O236  1  0.50670004  0.24666404  0.63450706  1
  O  O237  1  0.48210381  0.76023237  0.13149371  1
  O  O238  1  0.49374746  0.74123483  0.63139944  1
  O  O239  1  0.99534325  0.24554054  0.13536306  1
  O  O240  1  0.99413864  0.25787808  0.63453327  1
  O  O241  1  1.00033580  0.74214841  0.13598298  1
  O  O242  1  1.00052325  0.74447307  0.61202954  1
  O  O243  1  -0.00479208  0.25622412  0.36364494  1
  O  O244  1  0.00698672  0.25816613  0.86938884  1
  O  O245  1  0.00244555  0.75846189  0.37157633  1
  O  O246  1  0.02063928  0.76112653  0.89316585  1
  O  O247  1  0.50902247  0.25980310  0.37503727  1
  O  O248  1  0.50362381  0.26015989  0.86083908  1
  O  O249  1  0.50457689  0.75788478  0.37420308  1
  O  O250  1  0.48963886  0.74855674  0.85812809  1
  O  O251  1  0.24364461  0.13310272  0.49424753  1
  O  O252  1  0.24467149  0.13223234  0.99613046  1
  O  O253  1  0.25665737  0.63285299  0.48936618  1
  O  O254  1  0.25071582  0.63119221  0.99377030  1
  O  O255  1  0.75343827  0.14184723  0.49985115  1
  O  O256  1  0.74421930  0.12395565  0.99086917  1
  O  O257  1  0.74947445  0.63199840  0.48994429  1
  O  O258  1  0.73112182  0.60907255  1.01435199  1
  O  O259  1  0.25981089  0.36860749  0.01097651  1
  O  O260  1  0.24746563  0.35463327  0.49731373  1
  O  O261  1  0.25706922  0.86779298  0.00214561  1
  O  O262  1  0.26259636  0.86534860  0.49246373  1
  O  O263  1  0.75810966  0.37942791  0.00891639  1
  O  O264  1  0.75918089  0.36546134  0.50177641  1
  O  O265  1  0.75202788  0.90149104  0.02688342  1
  O  O266  1  0.75830465  0.86525252  0.49494847  1
  O  O267  1  0.13075373  0.49003013  0.24645312  1
  O  O268  1  0.12705127  0.49002033  0.74540838  1
  O  O269  1  0.13160763  0.99264855  0.25245253  1
  O  O270  1  0.12929974  0.99681378  0.73954049  1
  O  O271  1  0.63783030  0.49456504  0.25405748  1
  O  O272  1  0.63724795  0.49767969  0.74461353  1
  O  O273  1  0.61603504  0.99150676  0.24487886  1
  O  O274  1  0.63730171  1.00851185  0.73224812  1
  O  O275  1  0.36616219  0.00823415  0.25548157  1
  O  O276  1  0.37610428  0.00665618  0.75756623  1
  O  O277  1  0.36693372  0.50700061  0.26014258  1
  O  O278  1  0.35972262  0.49686947  0.75590633  1
  O  O279  1  0.88101241  0.01122324  0.26057473  1
  O  O280  1  0.87072783  -0.00475743  0.74778922  1
  O  O281  1  0.86952499  0.49182935  0.26189994  1
  O  O282  1  0.85960392  0.48947250  0.74579960  1
  O  O283  1  0.11644642  0.37774108  0.36343626  1
  O  O284  1  0.11852700  0.36964954  0.86868122  1
  O  O285  1  0.11824791  0.87033389  0.36805271  1
  O  O286  1  0.12472175  0.86955332  0.87199409  1
  O  O287  1  0.61680517  0.36265265  0.38033692  1
  O  O288  1  0.61704953  0.37772986  0.86868378  1
  O  O289  1  0.61555771  0.87443648  0.37142534  1
  O  O290  1  0.60014509  0.91981415  0.85834826  1
  O  O291  1  0.38358353  0.12172410  0.13523462  1
  O  O292  1  0.38156785  0.11881227  0.63694584  1
  O  O293  1  0.36438303  0.63691505  0.13978245  1
  O  O294  1  0.38737002  0.63211742  0.62080606  1
  O  O295  1  0.88027377  0.13077256  0.13214400  1
  O  O296  1  0.87826805  0.13931089  0.62341310  1
  O  O297  1  0.89071229  0.62995851  0.12567985  1
  O  O298  1  0.88801894  0.62663212  0.62842602  1
  O  O299  1  0.23978486  0.25534816  0.11281890  1
  O  O300  1  0.24706890  0.24714955  0.61233349  1
  O  O301  1  0.25609014  0.75254984  0.11920811  1
  O  O302  1  0.25673054  0.73881781  0.61701960  1
  O  O303  1  0.75634763  0.26055231  0.12026043  1
  O  O304  1  0.75872883  0.25457296  0.61843085  1
  O  O305  1  0.76622536  0.76369647  0.13057565  1
  O  O306  1  0.73375699  0.74256835  0.60601133  1
  O  O307  1  0.24974127  0.23826055  0.38316221  1
  O  O308  1  0.24456753  0.24791575  0.88207252  1
  O  O309  1  0.24638604  0.74108992  0.38296620  1
  O  O310  1  0.24654740  0.74295510  0.88281668  1
  O  O311  1  0.73661849  0.25658067  0.38057725  1
  O  O312  1  0.74913358  0.23627009  0.87380823  1
  O  O313  1  0.74167391  0.74896039  0.37862149  1
  O  O314  1  0.73689863  0.81439439  0.89860186  1
  O  O315  1  0.00822775  0.12179099  0.00427962  1
  O  O316  1  0.00839209  0.11616745  0.49156289  1
  O  O317  1  0.00745970  0.61202108  0.01171713  1
  O  O318  1  -0.00139522  0.62074329  0.51267783  1
  O  O319  1  0.50592756  0.12387257  0.00669989  1
  O  O320  1  0.49508049  0.12631087  0.51464349  1
  O  O321  1  0.48708687  0.60931219  0.00031900  1
  O  O322  1  0.50372884  0.61403656  0.50556931  1
  O  O323  1  0.50187390  0.38657792  0.49419394  1
  O  O324  1  0.48725280  0.36398186  0.98918331  1
  O  O325  1  0.48818579  0.87472660  0.48919275  1
  O  O326  1  0.49245002  0.88313480  1.00012169  1
  O  O327  1  0.99436438  0.36657219  0.48635052  1
  O  O328  1  0.99690864  0.37808053  0.99546109  1
  O  O329  1  0.99460835  0.88188040  0.49010359  1
  O  O330  1  1.01687045  0.89050474  0.99659539  1
  O  O331  1  0.49933043  0.49519790  0.38349583  1
  O  O332  1  0.48675006  0.48696297  0.86168806  1
  O  O333  1  0.49193994  0.99408484  0.37848424  1
  O  O334  1  0.48108317  1.01698327  0.88782876  1
  O  O335  1  0.98777861  0.48816246  0.36843640  1
  O  O336  1  1.01266434  0.48819271  0.89079848  1
  O  O337  1  0.99784987  0.98866437  0.38158728  1
  O  O338  1  1.00299910  0.99472622  0.88558067  1
  O  O339  1  0.00394548  0.00692860  0.11966507  1
  O  O340  1  0.00908606  -0.00561114  0.61133385  1
  O  O341  1  0.00704661  0.50329106  0.12308626  1
  O  O342  1  0.01354722  0.49510835  0.62121115  1
  O  O343  1  0.50771842  0.01104853  0.12108492  1
  O  O344  1  0.50857767  0.00939500  0.62451004  1
  O  O345  1  0.42646056  0.47930604  0.09011631  1
  O  O346  1  0.50621759  0.50555691  0.62028833  1
  O  O347  1  0.24341601  0.37437763  0.24846963  1
  O  O348  1  0.23942785  0.38417455  0.75068122  1
  O  O349  1  0.24254100  0.88370751  0.25456270  1
  O  O350  1  0.23805396  0.88118347  0.75730979  1
  O  O351  1  0.75270740  0.37532440  0.23666758  1
  O  O352  1  0.73978477  0.37788503  0.74998123  1
  O  O353  1  0.74010103  0.87819671  0.24366219  1
  O  O354  1  0.74345938  0.88946538  0.73827700  1
  O  O355  1  0.25308500  0.12117651  0.25685782  1
  O  O356  1  0.25795186  0.12531267  0.75359757  1
  O  O357  1  0.25638586  0.62054741  0.26260177  1
  O  O358  1  0.23932989  0.61379176  0.75654179  1
  O  O359  1  0.76103876  0.13256440  0.24712625  1
  O  O360  1  0.75688269  0.11693592  0.75373265  1
  O  O361  1  0.74901782  0.60577469  0.24900530  1
  O  O362  1  0.76222058  0.61965890  0.75118935  1
  O  O363  1  0.36732057  0.11922484  0.36874785  1
  O  O364  1  0.36929407  0.12317420  0.86341157  1
  O  O365  1  0.36745534  0.61994264  0.37099833  1
  O  O366  1  0.35779772  0.61711823  0.87225667  1
  O  O367  1  0.87846228  0.11609089  0.36544952  1
  O  O368  1  0.86916524  0.12118777  0.86984208  1
  O  O369  1  0.87745075  0.60728346  0.37642749  1
  O  O370  1  0.92078683  0.62572610  0.84969897  1
  O  O371  1  0.13281389  0.37774244  0.13611774  1
  O  O372  1  0.13017504  0.38415654  0.63210874  1
  O  O373  1  0.12752568  0.87582250  0.14085079  1
  O  O374  1  0.12293250  0.88481923  0.63542380  1
  O  O375  1  0.63893954  0.36876335  0.12235599  1
  O  O376  1  0.62634175  0.38777338  0.63448604  1
  O  O377  1  0.62933245  0.88409029  0.13528833  1
  O  O378  1  0.61641263  0.88940038  0.62307591  1
  O  O379  1  0.11609877  0.25679454  0.24770051  1
  O  O380  1  0.11989480  0.26048739  0.75161656  1
  O  O381  1  0.11849713  0.75731025  0.25797406  1
  O  O382  1  0.13298780  0.75862889  0.76153751  1
  O  O383  1  0.62207691  0.24820167  0.26371685  1
  O  O384  1  0.61998808  0.26042107  0.74998426  1
  O  O385  1  0.62019962  0.76762331  0.26323465  1
  O  O386  1  0.61400166  0.75150548  0.74751477  1
  O  O387  1  0.37589753  0.23825576  0.25745083  1
  O  O388  1  0.38509469  0.24252069  0.75226288  1
  O  O389  1  0.37247216  0.74264823  0.24493722  1
  O  O390  1  0.37774617  0.75343085  0.73779273  1
  O  O391  1  0.88296992  0.24280396  0.24607242  1
  O  O392  1  0.88502821  0.25139737  0.73960615  1
  O  O393  1  0.88990533  0.75361067  0.24552442  1
  O  O394  1  0.87176716  0.78117662  0.73431306  1
  O  O395  1  0.38518655  0.50186598  0.49519941  1
  O  O396  1  0.34827980  0.49088821  0.97102597  1
  O  O397  1  0.37389481  0.99141314  0.49473310  1
  O  O398  1  0.37643745  0.99601017  0.99650897  1
  O  O399  1  0.86638888  0.48635647  0.48651237  1
  O  O400  1  0.88886495  0.48638616  1.00839598  1
  O  O401  1  0.88279907  0.99769594  0.48992010  1
  O  O402  1  0.89024413  1.00690310  1.00077568  1
  O  O403  1  0.12372405  0.01490648  0.00138200  1
  O  O404  1  0.11967164  0.00526976  0.50490622  1
  O  O405  1  0.12065353  0.49522599  0.01160952  1
  O  O406  1  0.12698767  0.49257475  0.50802317  1
  O  O407  1  0.61930084  0.01210360  0.01068750  1
  O  O408  1  0.62151095  0.00554637  0.50601951  1
  O  O409  1  0.60458022  0.49705205  0.00815925  1
  O  O410  1  0.62124505  0.49930130  0.50751738  1
  O  O411  1  0.35924669  0.35665611  0.12835312  1
  O  O412  1  0.36665791  0.37960461  0.61926839  1
  O  O413  1  0.36991443  0.87148429  0.12057796  1
  O  O414  1  0.37906174  0.86558167  0.61545989  1
  O  O415  1  0.87229973  0.36701778  0.11851000  1
  O  O416  1  0.87588239  0.36691911  0.61387349  1
  O  O417  1  0.87025685  0.86761483  0.13403984  1
  O  O418  1  0.87778903  0.88501589  0.60408219  1
  O  O419  1  0.13439097  0.11874158  0.38620668  1
  O  O420  1  0.13213552  0.13096743  0.88092991  1
  O  O421  1  0.13489144  0.63112564  0.37234224  1
  O  O422  1  0.13086348  0.63413255  0.87865589  1
  O  O423  1  0.61653296  0.14224493  0.38008907  1
  O  O424  1  0.63384778  0.12131912  0.88217356  1
  O  O425  1  0.62626724  0.63616919  0.37433990  1
  O  O426  1  0.61506543  0.61523033  0.90127718  1
