# generated using pymatgen
data_V85Zn86O256
_symmetry_space_group_name_H-M   'P 1'
_cell_length_a   16.94512648
_cell_length_b   16.93363719
_cell_length_c   16.95388734
_cell_angle_alpha   89.94644928
_cell_angle_beta   90.02793524
_cell_angle_gamma   89.95559573
_symmetry_Int_Tables_number   1
_chemical_formula_structural   V85Zn86O256
_chemical_formula_sum   'V85 Zn86 O256'
_cell_volume   4864.78875305
_cell_formula_units_Z   1
loop_
 _symmetry_equiv_pos_site_id
 _symmetry_equiv_pos_as_xyz
  1  'x, y, z'
loop_
 _atom_site_type_symbol
 _atom_site_label
 _atom_site_symmetry_multiplicity
 _atom_site_fract_x
 _atom_site_fract_y
 _atom_site_fract_z
 _atom_site_occupancy
  V  V0  1  0.25092653  0.12443561  0.37552132  1
  V  V1  1  -0.01383327  0.64084452  0.12971915  1
  V  V2  1  0.00012312  0.37877489  0.87542980  1
  V  V3  1  0.49326610  0.50231341  0.50521775  1
  V  V4  1  0.87515177  0.37439087  0.49789657  1
  V  V5  1  0.25349753  0.12532747  0.88133474  1
  V  V6  1  0.49566275  0.74411975  0.72909348  1
  V  V7  1  0.75302100  0.86591940  0.62877867  1
  V  V8  1  0.37524707  0.62750868  0.73218970  1
  V  V9  1  0.74825407  0.74221075  0.49594297  1
  V  V10  1  0.12052412  0.63364600  0.49350545  1
  V  V11  1  0.87461472  -0.01099264  0.88213594  1
  V  V12  1  0.75160420  0.25277714  0.00227011  1
  V  V13  1  0.75142066  -0.00681688  0.24672861  1
  V  V14  1  0.62570947  0.25211899  0.87549148  1
  V  V15  1  0.74619918  0.49727741  0.26626700  1
  V  V16  1  0.12604416  0.37472970  0.75113948  1
  V  V17  1  -0.00154355  0.50470761  -0.00067284  1
  V  V18  1  0.49989910  0.38028227  0.88055509  1
  V  V19  1  0.25002119  0.87725680  0.12480484  1
  V  V20  1  0.61854202  0.87668501  0.26541603  1
  V  V21  1  0.88006942  0.12611063  0.25079781  1
  V  V22  1  0.25000763  -0.00822973  0.75232786  1
  V  V23  1  0.62671644  0.25550905  0.36797846  1
  V  V24  1  0.86688160  0.63177580  0.74693340  1
  V  V25  1  0.37804719  0.62576728  0.24294629  1
  V  V26  1  0.87500786  -0.00425940  0.37779587  1
  V  V27  1  0.12775558  -0.00835976  0.62939761  1
  V  V28  1  0.23994575  0.00251199  0.24459316  1
  V  V29  1  0.49653302  0.75264820  0.25412345  1
  V  V30  1  0.11994889  0.50318231  0.12760047  1
  V  V31  1  0.49702626  -0.00157746  0.49042243  1
  V  V32  1  0.86272033  0.50380781  0.87008117  1
  V  V33  1  0.13044268  0.25138329  0.88477041  1
  V  V34  1  0.25732271  0.86544515  0.62589401  1
  V  V35  1  0.25095743  0.49670789  0.24500593  1
  V  V36  1  -0.00176860  0.38733744  0.37324957  1
  V  V37  1  -0.00350143  0.50108306  0.50220505  1
  V  V38  1  0.26456914  0.74888883  0.00355415  1
  V  V39  1  0.62808214  0.12721936  0.00187103  1
  V  V40  1  0.75168612  0.12700024  0.37726467  1
  V  V41  1  0.49864588  0.00425580  -0.00592164  1
  V  V42  1  0.50287224  0.12839685  0.12748767  1
  V  V43  1  0.00279570  0.12406141  0.62900569  1
  V  V44  1  0.62439169  0.00031717  0.62405438  1
  V  V45  1  0.79965666  0.81155156  0.06393098  1
  V  V46  1  0.24944976  0.50141865  0.74902720  1
  V  V47  1  0.12215431  0.37575872  0.24797845  1
  V  V48  1  0.62569767  0.12770518  0.50035750  1
  V  V49  1  0.36789807  0.25302114  0.11753316  1
  V  V50  1  0.87657742  0.86997518  0.50643754  1
  V  V51  1  0.87409116  0.37921831  0.00471374  1
  V  V52  1  0.62869427  0.38013360  0.74901122  1
  V  V53  1  0.01108610  0.86952214  0.87750531  1
  V  V54  1  0.49990396  0.12633547  0.62332515  1
  V  V55  1  0.37980682  0.86358571  0.49297385  1
  V  V56  1  0.75208868  0.37854071  0.62892751  1
  V  V57  1  0.50105129  0.37629957  0.37466072  1
  V  V58  1  0.25625164  0.25543904  0.49868955  1
  V  V59  1  0.12739091  0.12422486  0.50246137  1
  V  V60  1  0.12173056  0.24745555  0.37478959  1
  V  V61  1  0.25109154  0.62823222  0.87292007  1
  V  V62  1  0.37181488  0.49151575  0.37747960  1
  V  V63  1  0.00034694  -0.00193577  0.50299085  1
  V  V64  1  0.73720312  0.63977483  0.88285222  1
  V  V65  1  0.62678982  -0.00831425  0.12452698  1
  V  V66  1  0.12267405  0.63266458  -0.00101476  1
  V  V67  1  0.86699386  0.62899502  0.26969140  1
  V  V68  1  0.53291173  0.82762313  0.91780053  1
  V  V69  1  0.50027882  0.25115253  0.74862897  1
  V  V70  1  0.62226603  0.50718873  0.62576891  1
  V  V71  1  0.87469225  0.12478473  0.75355687  1
  V  V72  1  -0.00111348  0.63269716  0.62871956  1
  V  V73  1  0.12581757  0.11701099  0.00371097  1
  V  V74  1  0.24378794  0.63238409  0.36911276  1
  V  V75  1  0.74832415  -0.00155533  0.75021215  1
  V  V76  1  0.61503840  0.86855034  0.74884931  1
  V  V77  1  0.37636698  0.12621685  0.25050009  1
  V  V78  1  0.37728471  0.50221839  0.88043181  1
  V  V79  1  0.00041255  0.11889097  0.12539653  1
  V  V80  1  0.37467502  0.12431864  0.74999959  1
  V  V81  1  0.25480458  0.37531041  0.62127631  1
  V  V82  1  0.00202034  0.25020918  0.75217376  1
  V  V83  1  0.62368587  0.49549637  0.11274877  1
  V  V84  1  0.50882945  0.62632999  0.11680386  1
  Zn  Zn85  1  0.38170025  -0.01244243  0.87388203  1
  Zn  Zn86  1  0.87565315  0.25122906  0.62722655  1
  Zn  Zn87  1  0.37700171  0.25288565  0.62057770  1
  Zn  Zn88  1  0.12379621  0.50036009  0.62354300  1
  Zn  Zn89  1  0.62506180  0.73944189  0.37405006  1
  Zn  Zn90  1  0.25263141  0.74660428  0.49965898  1
  Zn  Zn91  1  0.74136321  0.37598733  0.13273495  1
  Zn  Zn92  1  0.75266476  0.12522593  0.87669593  1
  Zn  Zn93  1  -0.00259320  0.25207017  0.24897419  1
  Zn  Zn94  1  0.87486442  0.25246797  0.12788702  1
  Zn  Zn95  1  0.50510324  0.26063353  0.24579910  1
  Zn  Zn96  1  0.11820517  0.85076018  0.24554025  1
  Zn  Zn97  1  0.75107256  0.25117136  0.50222809  1
  Zn  Zn98  1  0.37697343  -0.00561147  0.36865228  1
  Zn  Zn99  1  0.36987254  0.37511460  -0.00250517  1
  Zn  Zn100  1  0.13615404  0.75729309  0.86404300  1
  Zn  Zn101  1  0.00768050  0.84961563  0.36945116  1
  Zn  Zn102  1  0.00208057  0.75656593  0.74613485  1
  Zn  Zn103  1  0.62087965  0.62216480  0.49652442  1
  Zn  Zn104  1  0.24106498  0.37004300  0.11230424  1
  Zn  Zn105  1  0.38048372  0.87289366  0.00449685  1
  Zn  Zn106  1  -0.00159700  -0.00580982  0.00560384  1
  Zn  Zn107  1  0.18475695  0.18431975  0.18860706  1
  Zn  Zn108  1  0.18923981  0.18618363  0.69031276  1
  Zn  Zn109  1  0.19197620  0.68654828  0.17925867  1
  Zn  Zn110  1  0.18181482  0.68785720  0.68587650  1
  Zn  Zn111  1  0.69224869  0.18523121  0.18838263  1
  Zn  Zn112  1  0.68966446  0.19174340  0.68720792  1
  Zn  Zn113  1  0.68951289  0.68245304  0.19511214  1
  Zn  Zn114  1  0.68649891  0.68734688  0.69135798  1
  Zn  Zn115  1  0.31275166  0.31208051  0.30682825  1
  Zn  Zn116  1  0.31264428  0.31174276  0.81320323  1
  Zn  Zn117  1  0.31242665  0.81207600  0.30711269  1
  Zn  Zn118  1  0.33101365  0.81260385  0.81937964  1
  Zn  Zn119  1  0.81215238  0.31615230  0.31423068  1
  Zn  Zn120  1  0.81299059  0.31444528  0.81492222  1
  Zn  Zn121  1  0.81460849  0.81267590  0.31270529  1
  Zn  Zn122  1  0.81179348  0.80955147  0.81485754  1
  Zn  Zn123  1  0.18247360  0.44218342  0.43537715  1
  Zn  Zn124  1  0.19006318  0.44094321  0.94035580  1
  Zn  Zn125  1  0.19186431  0.93509450  0.43582858  1
  Zn  Zn126  1  0.19066316  0.93787325  0.93989487  1
  Zn  Zn127  1  0.68420368  0.43748389  0.44198533  1
  Zn  Zn128  1  0.68722524  0.44118486  0.93902483  1
  Zn  Zn129  1  0.69002722  0.93691319  0.44028317  1
  Zn  Zn130  1  0.68615547  0.93740947  0.93561146  1
  Zn  Zn131  1  0.31390575  0.06217087  0.06323661  1
  Zn  Zn132  1  0.31429153  0.05928992  0.56238022  1
  Zn  Zn133  1  0.31367918  0.56240108  0.06298954  1
  Zn  Zn134  1  0.30724071  0.55899796  0.55615280  1
  Zn  Zn135  1  0.81262516  0.06197605  0.06496855  1
  Zn  Zn136  1  0.81207810  0.06075723  0.56633147  1
  Zn  Zn137  1  0.80537656  0.56535673  0.06201176  1
  Zn  Zn138  1  0.81304153  0.55815633  0.56675739  1
  Zn  Zn139  1  0.44232833  0.43874985  0.18735968  1
  Zn  Zn140  1  0.43674749  0.43753500  0.69003057  1
  Zn  Zn141  1  0.43616314  0.93597226  0.18235035  1
  Zn  Zn142  1  0.43592737  0.93733576  0.68102453  1
  Zn  Zn143  1  0.93299903  0.44731649  0.19085928  1
  Zn  Zn144  1  0.93603406  0.44342789  0.68842614  1
  Zn  Zn145  1  0.93220038  0.92828019  0.18158411  1
  Zn  Zn146  1  0.93779455  0.93631961  0.69301095  1
  Zn  Zn147  1  0.05734919  -0.00610665  0.30666797  1
  Zn  Zn148  1  0.06402106  0.05819523  0.81562553  1
  Zn  Zn149  1  0.05734902  0.67671848  0.30964904  1
  Zn  Zn150  1  0.06146542  0.56790228  0.81250345  1
  Zn  Zn151  1  0.56485386  0.06621907  0.31223579  1
  Zn  Zn152  1  0.56723420  0.06542849  0.81130310  1
  Zn  Zn153  1  0.56676540  0.56160671  0.31241849  1
  Zn  Zn154  1  0.56036447  0.56476286  0.80836756  1
  Zn  Zn155  1  0.43882754  0.18945916  0.43538546  1
  Zn  Zn156  1  0.43904235  0.18725305  0.93673177  1
  Zn  Zn157  1  0.43847330  0.67981393  0.43002719  1
  Zn  Zn158  1  0.43965656  0.67848410  0.93266749  1
  Zn  Zn159  1  0.93939422  0.18850747  0.43942684  1
  Zn  Zn160  1  0.93930983  0.18754769  0.93850352  1
  Zn  Zn161  1  0.92763288  0.68568522  0.44558766  1
  Zn  Zn162  1  0.92790109  0.69265348  0.94130342  1
  Zn  Zn163  1  0.05757212  0.30855629  0.06393161  1
  Zn  Zn164  1  0.06545536  0.31262259  0.56410350  1
  Zn  Zn165  1  0.06630244  0.81579892  0.05838526  1
  Zn  Zn166  1  0.06418663  0.81173143  0.56188879  1
  Zn  Zn167  1  0.56061146  0.31653634  0.06283122  1
  Zn  Zn168  1  0.56102245  0.31741744  0.55762565  1
  Zn  Zn169  1  0.61077893  0.78616428  0.08573671  1
  Zn  Zn170  1  0.56341952  0.81402819  0.55910410  1
  O  O171  1  0.11611468  0.13320308  0.11334078  1
  O  O172  1  0.12319844  0.11511135  0.62262993  1
  O  O173  1  0.11519743  0.61862161  0.11717552  1
  O  O174  1  0.11624605  0.62071183  0.61423643  1
  O  O175  1  0.61838714  0.11960446  0.12275712  1
  O  O176  1  0.62101934  0.12153978  0.62010416  1
  O  O177  1  0.61517293  0.61432084  0.12814119  1
  O  O178  1  0.63031852  0.60996230  0.62455037  1
  O  O179  1  0.37663434  0.38528878  0.37042241  1
  O  O180  1  0.38295614  0.38354341  0.86995519  1
  O  O181  1  0.36851277  0.87744761  0.38852683  1
  O  O182  1  0.40142015  0.87284490  0.88640307  1
  O  O183  1  0.88619591  0.36749088  0.38779530  1
  O  O184  1  0.87948895  0.38379260  0.88325952  1
  O  O185  1  0.87734036  0.88293367  0.38549066  1
  O  O186  1  0.87673215  0.88689287  0.87326915  1
  O  O187  1  0.25506259  0.00980183  0.36487013  1
  O  O188  1  0.25583610  0.00491669  0.86766348  1
  O  O189  1  0.25411807  0.50339578  0.36486322  1
  O  O190  1  0.25606269  0.50697562  0.86553296  1
  O  O191  1  0.75969433  0.00631692  0.37306943  1
  O  O192  1  0.75909920  0.00134557  0.86901995  1
  O  O193  1  0.74786687  0.49312857  0.36559564  1
  O  O194  1  0.76083604  0.50063267  0.87415664  1
  O  O195  1  0.24137267  0.49943181  0.13017472  1
  O  O196  1  0.24577971  0.49213347  0.63109751  1
  O  O197  1  0.25376001  0.98980111  0.13012415  1
  O  O198  1  0.24532924  0.99259437  0.63248669  1
  O  O199  1  0.73490683  0.49925897  0.12443303  1
  O  O200  1  0.73940240  0.48635800  0.62087374  1
  O  O201  1  0.73947082  1.00935134  0.13692907  1
  O  O202  1  0.74289758  0.99171894  0.63211877  1
  O  O203  1  0.00187766  0.37649815  0.25765385  1
  O  O204  1  0.00604184  0.37212217  0.75569030  1
  O  O205  1  0.00844839  0.89684017  0.25688024  1
  O  O206  1  -0.00698866  0.87408349  0.76976304  1
  O  O207  1  0.49619526  0.37567008  0.26738953  1
  O  O208  1  0.50605206  0.36718984  0.75702196  1
  O  O209  1  0.50560243  0.86668808  0.24502116  1
  O  O210  1  0.50545582  0.86350621  0.73880601  1
  O  O211  1  0.49548297  0.12555907  0.23927270  1
  O  O212  1  0.49448321  0.13029733  0.74430752  1
  O  O213  1  0.49224701  0.62858204  0.24524934  1
  O  O214  1  0.49133143  0.63581608  0.74610679  1
  O  O215  1  0.98645791  0.12158232  0.24608028  1
  O  O216  1  0.99458977  0.12778961  0.74806658  1
  O  O217  1  0.98156039  0.62224986  0.23642397  1
  O  O218  1  0.99009914  0.62474237  0.74281612  1
  O  O219  1  0.37830585  0.24725321  0.01511782  1
  O  O220  1  0.36009281  0.24674451  0.49953835  1
  O  O221  1  0.36703672  0.74558102  -0.00286363  1
  O  O222  1  0.37754760  0.76033201  0.49488888  1
  O  O223  1  0.86767638  0.25949298  -0.00140542  1
  O  O224  1  0.87707525  0.26069896  0.50671403  1
  O  O225  1  0.86168493  0.75618345  0.00648149  1
  O  O226  1  0.86255215  0.76253967  0.50467121  1
  O  O227  1  0.13319666  0.24477777  0.49453446  1
  O  O228  1  0.11971645  0.24224771  0.98778162  1
  O  O229  1  0.12877391  0.73716476  0.50109903  1
  O  O230  1  0.13445149  0.73996566  0.99486645  1
  O  O231  1  0.62501412  0.24168604  0.49149057  1
  O  O232  1  0.63203263  0.24825176  0.99672061  1
  O  O233  1  0.63700411  0.74949599  0.50051536  1
  O  O234  1  0.58977947  0.76915491  0.97437888  1
  O  O235  1  0.49429412  0.24355466  0.12751167  1
  O  O236  1  0.49856887  0.24582089  0.62912387  1
  O  O237  1  0.51541764  0.73378889  0.13833075  1
  O  O238  1  0.50134123  0.74703136  0.63040619  1
  O  O239  1  0.99490265  0.23706213  0.12924150  1
  O  O240  1  1.00172363  0.24260005  0.63453610  1
  O  O241  1  1.00423475  0.73843553  0.12076049  1
  O  O242  1  0.99960157  0.73692203  0.62267387  1
  O  O243  1  0.01274307  0.25646556  0.37710465  1
  O  O244  1  0.00778891  0.25741592  0.87059718  1
  O  O245  1  -0.00056509  0.74061510  0.38202559  1
  O  O246  1  -0.00075617  0.76396606  0.88008569  1
  O  O247  1  0.50789888  0.25768936  0.37406848  1
  O  O248  1  0.50635271  0.25573408  0.86820716  1
  O  O249  1  0.50159404  0.74582967  0.35937941  1
  O  O250  1  0.49493464  0.75035015  0.85865102  1
  O  O251  1  0.24635508  0.13107645  0.49607516  1
  O  O252  1  0.24428522  0.12084811  0.98876643  1
  O  O253  1  0.23915760  0.62311451  0.48844702  1
  O  O254  1  0.24425271  0.63182228  0.99704657  1
  O  O255  1  0.74466090  0.12641585  0.49668351  1
  O  O256  1  0.74581371  0.13528908  0.99978020  1
  O  O257  1  0.75485979  0.64086005  0.50986112  1
  O  O258  1  0.75029951  0.62251950  0.98124843  1
  O  O259  1  0.25560678  0.37521774  0.00027207  1
  O  O260  1  0.23968898  0.36772274  0.50905429  1
  O  O261  1  0.25322740  0.86767837  0.00664643  1
  O  O262  1  0.26128397  0.87247168  0.50612611  1
  O  O263  1  0.75803068  0.36978066  0.00230116  1
  O  O264  1  0.76025306  0.37449079  0.50733099  1
  O  O265  1  0.74586062  0.87452171  0.00484418  1
  O  O266  1  0.75580556  0.87047990  0.51062802  1
  O  O267  1  0.13195683  0.49621505  0.23504624  1
  O  O268  1  0.13652453  0.49621237  0.75158983  1
  O  O269  1  0.14261012  1.02527246  0.24050055  1
  O  O270  1  0.13858116  1.00436037  0.74266832  1
  O  O271  1  0.64222000  0.50348054  0.24351643  1
  O  O272  1  0.61701758  0.48652327  0.74132039  1
  O  O273  1  0.63056036  0.99723967  0.24590422  1
  O  O274  1  0.62831976  0.99260663  0.74487516  1
  O  O275  1  0.37157271  0.01371994  0.24737823  1
  O  O276  1  0.37333683  0.01016730  0.75234770  1
  O  O277  1  0.36612396  0.50231973  0.25343063  1
  O  O278  1  0.36402694  0.50515795  0.75407192  1
  O  O279  1  0.86690324  0.00419401  0.25946308  1
  O  O280  1  0.86845975  0.00684091  0.75978505  1
  O  O281  1  0.85927234  0.51532515  0.24229639  1
  O  O282  1  0.87993645  0.51246246  0.76177797  1
  O  O283  1  0.11803808  0.36942909  0.36767757  1
  O  O284  1  0.12194521  0.36871611  0.87046498  1
  O  O285  1  0.11460776  0.90099832  0.36290737  1
  O  O286  1  0.11506386  0.87674050  0.87581687  1
  O  O287  1  0.61681527  0.36488161  0.38087137  1
  O  O288  1  0.61929354  0.37382911  0.86786311  1
  O  O289  1  0.62210574  0.87824220  0.36761442  1
  O  O290  1  0.60751330  0.88346947  0.86490255  1
  O  O291  1  0.38230237  0.13482361  0.12950797  1
  O  O292  1  0.38036426  0.12632477  0.63336794  1
  O  O293  1  0.38679701  0.61422202  0.13687554  1
  O  O294  1  0.36688230  0.61869577  0.63355808  1
  O  O295  1  0.87849550  0.12861924  0.13432518  1
  O  O296  1  0.88125354  0.12357765  0.63875911  1
  O  O297  1  0.88658201  0.62612102  0.11680760  1
  O  O298  1  0.88044876  0.61792276  0.64052102  1
  O  O299  1  0.26499416  0.25040947  0.13101887  1
  O  O300  1  0.24896823  0.25614861  0.61647567  1
  O  O301  1  0.25242159  0.75888884  0.11367060  1
  O  O302  1  0.24668839  0.76291246  0.62316226  1
  O  O303  1  0.75099197  0.25498122  0.11507723  1
  O  O304  1  0.75296129  0.26310159  0.62285329  1
  O  O305  1  0.72170805  0.75395960  0.11092773  1
  O  O306  1  0.74460888  0.76193331  0.62014533  1
  O  O307  1  0.24143645  0.24900900  0.38023973  1
  O  O308  1  0.24131766  0.23827403  0.86761760  1
  O  O309  1  0.25735773  0.73438043  0.37541963  1
  O  O310  1  0.25419342  0.74523776  0.88165020  1
  O  O311  1  0.74328948  0.24582702  0.37903260  1
  O  O312  1  0.74478809  0.25142762  0.88703763  1
  O  O313  1  0.74799790  0.75821836  0.39405207  1
  O  O314  1  0.74439204  0.74032416  0.87270375  1
  O  O315  1  0.00740006  0.12344453  0.00707977  1
  O  O316  1  0.00548633  0.11999432  0.51094071  1
  O  O317  1  0.00575573  0.62397847  0.00353042  1
  O  O318  1  0.00116753  0.61722314  0.50800154  1
  O  O319  1  0.50700984  0.12422908  0.01128967  1
  O  O320  1  0.50445500  0.11960325  0.50500308  1
  O  O321  1  0.49474767  0.62734267  0.01853339  1
  O  O322  1  0.49668302  0.60751562  0.49876884  1
  O  O323  1  0.49844990  0.38529364  0.48720529  1
  O  O324  1  0.49389951  0.36975166  0.98352182  1
  O  O325  1  0.48787107  0.88276873  0.50364927  1
  O  O326  1  0.50275167  0.88940569  1.00286777  1
  O  O327  1  0.99610385  0.38065208  0.49764832  1
  O  O328  1  0.99347911  0.38150078  0.99417853  1
  O  O329  1  0.99151023  0.88125845  0.50218990  1
  O  O330  1  1.00191424  0.87961757  0.98642231  1
  O  O331  1  0.49025319  0.49370106  0.37994991  1
  O  O332  1  0.48950160  0.49215876  0.86461513  1
  O  O333  1  0.49876762  1.00772505  0.38721877  1
  O  O334  1  0.50166513  1.01638685  0.89078397  1
  O  O335  1  1.00146304  0.48732839  0.38567976  1
  O  O336  1  0.99446259  0.49675536  0.88210467  1
  O  O337  1  0.98144196  1.01422422  0.38919495  1
  O  O338  1  0.98883801  0.99188694  0.87561801  1
  O  O339  1  -0.01085840  0.01387513  0.12194601  1
  O  O340  1  0.00902761  0.00248439  0.62390771  1
  O  O341  1  0.00560626  0.50897979  0.11777953  1
  O  O342  1  0.00262691  0.50887504  0.61899245  1
  O  O343  1  0.50668259  0.00993966  0.11720108  1
  O  O344  1  0.50595894  0.00718472  0.61485478  1
  O  O345  1  0.51356049  0.51087600  0.13388012  1
  O  O346  1  0.50745354  0.48912992  0.61674201  1
  O  O347  1  0.24283281  0.38456243  0.24468555  1
  O  O348  1  0.24474569  0.38215704  0.74595091  1
  O  O349  1  0.24873317  0.88474456  0.24089953  1
  O  O350  1  0.26701883  0.88596162  0.74383611  1
  O  O351  1  0.76101583  0.39126886  0.24606382  1
  O  O352  1  0.74010532  0.37059041  0.74386402  1
  O  O353  1  0.74059559  0.88889137  0.26074083  1
  O  O354  1  0.73982199  0.87655704  0.74603371  1
  O  O355  1  0.26052130  0.12405293  0.25425327  1
  O  O356  1  0.25848532  0.11563760  0.75697400  1
  O  O357  1  0.25687059  0.61288627  0.25109664  1
  O  O358  1  0.25481437  0.61828676  0.75137095  1
  O  O359  1  0.75957708  0.11618726  0.25727750  1
  O  O360  1  0.75833309  0.12054872  0.75144564  1
  O  O361  1  0.75886791  0.61304410  0.25059856  1
  O  O362  1  0.76261794  0.62800929  0.75595175  1
  O  O363  1  0.36964640  0.12687685  0.36541619  1
  O  O364  1  0.36782867  0.12536612  0.86799982  1
  O  O365  1  0.36686845  0.61109980  0.36292552  1
  O  O366  1  0.36922778  0.61740198  0.86251773  1
  O  O367  1  0.86855301  0.12176827  0.37137653  1
  O  O368  1  0.87637559  0.11838323  0.86495937  1
  O  O369  1  0.87371898  0.61929985  0.36796131  1
  O  O370  1  0.86873107  0.62021958  0.86659428  1
  O  O371  1  0.12073977  0.38155296  0.12992686  1
  O  O372  1  0.13388969  0.37550651  0.63566962  1
  O  O373  1  0.14213449  0.87136175  0.12609807  1
  O  O374  1  0.13515095  0.88625896  0.61945012  1
  O  O375  1  0.62113912  0.38881609  0.12658745  1
  O  O376  1  0.63177850  0.37840636  0.63190627  1
  O  O377  1  0.62040970  0.89027106  0.13850146  1
  O  O378  1  0.63069311  0.88108172  0.63272483  1
  O  O379  1  0.12239824  0.25508699  0.25896775  1
  O  O380  1  0.12077147  0.25369392  0.76040028  1
  O  O381  1  0.13235447  0.73967050  0.25489935  1
  O  O382  1  0.11515423  0.74192616  0.75507339  1
  O  O383  1  0.62461538  0.24203460  0.26358364  1
  O  O384  1  0.62057351  0.25900639  0.75542203  1
  O  O385  1  0.62132131  0.76155574  0.25512914  1
  O  O386  1  0.61065727  0.75792105  0.74511488  1
  O  O387  1  0.37959812  0.24012521  0.24116010  1
  O  O388  1  0.37939693  0.23789967  0.74820135  1
  O  O389  1  0.38199458  0.73801714  0.25066064  1
  O  O390  1  0.38618481  0.74248201  0.74373293  1
  O  O391  1  0.87543524  0.24030098  0.25143478  1
  O  O392  1  0.88220663  0.24219233  0.75206349  1
  O  O393  1  0.86190219  0.73033142  0.25246845  1
  O  O394  1  0.88053810  0.73528255  0.75458370  1
  O  O395  1  0.37808352  0.49941385  0.48883322  1
  O  O396  1  0.37245750  0.50197263  0.98373634  1
  O  O397  1  0.38362861  0.99362859  0.49587624  1
  O  O398  1  0.38652374  1.00199559  0.99827112  1
  O  O399  1  0.88700084  0.48950074  0.50623355  1
  O  O400  1  0.87890414  0.49512534  0.99278400  1
  O  O401  1  0.87638377  0.99068138  0.49680088  1
  O  O402  1  0.87475156  1.00896398  0.98393654  1
  O  O403  1  0.12172615  0.01382698  -0.00602961  1
  O  O404  1  0.12248808  0.00660628  0.50967300  1
  O  O405  1  0.12026400  0.51125228  0.00808723  1
  O  O406  1  0.11154410  0.50712528  0.50097639  1
  O  O407  1  0.62166969  0.00812008  0.00805123  1
  O  O408  1  0.61850718  0.00642155  0.50432355  1
  O  O409  1  0.62119339  0.49735671  0.01286863  1
  O  O410  1  0.61440707  0.49811695  0.51063003  1
  O  O411  1  0.37943732  0.36094672  0.12462847  1
  O  O412  1  0.35889174  0.37143383  0.63262750  1
  O  O413  1  0.35958379  0.87557341  0.12166299  1
  O  O414  1  0.36657652  0.88063176  0.60825644  1
  O  O415  1  0.87816555  0.37604457  0.11182532  1
  O  O416  1  0.86817745  0.37586630  0.62157305  1
  O  O417  1  0.85410475  0.86849740  0.12929962  1
  O  O418  1  0.86478575  0.88297390  0.61970867  1
  O  O419  1  0.13390906  0.13569684  0.38393150  1
  O  O420  1  0.13278760  0.13143218  0.88007357  1
  O  O421  1  0.13320231  0.61622752  0.38161795  1
  O  O422  1  0.13379484  0.62308181  0.88518862  1
  O  O423  1  0.63303139  0.13026149  0.38183233  1
  O  O424  1  0.62968808  0.13467136  0.88194912  1
  O  O425  1  0.62406619  0.62545755  0.38288328  1
  O  O426  1  0.63996965  0.61859005  0.86580866  1
