# generated using pymatgen
data_V85Zn86O256
_symmetry_space_group_name_H-M   'P 1'
_cell_length_a   16.91631486
_cell_length_b   16.90932954
_cell_length_c   16.91214533
_cell_angle_alpha   89.99043970
_cell_angle_beta   90.06053439
_cell_angle_gamma   89.98680474
_symmetry_Int_Tables_number   1
_chemical_formula_structural   V85Zn86O256
_chemical_formula_sum   'V85 Zn86 O256'
_cell_volume   4837.60706519
_cell_formula_units_Z   1
loop_
 _symmetry_equiv_pos_site_id
 _symmetry_equiv_pos_as_xyz
  1  'x, y, z'
loop_
 _atom_site_type_symbol
 _atom_site_label
 _atom_site_symmetry_multiplicity
 _atom_site_fract_x
 _atom_site_fract_y
 _atom_site_fract_z
 _atom_site_occupancy
  V  V0  1  0.37815472  0.50165225  0.36967941  1
  V  V1  1  0.75126954  0.74612774  0.49047289  1
  V  V2  1  0.63459354  -0.00040216  0.12273991  1
  V  V3  1  0.37884654  0.24842343  0.62617562  1
  V  V4  1  0.11860393  -0.00240199  0.62195112  1
  V  V5  1  0.24973196  -0.00047278  0.75133130  1
  V  V6  1  0.62165387  0.74768740  0.86536348  1
  V  V7  1  0.87547881  0.12179513  0.75184264  1
  V  V8  1  0.86862426  0.76966947  0.12339174  1
  V  V9  1  0.12482106  0.50061906  0.62632860  1
  V  V10  1  -0.00324415  0.62506807  0.62740399  1
  V  V11  1  0.25746728  0.62456987  0.87655020  1
  V  V12  1  0.12598319  0.11505468  0.00367207  1
  V  V13  1  -0.00841643  0.74991906  0.25103414  1
  V  V14  1  0.75745006  0.62337029  0.87476034  1
  V  V15  1  -0.00457351  0.87669388  0.38805679  1
  V  V16  1  0.74760424  0.25466873  0.50277637  1
  V  V17  1  0.00108987  0.24946957  0.74844871  1
  V  V18  1  0.75212223  0.76701086  -0.00129242  1
  V  V19  1  0.49827231  0.86994221  0.87197702  1
  V  V20  1  -0.01259749  0.62467699  0.12692186  1
  V  V21  1  0.74920242  0.49834854  0.73912148  1
  V  V22  1  0.25068028  0.87266697  0.62764381  1
  V  V23  1  0.12564507  0.37545266  0.75152766  1
  V  V24  1  0.37875010  0.87204349  0.50096494  1
  V  V25  1  0.37622500  0.12841464  0.24596386  1
  V  V26  1  0.37859089  0.00102822  0.37790289  1
  V  V27  1  0.38050623  -0.00171268  0.88026862  1
  V  V28  1  0.00323152  0.11710520  0.12357936  1
  V  V29  1  0.25325623  0.37716080  0.12678138  1
  V  V30  1  0.50169919  0.49588636  -0.00298091  1
  V  V31  1  0.63000961  0.37176280  0.75748946  1
  V  V32  1  0.61965512  0.88132162  0.74268912  1
  V  V33  1  0.12187661  0.25428409  0.37450692  1
  V  V34  1  0.25059911  0.12509243  0.37676846  1
  V  V35  1  0.75449931  0.37968515  0.12660246  1
  V  V36  1  0.38174190  0.74474042  0.64011421  1
  V  V37  1  -0.00390650  0.50075865  0.49203809  1
  V  V38  1  0.62789445  0.62681887  0.00095227  1
  V  V39  1  0.50297587  0.25569283  0.76394439  1
  V  V40  1  0.37962359  0.38291556  0.50073209  1
  V  V41  1  0.62812213  0.50078998  0.13207279  1
  V  V42  1  0.50029173  0.61809116  0.64029880  1
  V  V43  1  0.87662423  0.25296680  0.11758049  1
  V  V44  1  0.12233421  0.75501447  0.87709217  1
  V  V45  1  0.38228282  0.87404737  0.00931409  1
  V  V46  1  0.12708312  0.24888483  0.87643474  1
  V  V47  1  0.50118594  0.37573211  0.37730634  1
  V  V48  1  -0.00566552  0.37614705  0.88271029  1
  V  V49  1  0.74871642  0.25498789  -0.00484836  1
  V  V50  1  0.61523876  0.61832975  0.49505371  1
  V  V51  1  0.25094049  0.12406495  0.87684563  1
  V  V52  1  0.62164138  0.12518222  -0.00461809  1
  V  V53  1  0.25016856  0.25027886  0.50174305  1
  V  V54  1  0.87638080  0.12379621  0.24791314  1
  V  V55  1  0.50956310  0.12124904  0.62543270  1
  V  V56  1  0.12596434  0.62553967  0.50069073  1
  V  V57  1  0.25565165  0.74741385  0.00846662  1
  V  V58  1  0.25112699  0.37558894  0.62734923  1
  V  V59  1  0.87187251  0.25563572  0.62630145  1
  V  V60  1  0.25838429  0.50473415  0.75207626  1
  V  V61  1  0.12458221  0.75185104  0.37301476  1
  V  V62  1  0.62485162  0.86677761  0.24089994  1
  V  V63  1  0.87130193  0.75519328  0.62137703  1
  V  V64  1  0.49984816  0.63846567  0.12727462  1
  V  V65  1  0.74434494  0.88123815  0.61739282  1
  V  V66  1  0.61613405  0.74784645  0.37064830  1
  V  V67  1  0.62472440  0.24833853  0.37413887  1
  V  V68  1  0.11759067  0.12140795  0.50050577  1
  V  V69  1  0.11711169  0.62384339  0.00351474  1
  V  V70  1  0.81265092  0.55806681  0.31258248  1
  V  V71  1  0.74922511  0.12342674  0.37240086  1
  V  V72  1  0.24472011  0.00077869  0.24646385  1
  V  V73  1  0.49998775  0.25136998  0.24315979  1
  V  V74  1  0.87835786  -0.00309129  0.38840726  1
  V  V75  1  0.25189548  0.74739398  0.50144323  1
  V  V76  1  0.37824757  0.63997946  0.24554448  1
  V  V77  1  0.87241214  0.37786420  0.49472454  1
  V  V78  1  0.74626821  0.12518647  0.87328569  1
  V  V79  1  0.50015958  0.11844004  0.12256819  1
  V  V80  1  -0.00664795  -0.01073320  -0.00672499  1
  V  V81  1  0.24650944  0.87643533  0.12610225  1
  V  V82  1  -0.00422402  0.75604618  0.75585418  1
  V  V83  1  0.25417231  0.24777406  0.00949355  1
  V  V84  1  0.38001498  0.37116394  -0.00252241  1
  Zn  Zn85  1  0.25154369  0.62454507  0.37263499  1
  Zn  Zn86  1  0.12454975  0.37907576  0.24901913  1
  Zn  Zn87  1  -0.00714217  0.49564523  0.00478958  1
  Zn  Zn88  1  0.50947238  -0.00612841  0.50692553  1
  Zn  Zn89  1  0.38298834  0.49927077  0.87220898  1
  Zn  Zn90  1  0.74721136  0.00056168  0.74468639  1
  Zn  Zn91  1  0.00247406  0.25159546  0.24648795  1
  Zn  Zn92  1  0.37711092  0.12567611  0.75199517  1
  Zn  Zn93  1  -0.00301389  0.38036720  0.36776340  1
  Zn  Zn94  1  0.62155431  0.48853134  0.61826915  1
  Zn  Zn95  1  0.87291867  0.62134877  0.74817673  1
  Zn  Zn96  1  0.86893026  0.49343027  0.87896476  1
  Zn  Zn97  1  -0.00363248  0.12010053  0.62247943  1
  Zn  Zn98  1  0.12084654  0.87687717  0.75528164  1
  Zn  Zn99  1  0.49804022  0.87200118  0.36737441  1
  Zn  Zn100  1  0.12400319  0.50175141  0.12821262  1
  Zn  Zn101  1  0.75489133  -0.00956091  0.24639679  1
  Zn  Zn102  1  0.87334784  -0.01588177  0.87152688  1
  Zn  Zn103  1  0.12073579  0.88031462  0.24828913  1
  Zn  Zn104  1  0.25049489  0.50231949  0.24827159  1
  Zn  Zn105  1  0.63185966  0.37889914  0.25290443  1
  Zn  Zn106  1  0.63003072  0.11576198  0.50241654  1
  Zn  Zn107  1  0.18608039  0.18665120  0.18765488  1
  Zn  Zn108  1  0.18828715  0.18488306  0.68751132  1
  Zn  Zn109  1  0.18766627  0.68780764  0.18922346  1
  Zn  Zn110  1  0.18737634  0.68752128  0.69103504  1
  Zn  Zn111  1  0.68789944  0.18959144  0.18606885  1
  Zn  Zn112  1  0.68719882  0.19255613  0.69009431  1
  Zn  Zn113  1  0.69543662  0.68625896  0.18831374  1
  Zn  Zn114  1  0.68539520  0.68694731  0.68418017  1
  Zn  Zn115  1  0.31262029  0.31132586  0.31155177  1
  Zn  Zn116  1  0.31488139  0.31360298  0.81656294  1
  Zn  Zn117  1  0.31130446  0.81392769  0.31383413  1
  Zn  Zn118  1  0.30904070  0.81256173  0.81752756  1
  Zn  Zn119  1  0.81463322  0.31274575  0.30991688  1
  Zn  Zn120  1  0.80966478  0.31074179  0.81192756  1
  Zn  Zn121  1  0.80897872  0.81183087  0.31113916  1
  Zn  Zn122  1  0.80503038  0.81011354  0.80502719  1
  Zn  Zn123  1  0.19031735  0.43954789  0.43717471  1
  Zn  Zn124  1  0.18608834  0.43818440  0.94074121  1
  Zn  Zn125  1  0.18933125  0.93618753  0.43791530  1
  Zn  Zn126  1  0.18893881  0.93603166  0.94115366  1
  Zn  Zn127  1  0.68919415  0.43854641  0.43632707  1
  Zn  Zn128  1  0.68624108  0.43754531  0.93670620  1
  Zn  Zn129  1  0.68518825  0.93432989  0.43356773  1
  Zn  Zn130  1  0.68226975  0.94437466  0.93216301  1
  Zn  Zn131  1  0.31572461  0.05924581  0.06456143  1
  Zn  Zn132  1  0.31250247  0.06218509  0.56372530  1
  Zn  Zn133  1  0.31536190  0.56118082  0.06414560  1
  Zn  Zn134  1  0.31644229  0.56368749  0.56363485  1
  Zn  Zn135  1  0.81357103  0.06338947  0.05857346  1
  Zn  Zn136  1  0.81101039  0.06709709  0.56298838  1
  Zn  Zn137  1  0.81588698  0.56257628  0.05809383  1
  Zn  Zn138  1  0.81016442  0.56623077  0.55518908  1
  Zn  Zn139  1  0.43763467  0.44035868  0.18350131  1
  Zn  Zn140  1  0.44282502  0.43504546  0.68964823  1
  Zn  Zn141  1  0.44088469  0.93908956  0.18807554  1
  Zn  Zn142  1  0.43608247  0.93641422  0.69115002  1
  Zn  Zn143  1  0.93765756  0.43723102  0.18824168  1
  Zn  Zn144  1  0.93515717  0.43684168  0.68828123  1
  Zn  Zn145  1  0.94192342  0.93992772  0.19150579  1
  Zn  Zn146  1  0.93325708  0.93460288  0.68550627  1
  Zn  Zn147  1  0.06042373  0.06380942  0.31527428  1
  Zn  Zn148  1  0.06180818  0.06114104  0.81407749  1
  Zn  Zn149  1  0.06234762  0.56551621  0.30738219  1
  Zn  Zn150  1  0.06560794  0.56500871  0.81460264  1
  Zn  Zn151  1  0.56509348  0.05694655  0.31062331  1
  Zn  Zn152  1  0.56093492  0.06271430  0.81161678  1
  Zn  Zn153  1  0.55971816  0.56287990  0.31228142  1
  Zn  Zn154  1  0.56858243  0.55732985  0.81422300  1
  Zn  Zn155  1  0.43958752  0.18907284  0.43910887  1
  Zn  Zn156  1  0.43521476  0.18496097  0.94200349  1
  Zn  Zn157  1  0.43910587  0.68519736  0.43884298  1
  Zn  Zn158  1  0.43939160  0.68777512  0.93967814  1
  Zn  Zn159  1  0.93657902  0.18814565  0.43747292  1
  Zn  Zn160  1  0.93740987  0.18566187  0.93619761  1
  Zn  Zn161  1  0.93397017  0.68423825  0.43467183  1
  Zn  Zn162  1  0.93767682  0.81307492  0.93761070  1
  Zn  Zn163  1  0.06785190  0.30731666  0.06423133  1
  Zn  Zn164  1  0.05957927  0.31272531  0.56177205  1
  Zn  Zn165  1  0.06815348  0.80858690  0.06937198  1
  Zn  Zn166  1  0.06223951  0.81181602  0.56496839  1
  Zn  Zn167  1  0.56620483  0.31092302  0.06227319  1
  Zn  Zn168  1  0.56532103  0.31017965  0.56555172  1
  Zn  Zn169  1  0.56576857  0.81547105  0.05717941  1
  Zn  Zn170  1  0.56136066  0.80586784  0.56142678  1
  O  O171  1  0.11637559  0.12760661  0.11605243  1
  O  O172  1  0.12569401  0.11637130  0.61742315  1
  O  O173  1  0.11734588  0.62893581  0.11836088  1
  O  O174  1  0.11749556  0.62192442  0.62009360  1
  O  O175  1  0.61985490  0.11868086  0.12046302  1
  O  O176  1  0.61254003  0.12826467  0.62613633  1
  O  O177  1  0.62196651  0.62077170  0.11836216  1
  O  O178  1  0.61062557  0.62659330  0.61716977  1
  O  O179  1  0.38021478  0.37940824  0.38159857  1
  O  O180  1  0.36996320  0.38013298  0.89191901  1
  O  O181  1  0.37644510  0.88177146  0.38329327  1
  O  O182  1  0.37988547  0.87863681  0.88241035  1
  O  O183  1  0.87968393  0.36417376  0.39047855  1
  O  O184  1  0.89164552  0.37027389  0.86970166  1
  O  O185  1  0.87880001  0.88947435  0.37091521  1
  O  O186  1  0.87221205  0.87112961  0.86887854  1
  O  O187  1  0.26113660  0.00416517  0.37067311  1
  O  O188  1  0.25587329  0.00253829  0.86906767  1
  O  O189  1  0.26509067  0.50222859  0.37525215  1
  O  O190  1  0.24835169  0.50794664  0.86873199  1
  O  O191  1  0.76249613  0.00684608  0.37260046  1
  O  O192  1  0.75394727  0.01299960  0.87235307  1
  O  O193  1  0.75525516  0.48893911  0.36250987  1
  O  O194  1  0.74638805  0.50771489  0.86573517  1
  O  O195  1  0.24742253  0.49057759  0.12448506  1
  O  O196  1  0.24700912  0.49622570  0.63218828  1
  O  O197  1  0.25429472  0.99233556  0.13583696  1
  O  O198  1  0.24469415  0.99540719  0.63429987  1
  O  O199  1  0.74268225  0.49024407  0.11613290  1
  O  O200  1  0.74713460  0.50707215  0.63618360  1
  O  O201  1  0.73927102  1.00697173  0.12616966  1
  O  O202  1  0.75491621  0.98522007  0.62098660  1
  O  O203  1  0.00494163  0.36927250  0.25158508  1
  O  O204  1  0.00719177  0.36838286  0.75591535  1
  O  O205  1  0.00243180  0.86639221  0.25891541  1
  O  O206  1  0.00272196  0.85967878  0.74164326  1
  O  O207  1  0.49660830  0.36636632  0.25816246  1
  O  O208  1  0.50510407  0.36208646  0.75387773  1
  O  O209  1  0.51654859  0.87954966  0.25035602  1
  O  O210  1  0.50383789  0.87469872  0.76088397  1
  O  O211  1  0.49439679  0.12974538  0.24532657  1
  O  O212  1  0.49873083  0.13494425  0.74178389  1
  O  O213  1  0.48848137  0.62254597  0.24132433  1
  O  O214  1  0.50547332  0.62276583  0.73957372  1
  O  O215  1  0.99485712  0.12495153  0.24063443  1
  O  O216  1  0.99291206  0.13113929  0.74988877  1
  O  O217  1  1.00396431  0.64174220  0.24147095  1
  O  O218  1  1.00048070  0.63229313  0.74037764  1
  O  O219  1  0.36559566  0.25620342  -0.00144159  1
  O  O220  1  0.36998594  0.25819113  0.50722532  1
  O  O221  1  0.36595499  0.75979503  -0.00456748  1
  O  O222  1  0.37018860  0.75506979  0.50547077  1
  O  O223  1  0.86501835  0.24099460  0.00813123  1
  O  O224  1  0.86910767  0.25345463  0.50751689  1
  O  O225  1  0.86756854  0.75691401  0.01294763  1
  O  O226  1  0.85899456  0.74375544  0.50415184  1
  O  O227  1  0.13132033  0.24331747  0.49637130  1
  O  O228  1  0.13362450  0.23714790  0.99439319  1
  O  O229  1  0.13101644  0.74509637  0.49543568  1
  O  O230  1  0.13346947  0.74416879  0.99540551  1
  O  O231  1  0.63265477  0.24502915  0.49380835  1
  O  O232  1  0.63482496  0.23625009  1.00547067  1
  O  O233  1  0.62924405  0.74075250  0.49099848  1
  O  O234  1  0.63201279  0.74330335  0.99179418  1
  O  O235  1  0.50655426  0.24060312  0.13819766  1
  O  O236  1  0.49352558  0.24112402  0.63310779  1
  O  O237  1  0.50519402  0.73753940  0.11740674  1
  O  O238  1  0.48746249  0.74038064  0.62561471  1
  O  O239  1  0.99272715  0.23767356  0.12052625  1
  O  O240  1  0.99310285  0.24602713  0.63181978  1
  O  O241  1  0.98860494  0.75048517  0.13178182  1
  O  O242  1  0.99177173  0.74292724  0.62838718  1
  O  O243  1  0.01264004  0.24881309  0.37559395  1
  O  O244  1  0.00600490  0.25732601  0.86983748  1
  O  O245  1  0.00202096  0.75501391  0.36961961  1
  O  O246  1  0.00798481  0.74803640  0.86775792  1
  O  O247  1  0.50450505  0.25370630  0.36554944  1
  O  O248  1  0.49525630  0.24261425  0.86146126  1
  O  O249  1  0.51193347  0.75105735  0.37755447  1
  O  O250  1  0.50884839  0.75662382  0.87822139  1
  O  O251  1  0.24355587  0.13128337  0.49623150  1
  O  O252  1  0.24495847  0.12809723  0.99903572  1
  O  O253  1  0.24527312  0.62992181  0.49807533  1
  O  O254  1  0.24381530  0.63127993  0.99808327  1
  O  O255  1  0.75245517  0.13548219  0.48787289  1
  O  O256  1  0.74366041  0.13163420  0.99213889  1
  O  O257  1  0.73278597  0.63937803  0.50870597  1
  O  O258  1  0.73949755  0.63083799  0.99388142  1
  O  O259  1  0.25457488  0.36554754  0.00523073  1
  O  O260  1  0.25829311  0.37023731  0.50808728  1
  O  O261  1  0.25728440  0.86801723  0.00807942  1
  O  O262  1  0.26088797  0.86922881  0.50695104  1
  O  O263  1  0.74312421  0.36131068  0.00611753  1
  O  O264  1  0.75580381  0.36330249  0.49809954  1
  O  O265  1  0.73936630  0.86561030  -0.00537834  1
  O  O266  1  0.74042063  0.85696645  0.50534186  1
  O  O267  1  0.13215209  0.49886877  0.24852936  1
  O  O268  1  0.13448263  0.49591602  0.74461688  1
  O  O269  1  0.14046544  1.00025137  0.26016599  1
  O  O270  1  0.13445164  0.99889356  0.74540882  1
  O  O271  1  0.61725709  0.49815367  0.23573864  1
  O  O272  1  0.63041963  0.48823976  0.74620196  1
  O  O273  1  0.63083494  0.99113230  0.24137790  1
  O  O274  1  0.62593361  0.98588795  0.75296001  1
  O  O275  1  0.36884575  0.00912528  0.25802989  1
  O  O276  1  0.36299425  0.00020264  0.75753325  1
  O  O277  1  0.37345014  0.50667393  0.25691132  1
  O  O278  1  0.36267681  0.49167157  0.75288287  1
  O  O279  1  0.87339525  0.01177348  0.25387237  1
  O  O280  1  0.87236957  0.00861952  0.74936976  1
  O  O281  1  0.87867816  0.50761401  0.25333032  1
  O  O282  1  0.86532336  0.50036480  0.75483153  1
  O  O283  1  0.12474399  0.36510791  0.37798963  1
  O  O284  1  0.12037690  0.36765305  0.86978789  1
  O  O285  1  0.11795718  0.86592303  0.37654977  1
  O  O286  1  0.13238381  0.85994146  0.87521613  1
  O  O287  1  0.61619688  0.36960238  0.37346097  1
  O  O288  1  0.62325263  0.37808654  0.85874392  1
  O  O289  1  0.62073984  0.86506263  0.36294287  1
  O  O290  1  0.61572764  0.86910351  0.86880356  1
  O  O291  1  0.38487437  0.11976997  0.13467928  1
  O  O292  1  0.37818974  0.13771044  0.62715631  1
  O  O293  1  0.38356132  0.62388626  0.13683581  1
  O  O294  1  0.38701811  0.63446968  0.62268828  1
  O  O295  1  0.88087473  0.13032441  0.13055424  1
  O  O296  1  0.87618603  0.13306178  0.63471736  1
  O  O297  1  0.88579191  0.63756580  0.11851681  1
  O  O298  1  0.88174717  0.63403662  0.62402777  1
  O  O299  1  0.24768800  0.25335437  0.11423399  1
  O  O300  1  0.25861443  0.25611676  0.62380548  1
  O  O301  1  0.24927322  0.75676044  0.11560895  1
  O  O302  1  0.26010985  0.75055407  0.62126108  1
  O  O303  1  0.75803295  0.25306816  0.11569785  1
  O  O304  1  0.75844838  0.24371710  0.61481434  1
  O  O305  1  0.76207865  0.74859022  0.11563327  1
  O  O306  1  0.75472183  0.75546051  0.61685211  1
  O  O307  1  0.24283452  0.24457071  0.38142071  1
  O  O308  1  0.24691580  0.24295314  0.88427497  1
  O  O309  1  0.24083795  0.75029758  0.38212096  1
  O  O310  1  0.24410315  0.74232222  0.88460632  1
  O  O311  1  0.74574495  0.24362339  0.37984384  1
  O  O312  1  0.75473593  0.23786608  0.88264370  1
  O  O313  1  0.74049326  0.75268229  0.38650603  1
  O  O314  1  0.74110369  0.74220205  0.88090067  1
  O  O315  1  0.00742253  0.11591197  0.00359985  1
  O  O316  1  0.01377847  0.12746035  0.50182070  1
  O  O317  1  0.01324384  0.62929815  0.00999548  1
  O  O318  1  0.00347825  0.62047107  0.51029004  1
  O  O319  1  0.50808798  0.13122092  0.01075958  1
  O  O320  1  0.49979789  0.12749805  0.51623611  1
  O  O321  1  0.51067251  0.62024095  0.00616312  1
  O  O322  1  0.51190465  0.62759198  0.50895101  1
  O  O323  1  0.49245458  0.36415906  0.48699167  1
  O  O324  1  0.49263425  0.38142091  1.00823983  1
  O  O325  1  0.48801978  0.87410238  0.50030305  1
  O  O326  1  0.49197780  0.87290322  0.98779608  1
  O  O327  1  0.99262501  0.38492523  0.49924785  1
  O  O328  1  1.00902176  0.37166779  0.98509007  1
  O  O329  1  0.99916322  0.86854117  0.48778157  1
  O  O330  1  1.00716044  0.88621847  1.00504886  1
  O  O331  1  0.48965978  0.48889252  0.37237838  1
  O  O332  1  0.50102084  0.50637817  0.89154871  1
  O  O333  1  0.48661041  1.00055855  0.37631938  1
  O  O334  1  0.48625029  0.99269718  0.86884840  1
  O  O335  1  1.00614818  0.50264942  0.38945576  1
  O  O336  1  1.00347945  0.48348896  0.87138318  1
  O  O337  1  0.98772861  0.99278498  0.37138824  1
  O  O338  1  0.99875208  0.99993561  0.88915731  1
  O  O339  1  -0.00335630  0.00999700  0.11419275  1
  O  O340  1  0.01468494  -0.00109220  0.63046894  1
  O  O341  1  0.00203901  0.51136655  0.12432126  1
  O  O342  1  0.00438770  0.50836989  0.62165277  1
  O  O343  1  0.51142851  0.01303888  0.12976008  1
  O  O344  1  0.48870192  0.01806606  0.62755959  1
  O  O345  1  0.50860200  0.50793586  0.11490308  1
  O  O346  1  0.49824268  0.51378610  0.62632904  1
  O  O347  1  0.25094233  0.37442657  0.23953939  1
  O  O348  1  0.24474088  0.37997120  0.74612725  1
  O  O349  1  0.25267767  0.88356168  0.24322662  1
  O  O350  1  0.24741508  0.88216659  0.74544077  1
  O  O351  1  0.74910439  0.36577486  0.23169881  1
  O  O352  1  0.73913048  0.37983233  0.75196717  1
  O  O353  1  0.73223452  0.87539530  0.25250539  1
  O  O354  1  0.73774414  0.87560354  0.73642628  1
  O  O355  1  0.25788074  0.12003186  0.25399272  1
  O  O356  1  0.25313677  0.11715671  0.75720287  1
  O  O357  1  0.26468253  0.62607793  0.25119426  1
  O  O358  1  0.24498319  0.61580353  0.76159345  1
  O  O359  1  0.75796545  0.12666290  0.26009617  1
  O  O360  1  0.75507345  0.12439698  0.75539187  1
  O  O361  1  0.75139832  0.61689318  0.25503367  1
  O  O362  1  0.74507543  0.61669717  0.75669911  1
  O  O363  1  0.37008362  0.11940522  0.37147332  1
  O  O364  1  0.36907011  0.11493101  0.87575390  1
  O  O365  1  0.37873604  0.61824959  0.36494281  1
  O  O366  1  0.36152569  0.62206297  0.88235004  1
  O  O367  1  0.87210176  0.11748051  0.36815038  1
  O  O368  1  0.86964569  0.12429915  0.86235400  1
  O  O369  1  0.86418836  0.61579988  0.38146336  1
  O  O370  1  0.85872626  0.62670240  0.87052931  1
  O  O371  1  0.13892914  0.37468011  0.12368485  1
  O  O372  1  0.13034893  0.38008763  0.63034477  1
  O  O373  1  0.14098185  0.87447021  0.12900362  1
  O  O374  1  0.13362035  0.88063066  0.62589632  1
  O  O375  1  0.63380650  0.38373851  0.12569108  1
  O  O376  1  0.61551892  0.37580177  0.64222956  1
  O  O377  1  0.62132620  0.88325192  0.13177475  1
  O  O378  1  0.62907051  0.86605887  0.63236655  1
  O  O379  1  0.12512881  0.24926350  0.26205880  1
  O  O380  1  0.12156515  0.25327844  0.75572680  1
  O  O381  1  0.11858662  0.75426027  0.25981073  1
  O  O382  1  0.11655270  0.74923718  0.75981827  1
  O  O383  1  0.61697794  0.25239382  0.25639752  1
  O  O384  1  0.61402161  0.25849664  0.75076394  1
  O  O385  1  0.62850667  0.75748245  0.25377760  1
  O  O386  1  0.62930208  0.75780935  0.76107140  1
  O  O387  1  0.38271680  0.23593406  0.25625010  1
  O  O388  1  0.38506365  0.25184474  0.74394505  1
  O  O389  1  0.37690478  0.73882348  0.25551757  1
  O  O390  1  0.36943293  0.75145610  0.73810956  1
  O  O391  1  0.87796426  0.23740814  0.24192875  1
  O  O392  1  0.87891489  0.24477137  0.74290662  1
  O  O393  1  0.87899583  0.75481432  0.23808553  1
  O  O394  1  0.88019951  0.74359995  0.73938421  1
  O  O395  1  0.37361415  0.48765068  0.49501766  1
  O  O396  1  0.38532215  0.49277816  1.00016321  1
  O  O397  1  0.37580236  0.99107962  0.49492842  1
  O  O398  1  0.36892534  0.98861955  0.99014981  1
  O  O399  1  0.88287648  0.48936305  0.50975135  1
  O  O400  1  0.88038237  0.50099413  0.99145734  1
  O  O401  1  0.87682011  1.00739057  0.48692399  1
  O  O402  1  0.88997524  1.00220017  0.99635829  1
  O  O403  1  0.11739408  0.00932871  -0.00402065  1
  O  O404  1  0.13408361  0.00854970  0.50955806  1
  O  O405  1  0.11995582  0.51093145  0.00224930  1
  O  O406  1  0.11875434  0.50511327  0.50745061  1
  O  O407  1  0.62672477  0.01344260  0.00776865  1
  O  O408  1  0.62137240  0.00302870  0.49353841  1
  O  O409  1  0.62120831  0.50774455  0.00742465  1
  O  O410  1  0.63132739  0.51419414  0.50218615  1
  O  O411  1  0.36353901  0.37838054  0.11409921  1
  O  O412  1  0.37544868  0.36623509  0.61868440  1
  O  O413  1  0.37029262  0.88135105  0.11499418  1
  O  O414  1  0.37272655  0.86327392  0.62106941  1
  O  O415  1  0.87075143  0.36156232  0.12564205  1
  O  O416  1  0.87990218  0.36165066  0.61643104  1
  O  O417  1  0.87457943  0.86865397  0.12817905  1
  O  O418  1  0.86487098  0.86196601  0.62542657  1
  O  O419  1  0.13114445  0.13013243  0.38298793  1
  O  O420  1  0.13129419  0.12863300  0.88246581  1
  O  O421  1  0.12458267  0.63761586  0.38147122  1
  O  O422  1  0.13262125  0.63374088  0.88467539  1
  O  O423  1  0.63492357  0.12932596  0.37242716  1
  O  O424  1  0.63172304  0.12023613  0.88267288  1
  O  O425  1  0.61791926  0.62898215  0.38666592  1
  O  O426  1  0.62952512  0.63196076  0.88196260  1
