# generated using pymatgen
data_V85Zn86O256
_symmetry_space_group_name_H-M   'P 1'
_cell_length_a   16.96022150
_cell_length_b   16.98093246
_cell_length_c   16.96645236
_cell_angle_alpha   90.06863504
_cell_angle_beta   89.97242876
_cell_angle_gamma   90.05321791
_symmetry_Int_Tables_number   1
_chemical_formula_structural   V85Zn86O256
_chemical_formula_sum   'V85 Zn86 O256'
_cell_volume   4886.33847764
_cell_formula_units_Z   1
loop_
 _symmetry_equiv_pos_site_id
 _symmetry_equiv_pos_as_xyz
  1  'x, y, z'
loop_
 _atom_site_type_symbol
 _atom_site_label
 _atom_site_symmetry_multiplicity
 _atom_site_fract_x
 _atom_site_fract_y
 _atom_site_fract_z
 _atom_site_occupancy
  V  V0  1  0.12565176  0.87598396  0.25079462  1
  V  V1  1  0.50206992  0.38455565  0.87407057  1
  V  V2  1  0.12501896  0.00079449  0.12357770  1
  V  V3  1  0.49908669  0.00067808  0.49992895  1
  V  V4  1  0.61724998  0.24684226  0.36980186  1
  V  V5  1  -0.01043199  0.11634535  0.62834118  1
  V  V6  1  0.87826967  0.12801515  0.25191942  1
  V  V7  1  0.74392242  0.50279394  0.25718406  1
  V  V8  1  0.38633694  0.75431475  0.63577503  1
  V  V9  1  0.37651774  0.00008393  0.37316487  1
  V  V10  1  0.11927618  0.37317200  0.24859531  1
  V  V11  1  0.37237233  0.87456700  -0.00325852  1
  V  V12  1  0.74957131  0.12299439  0.37484286  1
  V  V13  1  0.25306961  0.00074864  0.24904381  1
  V  V14  1  0.81808250  0.30389398  0.67267890  1
  V  V15  1  0.75321792  -0.00674190  0.24596337  1
  V  V16  1  0.88179846  0.25055270  0.12920412  1
  V  V17  1  0.75407493  0.12629575  0.87036977  1
  V  V18  1  0.00419806  0.24900748  0.74281478  1
  V  V19  1  0.74910628  0.00190744  0.74843082  1
  V  V20  1  0.49830390  0.25160483  0.74502977  1
  V  V21  1  0.25313327  -0.01249274  0.74980400  1
  V  V22  1  0.25866711  0.62911132  0.87813382  1
  V  V23  1  0.25379916  0.37142061  0.62708832  1
  V  V24  1  0.86388739  0.75910286  0.12721424  1
  V  V25  1  0.12604363  0.87632163  0.74297219  1
  V  V26  1  0.00335640  0.74620487  0.75555830  1
  V  V27  1  0.11867235  0.24849879  0.37130494  1
  V  V28  1  0.75054129  0.37329708  0.12854331  1
  V  V29  1  0.87929381  -0.00121470  0.38764435  1
  V  V30  1  -0.00253646  0.62451269  0.62695942  1
  V  V31  1  0.24633432  0.87255796  0.11745127  1
  V  V32  1  0.25456591  0.75659832  0.50994024  1
  V  V33  1  0.87791669  0.00485285  0.87300736  1
  V  V34  1  0.87756231  0.75457595  0.61397231  1
  V  V35  1  0.49831493  0.13776356  0.12856358  1
  V  V36  1  0.36723620  0.74775313  0.11797056  1
  V  V37  1  0.25872501  0.24784399  0.00009594  1
  V  V38  1  0.12850831  0.12501800  -0.00515043  1
  V  V39  1  0.00166304  0.50595092  -0.00148975  1
  V  V40  1  0.49873447  0.75010634  0.24986269  1
  V  V41  1  0.12751304  0.62413764  0.50072593  1
  V  V42  1  0.62155190  0.86033857  0.75010965  1
  V  V43  1  0.82693007  0.66916843  0.78887317  1
  V  V44  1  0.12599090  0.63601228  -0.00173305  1
  V  V45  1  0.62418247  0.25221299  0.87511307  1
  V  V46  1  0.00125126  0.62723486  0.12706492  1
  V  V47  1  0.49288782  0.60760381  0.62449986  1
  V  V48  1  0.12758819  0.75067360  0.37675407  1
  V  V49  1  0.25390564  0.24792133  0.50347646  1
  V  V50  1  0.62194307  0.12561586  0.50067531  1
  V  V51  1  0.52382776  0.64647947  0.08396931  1
  V  V52  1  0.61624034  0.50009841  0.11541397  1
  V  V53  1  0.61670811  0.37061691  0.24850483  1
  V  V54  1  0.49152192  0.12664638  0.62573821  1
  V  V55  1  0.64841676  0.49069723  0.61871995  1
  V  V56  1  0.62468389  0.12692928  0.00030213  1
  V  V57  1  0.87158722  0.62653264  0.25786136  1
  V  V58  1  0.50377955  0.87298248  0.37571006  1
  V  V59  1  0.12947544  0.50138865  0.62726227  1
  V  V60  1  0.88122876  0.37734357  0.00620085  1
  V  V61  1  0.37895920  0.37620913  0.50280146  1
  V  V62  1  0.26020002  0.50385463  0.75366887  1
  V  V63  1  0.75327982  0.25554667  0.49734706  1
  V  V64  1  0.49674029  0.37334686  0.37264491  1
  V  V65  1  0.00120481  0.75181534  0.25434743  1
  V  V66  1  0.87660295  0.49761662  0.37712565  1
  V  V67  1  0.62861794  -0.00513805  0.12472195  1
  V  V68  1  0.25608978  0.37269423  0.12638587  1
  V  V69  1  0.12938788  0.25136629  0.87576824  1
  V  V70  1  0.25287011  0.62560786  0.37591294  1
  V  V71  1  0.37871774  0.13936230  0.24733631  1
  V  V72  1  0.37957512  0.38177206  0.00079171  1
  V  V73  1  0.86762060  0.49883352  0.86215709  1
  V  V74  1  0.49534918  0.00267624  0.00047509  1
  V  V75  1  0.00335939  0.12702365  0.12870928  1
  V  V76  1  0.37892430  0.50092801  0.37878512  1
  V  V77  1  0.74421916  0.74262950  0.49428068  1
  V  V78  1  0.75274222  0.87735134  0.61634912  1
  V  V79  1  0.12154275  0.11934137  0.50433374  1
  V  V80  1  0.00017333  0.88018423  0.39009652  1
  V  V81  1  -0.00157282  0.87651071  0.87665113  1
  V  V82  1  0.25005424  0.12478880  0.37499739  1
  V  V83  1  0.36556508  0.13218462  0.75574462  1
  V  V84  1  0.37698197  0.62380006  0.24558420  1
  Zn  Zn85  1  0.12811732  0.50036808  0.12582431  1
  Zn  Zn86  1  0.63108215  0.86946793  0.24493509  1
  Zn  Zn87  1  0.63551454  0.37537825  0.74336524  1
  Zn  Zn88  1  0.61568076  0.60814168  0.48975197  1
  Zn  Zn89  1  0.13485276  0.75586708  0.87664988  1
  Zn  Zn90  1  0.00366800  0.37666237  0.87246737  1
  Zn  Zn91  1  -0.00217499  -0.00101531  0.00097402  1
  Zn  Zn92  1  0.62102687  -0.00085970  0.62805842  1
  Zn  Zn93  1  -0.00062535  0.37064173  0.37490405  1
  Zn  Zn94  1  0.38559383  0.50735631  0.87542761  1
  Zn  Zn95  1  0.75351993  0.24856596  0.00257387  1
  Zn  Zn96  1  0.12696997  -0.00206304  0.62184113  1
  Zn  Zn97  1  0.25024237  0.49859014  0.24883403  1
  Zn  Zn98  1  0.66815378  0.64131949  -0.03673954  1
  Zn  Zn99  1  0.00370001  0.49459187  0.49784185  1
  Zn  Zn100  1  0.12839918  0.37601581  0.75302177  1
  Zn  Zn101  1  0.36723705  0.00700692  0.87891827  1
  Zn  Zn102  1  0.50896980  0.87475655  0.87020825  1
  Zn  Zn103  1  0.87950295  0.36768375  0.49872941  1
  Zn  Zn104  1  0.62981044  0.73864333  0.36916470  1
  Zn  Zn105  1  0.85238739  0.88180103  0.01430123  1
  Zn  Zn106  1  0.37274278  0.87829119  0.50495078  1
  Zn  Zn107  1  0.19125167  0.19094293  0.18634177  1
  Zn  Zn108  1  0.18534299  0.18717209  0.68501434  1
  Zn  Zn109  1  0.18781904  0.68678631  0.18903143  1
  Zn  Zn110  1  0.19127182  0.68722645  0.69238150  1
  Zn  Zn111  1  0.68974801  0.18459590  0.18738949  1
  Zn  Zn112  1  0.67900781  0.18167086  0.69017463  1
  Zn  Zn113  1  0.68844995  0.68397337  0.18844313  1
  Zn  Zn114  1  0.67756059  0.68352338  0.67219218  1
  Zn  Zn115  1  0.30621019  0.31352214  0.31486640  1
  Zn  Zn116  1  0.31326568  0.31366340  0.81521316  1
  Zn  Zn117  1  0.31407773  0.81328628  0.31269441  1
  Zn  Zn118  1  0.35539905  0.77647471  0.84247566  1
  Zn  Zn119  1  0.80880010  0.31249575  0.31400221  1
  Zn  Zn120  1  0.81903228  0.31173129  0.83206517  1
  Zn  Zn121  1  0.81701247  0.81642992  0.31635644  1
  Zn  Zn122  1  0.77820585  0.84221029  0.85337812  1
  Zn  Zn123  1  0.19086755  0.43658470  0.43707601  1
  Zn  Zn124  1  0.18826742  0.43844797  0.94002524  1
  Zn  Zn125  1  0.18795041  0.93756039  0.43749303  1
  Zn  Zn126  1  0.18820283  0.94184033  0.92957581  1
  Zn  Zn127  1  0.68681591  0.43556337  0.43590732  1
  Zn  Zn128  1  0.69211757  0.43539480  0.93790444  1
  Zn  Zn129  1  0.68595468  0.93710462  0.43573875  1
  Zn  Zn130  1  0.68224089  0.94154005  0.93853860  1
  Zn  Zn131  1  0.31258831  0.06571367  0.06644472  1
  Zn  Zn132  1  0.31227225  0.06126969  0.56706115  1
  Zn  Zn133  1  0.31299427  0.56087158  0.05953366  1
  Zn  Zn134  1  0.31665969  0.56455159  0.56323428  1
  Zn  Zn135  1  0.81294547  0.06392056  0.05938586  1
  Zn  Zn136  1  0.80976316  0.06765971  0.56399214  1
  Zn  Zn137  1  0.81490719  0.55680992  0.07446728  1
  Zn  Zn138  1  0.81574457  0.56564794  0.56032335  1
  Zn  Zn139  1  0.43811717  0.43979965  0.18397607  1
  Zn  Zn140  1  0.43786303  0.43498170  0.68869771  1
  Zn  Zn141  1  0.43762100  0.93927136  0.18510298  1
  Zn  Zn142  1  0.43449555  0.93626715  0.68678861  1
  Zn  Zn143  1  0.94077055  0.44092829  0.19231934  1
  Zn  Zn144  1  0.94744947  0.43731477  0.68648599  1
  Zn  Zn145  1  0.94083495  0.93977602  0.19388083  1
  Zn  Zn146  1  0.93409073  0.93816046  0.69120878  1
  Zn  Zn147  1  0.06210107  0.06246169  0.31288213  1
  Zn  Zn148  1  0.06550134  0.06389133  0.80926262  1
  Zn  Zn149  1  0.06356764  0.55975700  0.31237191  1
  Zn  Zn150  1  0.06468448  0.56397842  0.81475332  1
  Zn  Zn151  1  0.56192333  0.06123354  0.30837537  1
  Zn  Zn152  1  0.56059591  0.06110720  0.81355171  1
  Zn  Zn153  1  0.55965787  0.56227703  0.31217408  1
  Zn  Zn154  1  0.57546367  0.56177630  0.79455109  1
  Zn  Zn155  1  0.43527177  0.18899099  0.43617632  1
  Zn  Zn156  1  0.43943841  0.19083319  0.93493721  1
  Zn  Zn157  1  0.44086623  0.68639436  0.44152369  1
  Zn  Zn158  1  0.51134433  0.68309355  0.91019869  1
  Zn  Zn159  1  0.93973860  0.18384843  0.44202095  1
  Zn  Zn160  1  0.94298915  0.18815342  0.93828490  1
  Zn  Zn161  1  0.93949366  0.68671871  0.43935641  1
  Zn  Zn162  1  0.84534609  0.68484546  0.95264220  1
  Zn  Zn163  1  0.06519266  0.31193896  0.06459092  1
  Zn  Zn164  1  0.06488170  0.31115086  0.56035693  1
  Zn  Zn165  1  0.05533040  0.81177240  0.06223121  1
  Zn  Zn166  1  0.06603031  0.81043176  0.56495608  1
  Zn  Zn167  1  0.56120792  0.31497204  0.05915222  1
  Zn  Zn168  1  0.56389252  0.31466959  0.56113253  1
  Zn  Zn169  1  0.56101528  0.81701141  0.05974563  1
  Zn  Zn170  1  0.56301966  0.81342556  0.56466659  1
  O  O171  1  0.11905693  0.12327650  0.12030367  1
  O  O172  1  0.11834880  0.12277936  0.61714864  1
  O  O173  1  0.11933083  0.62392523  0.12040237  1
  O  O174  1  0.12083304  0.61965397  0.62078981  1
  O  O175  1  0.61946768  0.11719934  0.11989004  1
  O  O176  1  0.61104331  0.12216620  0.61884449  1
  O  O177  1  0.62224422  0.60890788  0.13059957  1
  O  O178  1  0.61926333  0.60435669  0.61428947  1
  O  O179  1  0.37597968  0.38147445  0.37988317  1
  O  O180  1  0.38526717  0.37666370  0.88124460  1
  O  O181  1  0.38592122  0.88315342  0.37531052  1
  O  O182  1  0.35565690  0.88548328  0.89495780  1
  O  O183  1  0.87851765  0.38306949  0.37186170  1
  O  O184  1  0.88316601  0.38487637  0.88871445  1
  O  O185  1  0.88845007  0.88703100  0.37090571  1
  O  O186  1  0.88573298  0.89164880  0.86873388  1
  O  O187  1  0.25632747  0.00554978  0.36925339  1
  O  O188  1  0.24853658  0.00783294  0.85592506  1
  O  O189  1  0.26089674  0.50711546  0.37247755  1
  O  O190  1  0.24727917  0.50543477  0.86652160  1
  O  O191  1  0.75632643  0.00540785  0.36806862  1
  O  O192  1  0.75588699  0.00961355  0.86878573  1
  O  O193  1  0.75702643  0.49237735  0.36275272  1
  O  O194  1  0.76827978  0.49615366  0.87728724  1
  O  O195  1  0.24873767  0.48663592  0.12492261  1
  O  O196  1  0.24620179  0.49748182  0.63270372  1
  O  O197  1  0.24404573  0.99400983  0.13156021  1
  O  O198  1  0.24675148  1.00701907  0.64326965  1
  O  O199  1  0.74360509  0.49122033  0.13942169  1
  O  O200  1  0.74759338  0.49503586  0.61732900  1
  O  O201  1  0.74145352  1.00817141  0.13285157  1
  O  O202  1  0.75012179  0.99495393  0.63160268  1
  O  O203  1  0.01504493  0.37568729  0.25104913  1
  O  O204  1  0.00813935  0.36445618  0.75054303  1
  O  O205  1  0.00932176  0.86952182  0.25734668  1
  O  O206  1  0.00699458  0.87068843  0.75664337  1
  O  O207  1  0.51041211  0.37732399  0.25268527  1
  O  O208  1  0.49869369  0.36359631  0.75575981  1
  O  O209  1  0.49817819  0.86363906  0.25342036  1
  O  O210  1  0.51881502  0.88566878  0.74718651  1
  O  O211  1  0.49070733  0.12074023  0.24064380  1
  O  O212  1  0.49267655  0.13023502  0.74382479  1
  O  O213  1  0.48711515  0.63605441  0.25014483  1
  O  O214  1  0.50710220  0.62457122  0.72350585  1
  O  O215  1  0.99333063  0.12143553  0.23780345  1
  O  O216  1  1.00478012  0.13241596  0.73736746  1
  O  O217  1  0.99591270  0.63103783  0.24591341  1
  O  O218  1  1.00987059  0.63483085  0.74007225  1
  O  O219  1  0.36264230  0.25638250  -0.00846522  1
  O  O220  1  0.36068251  0.25665999  0.49330477  1
  O  O221  1  0.36937496  0.76115078  0.01691036  1
  O  O222  1  0.36352978  0.75237352  0.50327751  1
  O  O223  1  0.87813200  0.25952811  0.00847017  1
  O  O224  1  0.86169724  0.24810819  0.49246248  1
  O  O225  1  0.88745372  0.76005293  0.02418396  1
  O  O226  1  0.86785997  0.74871286  0.50838072  1
  O  O227  1  0.13575829  0.24032804  0.49331974  1
  O  O228  1  0.13163943  0.24450872  0.99439093  1
  O  O229  1  0.13699929  0.74503162  0.49695283  1
  O  O230  1  0.12067309  0.73900452  0.99939150  1
  O  O231  1  0.62950356  0.24344721  0.49127210  1
  O  O232  1  0.62769481  0.24725985  0.98927200  1
  O  O233  1  0.63934112  0.75306706  0.49992902  1
  O  O234  1  0.58996110  0.71509666  1.02170522  1
  O  O235  1  0.50805025  0.23660540  0.12286819  1
  O  O236  1  0.50562621  0.24324408  0.63740110  1
  O  O237  1  0.48775048  0.74528421  0.13222173  1
  O  O238  1  0.48887822  0.74966800  0.62485553  1
  O  O239  1  0.98972948  0.24340407  0.12455724  1
  O  O240  1  1.00975638  0.24164946  0.63707424  1
  O  O241  1  0.99754539  0.74139357  0.13625940  1
  O  O242  1  0.99456940  0.74595218  0.63089858  1
  O  O243  1  0.01531365  0.24670079  0.37811498  1
  O  O244  1  0.00928072  0.24942260  0.86468247  1
  O  O245  1  0.00663802  0.75736690  0.37239767  1
  O  O246  1  -0.00186749  0.75927978  0.85891842  1
  O  O247  1  0.51098484  0.25364821  0.37584994  1
  O  O248  1  0.50908147  0.25567420  0.86600417  1
  O  O249  1  0.49813084  0.75852357  0.36687472  1
  O  O250  1  0.46196180  0.77303565  0.87768944  1
  O  O251  1  0.24705420  0.13187527  0.49689582  1
  O  O252  1  0.24094718  0.13552404  1.00876397  1
  O  O253  1  0.24689114  0.63385220  0.49398620  1
  O  O254  1  0.23849094  0.61487401  0.98751572  1
  O  O255  1  0.74068979  0.13111169  0.49346418  1
  O  O256  1  0.74241201  0.12617851  0.98919353  1
  O  O257  1  0.74869542  0.64140917  0.50264338  1
  O  O258  1  0.76536308  0.62920775  1.00730346  1
  O  O259  1  0.25654071  0.36751777  0.00618921  1
  O  O260  1  0.25761864  0.36729282  0.50561217  1
  O  O261  1  0.25061109  0.88383452  0.01309958  1
  O  O262  1  0.25050314  0.86000018  0.49561664  1
  O  O263  1  0.76542719  0.37441889  0.00952902  1
  O  O264  1  0.75168866  0.35827356  0.49424999  1
  O  O265  1  0.75283860  0.86113743  -0.03438932  1
  O  O266  1  0.74617808  0.87242215  0.51272119  1
  O  O267  1  0.13016739  0.48985885  0.24849814  1
  O  O268  1  0.13069256  0.49848085  0.73847560  1
  O  O269  1  0.13242003  0.99638043  0.24383980  1
  O  O270  1  0.13514799  0.99408552  0.74877623  1
  O  O271  1  0.62964828  0.49108038  0.24423936  1
  O  O272  1  0.62926201  0.49012642  0.72690730  1
  O  O273  1  0.63433597  0.99967671  0.24089149  1
  O  O274  1  0.63769585  1.00345610  0.74872786  1
  O  O275  1  0.36975011  0.00491898  0.25542385  1
  O  O276  1  0.36538048  0.00796278  0.75176745  1
  O  O277  1  0.37355709  0.50947145  0.25443085  1
  O  O278  1  0.36306534  0.49723390  0.75355770  1
  O  O279  1  0.86939101  0.01164003  0.25331508  1
  O  O280  1  0.86001179  0.00036164  0.75840887  1
  O  O281  1  0.86866937  0.50719970  0.25817156  1
  O  O282  1  0.87996965  0.48968489  0.76402337  1
  O  O283  1  0.12854733  0.36581151  0.36767709  1
  O  O284  1  0.12197254  0.36576171  0.87669696  1
  O  O285  1  0.12093029  0.87075808  0.36960311  1
  O  O286  1  0.11837185  0.87367531  0.86438351  1
  O  O287  1  0.61775073  0.36692492  0.36703994  1
  O  O288  1  0.62288179  0.36793128  0.87158156  1
  O  O289  1  0.61218805  0.87435059  0.36865112  1
  O  O290  1  0.62659881  0.87541998  0.85656863  1
  O  O291  1  0.38516158  0.12328135  0.13550668  1
  O  O292  1  0.38559800  0.12447266  0.63651405  1
  O  O293  1  0.36868034  0.63326253  0.13235496  1
  O  O294  1  0.38606041  0.63567437  0.61833120  1
  O  O295  1  0.88232372  0.13155559  0.12974603  1
  O  O296  1  0.89073950  0.12456137  0.62194270  1
  O  O297  1  0.88404773  0.63411261  0.13932508  1
  O  O298  1  0.89160768  0.63134975  0.61777996  1
  O  O299  1  0.24690068  0.26259696  0.11407256  1
  O  O300  1  0.24449007  0.26009674  0.61635833  1
  O  O301  1  0.25486444  0.76250126  0.13374660  1
  O  O302  1  0.25613184  0.74166833  0.61194191  1
  O  O303  1  0.76270592  0.25395614  0.12394610  1
  O  O304  1  0.75365148  0.24146620  0.61829806  1
  O  O305  1  0.76523222  0.75127663  0.13395992  1
  O  O306  1  0.75747408  0.75729256  0.61384699  1
  O  O307  1  0.24127529  0.24225532  0.38286761  1
  O  O308  1  0.23751256  0.25363245  0.88324419  1
  O  O309  1  0.24733633  0.74450141  0.38264738  1
  O  O310  1  0.25171773  0.73340747  0.87323967  1
  O  O311  1  0.73886145  0.24222147  0.37970549  1
  O  O312  1  0.74368355  0.24288009  0.88006437  1
  O  O313  1  0.75022374  0.76142510  0.39115745  1
  O  O314  1  0.77627708  0.72673077  0.85712165  1
  O  O315  1  0.00863937  0.12434346  0.01298304  1
  O  O316  1  0.01004657  0.13079974  0.51571118  1
  O  O317  1  0.00801367  0.61873742  0.01199495  1
  O  O318  1  0.01195896  0.62407659  0.50731593  1
  O  O319  1  0.50366462  0.12097582  0.00560421  1
  O  O320  1  0.50086020  0.12292420  0.50720653  1
  O  O321  1  0.47383434  0.61335312  0.00545987  1
  O  O322  1  0.50480034  0.63427293  0.51675232  1
  O  O323  1  0.48366342  0.36391268  0.49278539  1
  O  O324  1  0.49119017  0.36908820  0.98841864  1
  O  O325  1  0.49977595  0.88148393  0.49104787  1
  O  O326  1  0.48831631  0.88676815  1.00303878  1
  O  O327  1  0.99851854  0.37622081  0.49566107  1
  O  O328  1  0.99282902  0.38352406  1.00545743  1
  O  O329  1  1.00835310  0.87319702  0.48920144  1
  O  O330  1  1.00403428  0.87768784  0.98352591  1
  O  O331  1  0.48582967  0.49044275  0.36938819  1
  O  O332  1  0.50348478  0.48618086  0.86269820  1
  O  O333  1  0.49538666  0.99443503  0.37889908  1
  O  O334  1  0.49672576  0.99713286  0.88889316  1
  O  O335  1  0.99120113  0.49680683  0.37598451  1
  O  O336  1  0.99318673  0.49966721  0.88418048  1
  O  O337  1  0.99218548  0.99274261  0.37167939  1
  O  O338  1  0.99338339  0.99703976  0.87335304  1
  O  O339  1  0.00739890  0.00767279  0.12410869  1
  O  O340  1  0.00268625  0.01259523  0.63229123  1
  O  O341  1  -0.00037237  0.51397968  0.12216295  1
  O  O342  1  0.01026446  0.50838447  0.62202373  1
  O  O343  1  0.50666453  0.00792916  0.11594005  1
  O  O344  1  0.49804744  0.00843403  0.61663052  1
  O  O345  1  0.51404607  0.50806612  0.12545088  1
  O  O346  1  0.49177737  0.50569279  0.61881716  1
  O  O347  1  0.24357851  0.37516412  0.24131036  1
  O  O348  1  0.24930381  0.38074451  0.74242559  1
  O  O349  1  0.24498327  0.88201892  0.24369191  1
  O  O350  1  0.24371244  0.88675050  0.75197963  1
  O  O351  1  0.73814771  0.37955796  0.24598320  1
  O  O352  1  0.75911482  0.35455672  0.73883803  1
  O  O353  1  0.75053672  0.88973135  0.25482834  1
  O  O354  1  0.73936258  0.88408304  0.74570205  1
  O  O355  1  0.25756888  0.11929950  0.25305821  1
  O  O356  1  0.26453581  0.12828959  0.74617650  1
  O  O357  1  0.26126224  0.62590387  0.25797537  1
  O  O358  1  0.24176083  0.61510778  0.76615002  1
  O  O359  1  0.75776234  0.11632259  0.25640277  1
  O  O360  1  0.74677144  0.12160564  0.76312064  1
  O  O361  1  0.75977662  0.61492857  0.24787103  1
  O  O362  1  0.75904213  0.62386649  0.73328228  1
  O  O363  1  0.37038018  0.11783034  0.36820670  1
  O  O364  1  0.38135456  0.12398205  0.85938124  1
  O  O365  1  0.37346239  0.61847721  0.37004550  1
  O  O366  1  0.35892824  0.62153641  0.87971897  1
  O  O367  1  0.87369919  0.11978682  0.36661262  1
  O  O368  1  0.86815586  0.11651864  0.88219445  1
  O  O369  1  0.88139610  0.61920150  0.36392552  1
  O  O370  1  0.88068202  0.61307838  0.86269669  1
  O  O371  1  0.13273359  0.37544392  0.13288780  1
  O  O372  1  0.13823123  0.38456474  0.62311839  1
  O  O373  1  0.12891363  0.87880750  0.12916539  1
  O  O374  1  0.12095463  0.87842228  0.63794641  1
  O  O375  1  0.62669113  0.38234428  0.13027141  1
  O  O376  1  0.62521356  0.38467731  0.62415727  1
  O  O377  1  0.62147468  0.89027373  0.12475543  1
  O  O378  1  0.63418895  0.87956480  0.63321181  1
  O  O379  1  0.13274051  0.25812797  0.26005892  1
  O  O380  1  0.12115098  0.24981002  0.75952780  1
  O  O381  1  0.12142425  0.75486448  0.25891280  1
  O  O382  1  0.11972149  0.75881956  0.75052674  1
  O  O383  1  0.63174126  0.25786605  0.25782583  1
  O  O384  1  0.61794368  0.25252382  0.75975351  1
  O  O385  1  0.61474680  0.75152460  0.24778027  1
  O  O386  1  0.62846165  0.76216039  0.74082034  1
  O  O387  1  0.37118998  0.23794750  0.25767855  1
  O  O388  1  0.38238310  0.23976849  0.75411573  1
  O  O389  1  0.37978398  0.74478276  0.24294426  1
  O  O390  1  0.36417016  0.74873380  0.73130079  1
  O  O391  1  0.86926224  0.23631294  0.24491256  1
  O  O392  1  0.88070531  0.25782343  0.74193397  1
  O  O393  1  0.88065122  0.74489124  0.24725643  1
  O  O394  1  0.88374890  0.73954650  0.73510831  1
  O  O395  1  0.36758764  0.48875188  0.49011436  1
  O  O396  1  0.36961402  0.48440998  0.99379843  1
  O  O397  1  0.38002180  1.00003133  0.49253369  1
  O  O398  1  0.38061730  0.99697096  1.00248209  1
  O  O399  1  0.87454495  0.49980814  0.48487564  1
  O  O400  1  0.88647417  0.49459519  1.00030562  1
  O  O401  1  0.86971388  1.00764327  0.48599172  1
  O  O402  1  0.87766259  0.99586722  0.99261760  1
  O  O403  1  0.12522257  0.00949908  0.00557164  1
  O  O404  1  0.13310397  0.01516360  0.50036043  1
  O  O405  1  0.11255388  0.50530225  0.00252549  1
  O  O406  1  0.13025733  0.50607071  0.51094896  1
  O  O407  1  0.61693636  0.00698126  0.00590158  1
  O  O408  1  0.61666137  0.00890426  0.49930034  1
  O  O409  1  0.63373672  0.49698999  0.01591170  1
  O  O410  1  0.62695827  0.49255500  0.51117361  1
  O  O411  1  0.36962713  0.37662590  0.11634061  1
  O  O412  1  0.36255934  0.37912836  0.61682697  1
  O  O413  1  0.36463172  0.87217501  0.11975715  1
  O  O414  1  0.37720191  0.86121376  0.62101851  1
  O  O415  1  0.87462812  0.36851640  0.12580786  1
  O  O416  1  0.87420490  0.37231517  0.62081929  1
  O  O417  1  0.87929178  0.86437665  0.13087128  1
  O  O418  1  0.86617141  0.86539383  0.63136355  1
  O  O419  1  0.13101074  0.12971073  0.37995774  1
  O  O420  1  0.11888781  0.13193356  0.88943457  1
  O  O421  1  0.13167266  0.63015778  0.38020222  1
  O  O422  1  0.12996518  0.62965357  0.88472147  1
  O  O423  1  0.62684047  0.13089558  0.37780658  1
  O  O424  1  0.62980591  0.13350922  0.88005806  1
  O  O425  1  0.62096881  0.62585383  0.37805666  1
  O  O426  1  0.60371600  0.63021169  0.87655249  1
