# generated using pymatgen
data_V85Zn86O256
_symmetry_space_group_name_H-M   'P 1'
_cell_length_a   16.92875750
_cell_length_b   16.91676622
_cell_length_c   16.92122337
_cell_angle_alpha   90.08517855
_cell_angle_beta   89.97034370
_cell_angle_gamma   90.04063420
_symmetry_Int_Tables_number   1
_chemical_formula_structural   V85Zn86O256
_chemical_formula_sum   'V85 Zn86 O256'
_cell_volume   4845.88990209
_cell_formula_units_Z   1
loop_
 _symmetry_equiv_pos_site_id
 _symmetry_equiv_pos_as_xyz
  1  'x, y, z'
loop_
 _atom_site_type_symbol
 _atom_site_label
 _atom_site_symmetry_multiplicity
 _atom_site_fract_x
 _atom_site_fract_y
 _atom_site_fract_z
 _atom_site_occupancy
  V  V0  1  0.25103529  0.49435657  0.24672589  1
  V  V1  1  0.75324345  0.87189797  0.62432802  1
  V  V2  1  0.74404253  0.50362189  0.25197100  1
  V  V3  1  0.49957463  -0.00013826  0.50013671  1
  V  V4  1  0.74880178  0.13145328  0.88516181  1
  V  V5  1  0.12760296  0.49455713  0.12441887  1
  V  V6  1  0.37030677  0.87030468  -0.00411802  1
  V  V7  1  -0.00089625  0.50227210  -0.00138740  1
  V  V8  1  0.37222540  0.87181255  0.50934614  1
  V  V9  1  0.50175502  0.87359055  0.87316530  1
  V  V10  1  0.62565543  -0.00126841  0.62520542  1
  V  V11  1  0.49876886  0.12681941  0.62813295  1
  V  V12  1  0.62799814  0.87439475  0.25104489  1
  V  V13  1  0.88175411  0.00267156  0.37810270  1
  V  V14  1  0.11544782  -0.00121691  0.62030974  1
  V  V15  1  0.37348827  0.37936740  0.00878677  1
  V  V16  1  0.50007764  0.25375293  0.75735412  1
  V  V17  1  0.00244270  0.73775584  0.74681980  1
  V  V18  1  0.37616503  0.25779854  0.62366245  1
  V  V19  1  0.75211007  0.73566892  -0.00267445  1
  V  V20  1  0.75163872  0.87343612  0.12313631  1
  V  V21  1  0.87483311  0.13399676  0.74409741  1
  V  V22  1  0.75281509  0.25456700  0.51515452  1
  V  V23  1  0.63817896  0.38189354  0.74650290  1
  V  V24  1  -0.00079948  0.37436767  0.87240106  1
  V  V25  1  0.86205623  0.62189657  0.74665137  1
  V  V26  1  0.60837875  0.50357895  0.12568700  1
  V  V27  1  0.00803132  0.00697953  -0.00291306  1
  V  V28  1  0.11881846  0.25000381  0.37378548  1
  V  V29  1  0.37451345  0.00278255  0.87257538  1
  V  V30  1  -0.00557093  0.37545566  0.37212172  1
  V  V31  1  0.86851284  0.36717336  -0.00083393  1
  V  V32  1  0.62621522  0.25349602  0.37612897  1
  V  V33  1  0.49387314  0.37290067  0.38652912  1
  V  V34  1  0.12924604  0.37661976  0.75003046  1
  V  V35  1  0.12313730  0.37128210  0.24886458  1
  V  V36  1  0.24436848  0.24781016  0.00079037  1
  V  V37  1  0.12739541  0.75196436  0.37332924  1
  V  V38  1  0.75591575  0.00290155  0.24919497  1
  V  V39  1  0.25130484  -0.00230940  0.73720795  1
  V  V40  1  -0.00110049  0.50886892  0.50282729  1
  V  V41  1  0.23889091  0.12315367  0.87594774  1
  V  V42  1  0.25158102  0.87340836  0.12083677  1
  V  V43  1  0.62605730  0.12610575  0.50191690  1
  V  V44  1  0.25413333  0.12668310  0.36786093  1
  V  V45  1  0.37172007  0.49447539  0.38489564  1
  V  V46  1  0.87696464  0.87507344  -0.00328109  1
  V  V47  1  0.37686715  0.00284413  0.36708831  1
  V  V48  1  0.60423908  0.62144595  0.00295111  1
  V  V49  1  0.87285496  0.37337587  0.51551337  1
  V  V50  1  0.49290659  0.24303304  0.25148583  1
  V  V51  1  0.12675644  0.87265217  0.74346350  1
  V  V52  1  0.49749814  0.39020497  0.87631944  1
  V  V53  1  0.75277408  -0.00154622  0.75286353  1
  V  V54  1  0.12916501  0.87687337  0.24753756  1
  V  V55  1  0.36914524  0.23866440  0.12640364  1
  V  V56  1  0.00030115  0.62239673  0.12464111  1
  V  V57  1  0.87186236  0.62406926  0.25298947  1
  V  V58  1  0.75177667  0.12731038  0.37658488  1
  V  V59  1  0.87667448  0.74752569  0.12342273  1
  V  V60  1  0.62760757  0.74314643  0.87466007  1
  V  V61  1  0.38366243  0.62294662  0.24685023  1
  V  V62  1  0.25263543  0.38242041  0.62645835  1
  V  V63  1  0.50077651  0.87185936  0.37400410  1
  V  V64  1  0.86132977  0.50822632  0.87555689  1
  V  V65  1  0.74313223  0.37145989  0.12183350  1
  V  V66  1  0.00567526  0.13287410  0.13011467  1
  V  V67  1  0.13712427  0.74623162  0.87915749  1
  V  V68  1  0.63095668  0.50681974  0.62561623  1
  V  V69  1  0.38220871  0.74598357  0.12094218  1
  V  V70  1  0.00206226  0.75100077  0.24842151  1
  V  V71  1  0.00163542  0.87789654  0.37586063  1
  V  V72  1  0.36563288  0.62179953  0.74040676  1
  V  V73  1  0.49751712  0.73921274  0.73925379  1
  V  V74  1  0.12271708  0.50541903  0.62727127  1
  V  V75  1  0.25277329  0.75286114  0.51168549  1
  V  V76  1  0.11913601  0.12275489  0.50004084  1
  V  V77  1  0.35720233  0.50661102  0.87419686  1
  V  V78  1  0.88193032  0.87773194  0.50170754  1
  V  V79  1  0.86650165  0.50360002  0.37799401  1
  V  V80  1  0.62977816  0.74029962  0.37415106  1
  V  V81  1  0.62624083  0.00202304  0.11975915  1
  V  V82  1  0.25272425  0.25565573  0.49963370  1
  V  V83  1  0.75238387  0.73983731  0.49736129  1
  V  V84  1  0.24756012  0.62795374  0.37087350  1
  Zn  Zn85  1  0.49845461  0.12263563  0.12529403  1
  Zn  Zn86  1  0.50550266  0.74422152  0.24585608  1
  Zn  Zn87  1  0.62411447  0.14057851  0.00613892  1
  Zn  Zn88  1  0.61981211  0.37785387  0.25102280  1
  Zn  Zn89  1  0.37267140  0.12760914  0.74976536  1
  Zn  Zn90  1  0.87303095  0.25212380  0.13140691  1
  Zn  Zn91  1  0.14646008  0.61698263  -0.01620436  1
  Zn  Zn92  1  0.88350695  0.74161248  0.62026263  1
  Zn  Zn93  1  0.50170993  0.00274554  -0.00168015  1
  Zn  Zn94  1  0.62958286  0.26099481  0.88346488  1
  Zn  Zn95  1  0.88186755  0.14180199  0.25449187  1
  Zn  Zn96  1  -0.00741234  0.12951292  0.61598312  1
  Zn  Zn97  1  0.61547918  0.62611946  0.50491771  1
  Zn  Zn98  1  0.87587146  0.00097989  0.87547104  1
  Zn  Zn99  1  0.00120933  0.87354764  0.87315389  1
  Zn  Zn100  1  -0.00220242  0.25555879  0.73524643  1
  Zn  Zn101  1  0.13013028  0.00424519  0.11924695  1
  Zn  Zn102  1  0.25540896  0.00549683  0.24431212  1
  Zn  Zn103  1  0.62593622  0.87068590  0.74952600  1
  Zn  Zn104  1  0.12258339  0.62919275  0.50468786  1
  Zn  Zn105  1  0.12038165  0.24636449  0.87430839  1
  Zn  Zn106  1  0.49181147  0.50425618  0.51419981  1
  Zn  Zn107  1  0.18477900  0.18901971  0.18458468  1
  Zn  Zn108  1  0.18497540  0.18895738  0.68810593  1
  Zn  Zn109  1  0.20853957  0.66927709  0.15172330  1
  Zn  Zn110  1  0.18925134  0.68616879  0.69013703  1
  Zn  Zn111  1  0.68723433  0.18861198  0.19076662  1
  Zn  Zn112  1  0.68438332  0.18893444  0.69600385  1
  Zn  Zn113  1  0.68674465  0.68458623  0.18422430  1
  Zn  Zn114  1  0.68826020  0.68782000  0.68689465  1
  Zn  Zn115  1  0.31074920  0.31238899  0.31056492  1
  Zn  Zn116  1  0.31244807  0.31374078  0.81326761  1
  Zn  Zn117  1  0.31501981  0.81211477  0.30966994  1
  Zn  Zn118  1  0.31341366  0.81173617  0.80370688  1
  Zn  Zn119  1  0.80941566  0.31682406  0.31174402  1
  Zn  Zn120  1  0.81496271  0.31221431  0.81488405  1
  Zn  Zn121  1  0.81354619  0.81303117  0.31365357  1
  Zn  Zn122  1  0.81372916  0.80720605  0.81293994  1
  Zn  Zn123  1  0.18578102  0.43797609  0.43913978  1
  Zn  Zn124  1  0.18807442  0.43090821  0.93987776  1
  Zn  Zn125  1  0.19140043  0.93865461  0.43805489  1
  Zn  Zn126  1  0.18852918  0.93221417  0.93092699  1
  Zn  Zn127  1  0.68700931  0.43712880  0.44333619  1
  Zn  Zn128  1  0.68217070  0.44027702  0.94059509  1
  Zn  Zn129  1  0.69133543  0.93469377  0.43814551  1
  Zn  Zn130  1  0.69049262  0.93405371  0.93620180  1
  Zn  Zn131  1  0.31190294  0.06029193  0.05649712  1
  Zn  Zn132  1  0.31241580  0.06713292  0.55721264  1
  Zn  Zn133  1  0.31602865  0.55985497  0.06214169  1
  Zn  Zn134  1  0.30809084  0.56745970  0.56154522  1
  Zn  Zn135  1  0.82061112  0.06370555  0.06474737  1
  Zn  Zn136  1  0.81169485  0.06090782  0.56219798  1
  Zn  Zn137  1  0.80967939  0.55562805  0.06598922  1
  Zn  Zn138  1  0.80691920  0.55626665  0.56907862  1
  Zn  Zn139  1  0.43591044  0.42865673  0.19536817  1
  Zn  Zn140  1  0.43964776  0.44227335  0.69154938  1
  Zn  Zn141  1  0.44026305  0.93521150  0.18662355  1
  Zn  Zn142  1  0.43960038  0.93469970  0.68983670  1
  Zn  Zn143  1  0.93384314  0.43305267  0.18881578  1
  Zn  Zn144  1  0.93901046  0.44404759  0.69039400  1
  Zn  Zn145  1  0.94053053  0.94135300  0.18393783  1
  Zn  Zn146  1  0.93933683  0.93613158  0.68962448  1
  Zn  Zn147  1  0.06536189  0.06201808  0.30931641  1
  Zn  Zn148  1  0.05974157  0.05950100  0.80893483  1
  Zn  Zn149  1  0.06092356  0.56107069  0.31184142  1
  Zn  Zn150  1  0.06439508  0.56112752  0.81214045  1
  Zn  Zn151  1  0.56531055  0.06306879  0.31094758  1
  Zn  Zn152  1  0.56574912  0.06357356  0.81282457  1
  Zn  Zn153  1  0.55958505  0.55965817  0.32177662  1
  Zn  Zn154  1  0.56390951  0.56255622  0.81192647  1
  Zn  Zn155  1  0.43626604  0.18736323  0.44073316  1
  Zn  Zn156  1  0.43864236  0.18734020  0.94167901  1
  Zn  Zn157  1  0.43625944  0.68641936  0.43811602  1
  Zn  Zn158  1  0.43356642  0.68920645  0.93147031  1
  Zn  Zn159  1  0.93712120  0.19138911  0.44045083  1
  Zn  Zn160  1  0.93528314  0.18681609  0.93531592  1
  Zn  Zn161  1  0.93694977  0.68775964  0.43516446  1
  Zn  Zn162  1  0.94501740  0.68664535  0.93319077  1
  Zn  Zn163  1  0.06155302  0.31422062  0.05852283  1
  Zn  Zn164  1  0.06063297  0.31507086  0.56125240  1
  Zn  Zn165  1  0.06421524  0.81368485  0.05954182  1
  Zn  Zn166  1  0.06407504  0.81082096  0.56400971  1
  Zn  Zn167  1  0.55734540  0.31325381  0.06226083  1
  Zn  Zn168  1  0.56393582  0.31770863  0.56694868  1
  Zn  Zn169  1  0.56216512  0.81419285  0.05937991  1
  Zn  Zn170  1  0.56417541  0.81165953  0.56048236  1
  O  O171  1  0.11193237  0.12190318  0.12493760  1
  O  O172  1  0.12678387  0.11750806  0.61539138  1
  O  O173  1  0.11057658  0.60611489  0.13841803  1
  O  O174  1  0.13228709  0.60977118  0.62483970  1
  O  O175  1  0.62717012  0.11523317  0.12537094  1
  O  O176  1  0.61957763  0.11946216  0.62218017  1
  O  O177  1  0.62394020  0.61988319  0.11214840  1
  O  O178  1  0.62701532  0.61232346  0.62714752  1
  O  O179  1  0.37957808  0.38283870  0.37217199  1
  O  O180  1  0.37794326  0.38783608  0.87808779  1
  O  O181  1  0.38483966  0.88171118  0.37901921  1
  O  O182  1  0.37972235  0.88077697  0.87732444  1
  O  O183  1  0.88060438  0.38662764  0.38040043  1
  O  O184  1  0.87924595  0.38623632  0.87950988  1
  O  O185  1  0.88114904  0.88230429  0.38144479  1
  O  O186  1  0.87551113  0.87384587  0.88665276  1
  O  O187  1  0.25979621  0.00944381  0.37370339  1
  O  O188  1  0.25624932  0.00507057  0.86633303  1
  O  O189  1  0.25300468  0.50631833  0.36958651  1
  O  O190  1  0.25823251  0.50080635  0.87806901  1
  O  O191  1  0.75935895  0.00384113  0.36851017  1
  O  O192  1  0.75203262  0.00571010  0.86707813  1
  O  O193  1  0.75626794  0.49583234  0.36787043  1
  O  O194  1  0.76344942  0.50127595  0.88010791  1
  O  O195  1  0.23980150  0.49550883  0.13492976  1
  O  O196  1  0.24264087  0.48703674  0.61531457  1
  O  O197  1  0.25019390  0.99047385  0.12561160  1
  O  O198  1  0.24502706  1.00765263  0.63400243  1
  O  O199  1  0.73945878  0.49243600  0.13312668  1
  O  O200  1  0.73230425  0.49329576  0.62711888  1
  O  O201  1  0.74845088  0.99535928  0.13228475  1
  O  O202  1  0.74697314  0.98915420  0.63045508  1
  O  O203  1  0.00734295  0.38337376  0.26428572  1
  O  O204  1  0.00410885  0.37479521  0.75789424  1
  O  O205  1  0.00632820  0.87093604  0.25269484  1
  O  O206  1  0.00730097  0.86559673  0.75184433  1
  O  O207  1  0.50118161  0.36102118  0.26341746  1
  O  O208  1  0.50430763  0.36944919  0.76020496  1
  O  O209  1  0.50743670  0.87482715  0.26204176  1
  O  O210  1  0.49979635  0.86316529  0.75975943  1
  O  O211  1  0.50298480  0.13820328  0.25064265  1
  O  O212  1  0.50021688  0.13478105  0.74569923  1
  O  O213  1  0.48686322  0.62450828  0.25823978  1
  O  O214  1  0.49322604  0.63533352  0.75479557  1
  O  O215  1  0.99937955  0.12011621  0.23432466  1
  O  O216  1  0.98253781  0.12523562  0.75318489  1
  O  O217  1  0.99166247  0.63031998  0.24607517  1
  O  O218  1  0.99356481  0.63484377  0.75308356  1
  O  O219  1  0.36760004  0.25768216  0.00726446  1
  O  O220  1  0.36547394  0.24741379  0.51045536  1
  O  O221  1  0.37979059  0.76168931  0.00427406  1
  O  O222  1  0.36516807  0.75980647  0.49168887  1
  O  O223  1  0.87608423  0.26466353  0.00123336  1
  O  O224  1  0.86506686  0.26067998  0.49644881  1
  O  O225  1  0.87070660  0.75258526  0.00182116  1
  O  O226  1  0.86965811  0.75636061  0.50064011  1
  O  O227  1  0.13226313  0.24474390  0.49062039  1
  O  O228  1  0.14000475  0.26004910  0.99422130  1
  O  O229  1  0.13237045  0.75028242  0.49144338  1
  O  O230  1  0.11881852  0.74990012  0.98140866  1
  O  O231  1  0.62946337  0.24743658  0.49297161  1
  O  O232  1  0.62352214  0.25391436  0.99581781  1
  O  O233  1  0.63433739  0.74974960  0.49194914  1
  O  O234  1  0.63064538  0.73967767  0.99655732  1
  O  O235  1  0.48943576  0.24976102  0.13557046  1
  O  O236  1  0.49351391  0.24981833  0.63458912  1
  O  O237  1  0.48744228  0.76074149  0.12912901  1
  O  O238  1  0.50610496  0.75359314  0.64111239  1
  O  O239  1  1.00011772  0.23522810  0.11479386  1
  O  O240  1  1.00354026  0.24273405  0.62211944  1
  O  O241  1  0.99610223  0.74320046  0.12779862  1
  O  O242  1  1.00067523  0.75038427  0.64048534  1
  O  O243  1  0.01115107  0.25922436  0.37972962  1
  O  O244  1  -0.00111005  0.26409822  0.87564346  1
  O  O245  1  0.00636350  0.75681805  0.36868030  1
  O  O246  1  0.00815145  0.75246070  0.86133276  1
  O  O247  1  0.50403923  0.25345179  0.37356110  1
  O  O248  1  0.49347869  0.25822254  0.86479995  1
  O  O249  1  0.51016804  0.75856872  0.37225321  1
  O  O250  1  0.50999908  0.75546174  0.86956651  1
  O  O251  1  0.24099357  0.13542204  0.48997730  1
  O  O252  1  0.25370924  0.13301980  0.98801972  1
  O  O253  1  0.24754351  0.63479421  0.48803429  1
  O  O254  1  0.23793132  0.63597733  1.04281055  1
  O  O255  1  0.74570707  0.13123851  0.49483558  1
  O  O256  1  0.75203938  0.11767814  0.98713986  1
  O  O257  1  0.75003094  0.63786495  0.50561190  1
  O  O258  1  0.74865745  0.63445426  1.00466222  1
  O  O259  1  0.26572867  0.36427423  -0.00720194  1
  O  O260  1  0.24371552  0.36225672  0.50686500  1
  O  O261  1  0.25893316  0.87810323  0.00586229  1
  O  O262  1  0.26066455  0.86526466  0.49269076  1
  O  O263  1  0.75707362  0.38510413  0.00880998  1
  O  O264  1  0.76067442  0.36600024  0.49702977  1
  O  O265  1  0.75784250  0.86543754  0.00560776  1
  O  O266  1  0.76125282  0.86892880  0.50708750  1
  O  O267  1  0.13021588  0.49008003  0.24675383  1
  O  O268  1  0.11899248  0.48786149  0.74151449  1
  O  O269  1  0.12737835  0.98725307  0.24618899  1
  O  O270  1  0.13063651  0.99232516  0.74220474  1
  O  O271  1  0.62921458  0.50338100  0.24556015  1
  O  O272  1  0.62342596  0.48986456  0.74469429  1
  O  O273  1  0.63789081  0.99532468  0.24412654  1
  O  O274  1  0.63762573  0.99731791  0.74423506  1
  O  O275  1  0.37662466  -0.00345254  0.26295657  1
  O  O276  1  0.36782809  -0.00007323  0.75512095  1
  O  O277  1  0.36672981  0.50310203  0.25571397  1
  O  O278  1  0.37634832  0.51049026  0.76323426  1
  O  O279  1  0.86569730  -0.00125267  0.25615129  1
  O  O280  1  0.86466976  0.00459768  0.75168261  1
  O  O281  1  0.86633161  0.50310150  0.25828756  1
  O  O282  1  0.87828219  0.51230741  0.76263025  1
  O  O283  1  0.11685941  0.36927473  0.37052112  1
  O  O284  1  0.11655807  0.37651112  0.86680734  1
  O  O285  1  0.12015238  0.87444370  0.36835428  1
  O  O286  1  0.12350283  0.86522643  0.86126757  1
  O  O287  1  0.61615713  0.36770153  0.37613181  1
  O  O288  1  0.61477173  0.38121097  0.86762649  1
  O  O289  1  0.61977567  0.86986125  0.37042701  1
  O  O290  1  0.61747853  0.86670494  0.87336431  1
  O  O291  1  0.37572280  0.13473798  0.12091849  1
  O  O292  1  0.38117565  0.13648407  0.62555073  1
  O  O293  1  0.37630545  0.63377442  0.13360241  1
  O  O294  1  0.37531878  0.61471767  0.64058246  1
  O  O295  1  0.88763890  0.12918976  0.12893028  1
  O  O296  1  0.87354213  0.11775990  0.63997830  1
  O  O297  1  0.88160085  0.62705465  0.13038836  1
  O  O298  1  0.87174965  0.62211589  0.64141684  1
  O  O299  1  0.25624177  0.24620892  0.11544920  1
  O  O300  1  0.25636372  0.25681648  0.61851268  1
  O  O301  1  0.26758767  0.76782651  0.13368457  1
  O  O302  1  0.24632668  0.74731609  0.61097813  1
  O  O303  1  0.74644294  0.26778057  0.13190567  1
  O  O304  1  0.74293170  0.24428563  0.61374860  1
  O  O305  1  0.75753260  0.75379963  0.11733983  1
  O  O306  1  0.75272281  0.75999095  0.61858221  1
  O  O307  1  0.24299012  0.24633456  0.38118599  1
  O  O308  1  0.25121859  0.23878071  0.87967570  1
  O  O309  1  0.24482987  0.74293912  0.37443100  1
  O  O310  1  0.23595626  0.75502593  0.86974158  1
  O  O311  1  0.74027688  0.24665579  0.38122954  1
  O  O312  1  0.75021624  0.23477153  0.87254314  1
  O  O313  1  0.74210896  0.75833661  0.38510911  1
  O  O314  1  0.73615993  0.75482219  0.88324863  1
  O  O315  1  -0.00559499  0.11192999  0.00420491  1
  O  O316  1  0.01481070  0.12499677  0.49503294  1
  O  O317  1  0.00355323  0.61298675  0.00433959  1
  O  O318  1  0.00198038  0.61382696  0.49542311  1
  O  O319  1  0.50542429  0.11947636  0.00359950  1
  O  O320  1  0.50683889  0.12001529  0.50737412  1
  O  O321  1  0.50630002  0.63084778  0.00289143  1
  O  O322  1  0.50290558  0.61589214  0.48851863  1
  O  O323  1  0.49991337  0.37482656  0.48977619  1
  O  O324  1  0.48153546  0.36938337  0.98895494  1
  O  O325  1  0.49664028  0.87875547  0.48971438  1
  O  O326  1  0.49454678  0.87775992  0.98618382  1
  O  O327  1  0.99309659  0.38447669  0.48899814  1
  O  O328  1  0.99146683  0.38558988  0.99438418  1
  O  O329  1  0.98879920  0.86984656  0.49525764  1
  O  O330  1  0.99230345  0.88368373  0.99920052  1
  O  O331  1  0.48756986  0.48740102  0.37408688  1
  O  O332  1  0.49153753  0.49255316  0.87375551  1
  O  O333  1  0.49656770  0.99515120  0.38022565  1
  O  O334  1  0.49277697  0.99177719  0.87008860  1
  O  O335  1  0.99224639  0.49438502  0.38199955  1
  O  O336  1  0.99515541  0.49212388  0.88210221  1
  O  O337  1  0.98841936  0.99595590  0.36869925  1
  O  O338  1  0.99714708  0.99701622  0.88481451  1
  O  O339  1  0.00259631  0.00858691  0.11241592  1
  O  O340  1  0.01227385  0.00604670  0.62852722  1
  O  O341  1  0.00143171  0.50186457  0.11684943  1
  O  O342  1  0.00954056  0.49550084  0.61459131  1
  O  O343  1  0.51241169  0.00045078  0.12583868  1
  O  O344  1  0.50564377  0.00462770  0.62127937  1
  O  O345  1  0.50932069  0.49513912  0.13519187  1
  O  O346  1  0.51884708  0.48648739  0.62523190  1
  O  O347  1  0.23910845  0.38655334  0.25748729  1
  O  O348  1  0.24169591  0.37126387  0.73962918  1
  O  O349  1  0.24413563  0.87950146  0.24396729  1
  O  O350  1  0.24181116  0.88490675  0.74977031  1
  O  O351  1  0.74306076  0.38910896  0.24395278  1
  O  O352  1  0.73589800  0.37285236  0.75948330  1
  O  O353  1  0.74847706  0.88215171  0.24349359  1
  O  O354  1  0.75191107  0.87918902  0.74227907  1
  O  O355  1  0.24336354  0.12516353  0.26354564  1
  O  O356  1  0.25159185  0.11732349  0.75670008  1
  O  O357  1  0.25679668  0.61348498  0.25202331  1
  O  O358  1  0.26675019  0.63037211  0.75186939  1
  O  O359  1  0.75331187  0.11743813  0.25813767  1
  O  O360  1  0.75778534  0.11790618  0.75644606  1
  O  O361  1  0.75716642  0.61292973  0.24302176  1
  O  O362  1  0.76403551  0.63325116  0.75607728  1
  O  O363  1  0.36618775  0.11649227  0.38187497  1
  O  O364  1  0.37047538  0.11203220  0.87340806  1
  O  O365  1  0.36195541  0.61833208  0.36589684  1
  O  O366  1  0.37604808  0.61045262  0.87328627  1
  O  O367  1  0.87171577  0.11827980  0.37500207  1
  O  O368  1  0.86414626  0.12269776  0.86594073  1
  O  O369  1  0.87750750  0.61223698  0.36926554  1
  O  O370  1  0.87913293  0.61367439  0.86920874  1
  O  O371  1  0.11429019  0.38495736  0.13450730  1
  O  O372  1  0.13246344  0.38234576  0.63031683  1
  O  O373  1  0.13457024  0.87409294  0.13020403  1
  O  O374  1  0.12257552  0.88273293  0.63402334  1
  O  O375  1  0.62680057  0.38587589  0.12677529  1
  O  O376  1  0.62673668  0.37656503  0.64236478  1
  O  O377  1  0.63194391  0.87946188  0.13111608  1
  O  O378  1  0.63473659  0.88032262  0.62589232  1
  O  O379  1  0.12970352  0.26322608  0.25740040  1
  O  O380  1  0.12124224  0.26263348  0.75254614  1
  O  O381  1  0.11976012  0.76288191  0.25465673  1
  O  O382  1  0.11810506  0.75325269  0.75303246  1
  O  O383  1  0.61827329  0.25093447  0.26444809  1
  O  O384  1  0.61696261  0.26167292  0.75791242  1
  O  O385  1  0.62762595  0.75591380  0.25566582  1
  O  O386  1  0.61648058  0.74738552  0.75831744  1
  O  O387  1  0.37912713  0.25466406  0.23898722  1
  O  O388  1  0.38183297  0.24907561  0.74238683  1
  O  O389  1  0.37879709  0.73990219  0.24320338  1
  O  O390  1  0.38810168  0.73677461  0.75639034  1
  O  O391  1  0.87577882  0.25575448  0.24731405  1
  O  O392  1  0.87445155  0.23735109  0.75006872  1
  O  O393  1  0.87990567  0.74525970  0.24457799  1
  O  O394  1  0.88473503  0.73775685  0.75091308  1
  O  O395  1  0.37026267  0.50171919  0.48773754  1
  O  O396  1  0.37033872  0.48843085  0.99161243  1
  O  O397  1  0.38083270  0.99434783  0.49063104  1
  O  O398  1  0.37755748  0.98871362  0.98854938  1
  O  O399  1  0.87831387  0.49648562  0.49515619  1
  O  O400  1  0.88091659  0.49761194  0.99006574  1
  O  O401  1  0.87050483  0.99091992  0.49009555  1
  O  O402  1  0.88442978  0.99028564  0.99878652  1
  O  O403  1  0.11083987  -0.00847078  -0.00176491  1
  O  O404  1  0.13341499  0.00834232  0.50914595  1
  O  O405  1  0.11880796  0.49846192  0.00738341  1
  O  O406  1  0.11515973  0.50148691  0.50600216  1
  O  O407  1  0.62833124  -0.00444424  0.01357915  1
  O  O408  1  0.62095073  0.00423898  0.50482170  1
  O  O409  1  0.62239044  0.51460350  0.00805649  1
  O  O410  1  0.62447294  0.50170868  0.51329444  1
  O  O411  1  0.37768370  0.37025555  0.11172478  1
  O  O412  1  0.36779360  0.36666928  0.63147993  1
  O  O413  1  0.37159604  0.87298839  0.11465210  1
  O  O414  1  0.38134184  0.87947047  0.60852839  1
  O  O415  1  0.86453809  0.37869425  0.11493688  1
  O  O416  1  0.87851236  0.38188423  0.61467006  1
  O  O417  1  0.87285090  0.86867930  0.11491134  1
  O  O418  1  0.87050355  0.87337439  0.61756802  1
  O  O419  1  0.12971073  0.13246639  0.37860729  1
  O  O420  1  0.13476939  0.12480501  0.86926544  1
  O  O421  1  0.13581724  0.62903623  0.37149829  1
  O  O422  1  0.12524912  0.63825345  0.87199234  1
  O  O423  1  0.63057856  0.13182638  0.38257847  1
  O  O424  1  0.64078295  0.12447561  0.87574395  1
  O  O425  1  0.62782059  0.63783392  0.37298113  1
  O  O426  1  0.62048385  0.63011678  0.89009777  1
