# generated using pymatgen
data_V85Zn86O256
_symmetry_space_group_name_H-M   'P 1'
_cell_length_a   16.96814926
_cell_length_b   16.96566201
_cell_length_c   16.96042603
_cell_angle_alpha   89.99889651
_cell_angle_beta   89.97392383
_cell_angle_gamma   90.06643309
_symmetry_Int_Tables_number   1
_chemical_formula_structural   V85Zn86O256
_chemical_formula_sum   'V85 Zn86 O256'
_cell_volume   4882.49387168
_cell_formula_units_Z   1
loop_
 _symmetry_equiv_pos_site_id
 _symmetry_equiv_pos_as_xyz
  1  'x, y, z'
loop_
 _atom_site_type_symbol
 _atom_site_label
 _atom_site_symmetry_multiplicity
 _atom_site_fract_x
 _atom_site_fract_y
 _atom_site_fract_z
 _atom_site_occupancy
  V  V0  1  0.12991474  0.73913162  0.37513756  1
  V  V1  1  0.50273313  0.24898154  0.25097184  1
  V  V2  1  0.62658986  0.62510921  0.00098476  1
  V  V3  1  0.87601763  0.49697575  0.37735053  1
  V  V4  1  0.62897670  0.88533927  0.75069891  1
  V  V5  1  0.42020115  0.07192831  0.30893749  1
  V  V6  1  0.87914120  0.87247605  0.00006674  1
  V  V7  1  0.25330841  0.37274578  0.63097343  1
  V  V8  1  0.50484610  0.49209689  0.00252749  1
  V  V9  1  0.61243616  0.75274504  0.36952164  1
  V  V10  1  0.00076464  0.24715965  0.25318938  1
  V  V11  1  0.25010079  0.12556849  0.87178739  1
  V  V12  1  0.50206624  0.75246953  0.75425751  1
  V  V13  1  0.75540120  0.74679045  0.00325852  1
  V  V14  1  0.86525599  0.37132318  -0.00220059  1
  V  V15  1  0.49774896  0.62530223  0.62770681  1
  V  V16  1  0.50010173  0.01183721  -0.00331187  1
  V  V17  1  0.35754238  0.50378198  0.36878572  1
  V  V18  1  0.12372647  0.24956084  0.87747658  1
  V  V19  1  0.50773279  0.13237762  0.61636114  1
  V  V20  1  0.24500842  0.12188083  0.38211156  1
  V  V21  1  0.12115057  0.49831398  0.63185291  1
  V  V22  1  0.87513583  0.75108798  0.62441802  1
  V  V23  1  0.75177276  -0.00740500  0.25017832  1
  V  V24  1  0.74251107  0.23949154  0.00037385  1
  V  V25  1  0.49995221  0.49958079  0.50192928  1
  V  V26  1  0.49947418  0.36970392  0.87527590  1
  V  V27  1  0.87614178  0.36712604  0.50260210  1
  V  V28  1  0.86650517  0.12151121  0.74262227  1
  V  V29  1  0.75518028  0.62759442  0.37599900  1
  V  V30  1  -0.00231723  0.87088472  0.37896951  1
  V  V31  1  -0.00903642  0.24744125  0.74302381  1
  V  V32  1  0.62644236  0.75203329  0.87649104  1
  V  V33  1  0.74892481  0.62088448  0.86883512  1
  V  V34  1  0.05054568  0.42435458  0.31975587  1
  V  V35  1  0.87410586  -0.00711977  0.38379768  1
  V  V36  1  0.24834451  0.88177502  0.11873896  1
  V  V37  1  0.86817274  -0.00325466  0.86794623  1
  V  V38  1  0.33898474  0.39176316  0.03638228  1
  V  V39  1  0.63045047  0.37472175  0.25724216  1
  V  V40  1  0.74144263  0.11976051  0.87283994  1
  V  V41  1  0.87411915  0.12105235  0.24958587  1
  V  V42  1  0.87103939  0.62409361  0.74373029  1
  V  V43  1  0.24779477  0.75294298  -0.00122431  1
  V  V44  1  0.00079418  0.12724047  0.61748113  1
  V  V45  1  0.87183996  0.49886181  0.87158922  1
  V  V46  1  0.62693835  0.62669005  0.50124178  1
  V  V47  1  0.37174092  0.49529485  0.87920737  1
  V  V48  1  0.62288298  0.00045310  0.61340881  1
  V  V49  1  0.37209438  0.13223366  0.73499132  1
  V  V50  1  0.75611172  0.75609673  0.49770002  1
  V  V51  1  0.62959876  0.50102984  0.12850738  1
  V  V52  1  0.01705736  0.47939931  0.02125152  1
  V  V53  1  0.25169823  0.49918486  0.75654885  1
  V  V54  1  0.00112660  0.74769462  0.23772822  1
  V  V55  1  0.00276434  0.87167984  0.85412344  1
  V  V56  1  0.37428596  0.37342327  0.50686555  1
  V  V57  1  0.63183570  0.50083159  0.63490911  1
  V  V58  1  0.12373404  0.88004656  0.25342230  1
  V  V59  1  0.38052249  0.88099536  0.48298197  1
  V  V60  1  0.75567821  0.37205868  0.63481105  1
  V  V61  1  0.12002213  0.00703227  0.12419456  1
  V  V62  1  0.04824795  0.68328321  0.68841176  1
  V  V63  1  0.01264741  0.00200894  0.49500667  1
  V  V64  1  0.62864119  0.00474718  0.11907977  1
  V  V65  1  0.75349936  0.87985036  0.62705414  1
  V  V66  1  0.10930163  0.63325404  0.00887768  1
  V  V67  1  0.74936924  0.12719630  0.38494895  1
  V  V68  1  0.12359581  0.12670520  -0.00123685  1
  V  V69  1  0.11837468  0.24635900  0.38165049  1
  V  V70  1  0.12427853  0.37166075  0.75363310  1
  V  V71  1  0.34200847  0.25359848  0.13823819  1
  V  V72  1  0.75229461  0.87060770  0.12453385  1
  V  V73  1  -0.00025580  0.50299330  0.50772646  1
  V  V74  1  0.24963993  0.62647148  0.88424652  1
  V  V75  1  0.50062256  0.13110483  0.12064271  1
  V  V76  1  0.49975072  0.37745190  0.37723876  1
  V  V77  1  0.24641585  0.24741281  0.50811323  1
  V  V78  1  0.38130280  0.76190027  0.62427994  1
  V  V79  1  0.49768126  0.87739493  0.88061780  1
  V  V80  1  0.88328212  0.62624503  0.23635935  1
  V  V81  1  -0.00588654  0.37130560  0.87152834  1
  V  V82  1  0.12447129  -0.00442508  0.63474946  1
  V  V83  1  0.75417966  0.50047176  0.25232195  1
  V  V84  1  0.24917403  0.01135281  0.25108099  1
  Zn  Zn85  1  0.74986320  0.36921910  0.12764801  1
  Zn  Zn86  1  0.36944690  0.88407223  -0.00290289  1
  Zn  Zn87  1  0.12279336  0.75519264  0.86319917  1
  Zn  Zn88  1  0.60042831  0.86887653  0.25197062  1
  Zn  Zn89  1  0.62636959  0.37376100  0.75311996  1
  Zn  Zn90  1  0.87205596  0.24744766  0.12556315  1
  Zn  Zn91  1  0.39417770  0.75618666  0.13820734  1
  Zn  Zn92  1  0.49775530  0.25364803  0.74448985  1
  Zn  Zn93  1  -0.00394428  0.12562271  0.12171302  1
  Zn  Zn94  1  0.25288347  -0.00820856  0.75026482  1
  Zn  Zn95  1  0.25681435  0.74345935  0.49493520  1
  Zn  Zn96  1  0.38673114  0.63438724  0.25849568  1
  Zn  Zn97  1  0.74815548  0.24544847  0.51152729  1
  Zn  Zn98  1  0.24414149  0.87073061  0.62648454  1
  Zn  Zn99  1  0.61959956  0.24466872  0.87550389  1
  Zn  Zn100  1  0.62371694  0.24467969  0.38437962  1
  Zn  Zn101  1  0.49802664  0.62632064  0.13392722  1
  Zn  Zn102  1  0.13020870  0.61894631  0.49209441  1
  Zn  Zn103  1  0.37940167  0.62819067  0.76196758  1
  Zn  Zn104  1  0.37464850  0.00894740  0.87599204  1
  Zn  Zn105  1  -0.00270759  -0.00041458  -0.00412481  1
  Zn  Zn106  1  0.49777192  0.00116677  0.48678648  1
  Zn  Zn107  1  0.18768428  0.20006056  0.19274798  1
  Zn  Zn108  1  0.18073096  0.18254415  0.68714065  1
  Zn  Zn109  1  0.22922431  0.71075815  0.20857524  1
  Zn  Zn110  1  0.21134841  0.68302579  0.68503130  1
  Zn  Zn111  1  0.68823327  0.18616779  0.19263625  1
  Zn  Zn112  1  0.68231166  0.19145674  0.69074001  1
  Zn  Zn113  1  0.69080866  0.68574414  0.18927259  1
  Zn  Zn114  1  0.68741550  0.69146251  0.68826096  1
  Zn  Zn115  1  0.31252118  0.30572966  0.31279305  1
  Zn  Zn116  1  0.31231941  0.31000975  0.82021802  1
  Zn  Zn117  1  0.30959112  0.82326008  0.31176089  1
  Zn  Zn118  1  0.31252749  0.81549878  0.81003969  1
  Zn  Zn119  1  0.81785976  0.31193020  0.31573974  1
  Zn  Zn120  1  0.80781799  0.30544217  0.81013565  1
  Zn  Zn121  1  0.81602779  0.80957634  0.30878722  1
  Zn  Zn122  1  0.81405253  0.80895864  0.80872300  1
  Zn  Zn123  1  0.18752773  0.43548057  0.44600216  1
  Zn  Zn124  1  0.18381708  0.43990497  1.02219359  1
  Zn  Zn125  1  0.19308985  0.93275397  0.44027015  1
  Zn  Zn126  1  0.18129960  0.94333055  0.93163022  1
  Zn  Zn127  1  0.68924798  0.43601562  0.44528777  1
  Zn  Zn128  1  0.68659132  0.43591532  0.93479693  1
  Zn  Zn129  1  0.68604243  0.93116215  0.43651809  1
  Zn  Zn130  1  0.68627414  0.93895733  0.94123346  1
  Zn  Zn131  1  0.31034554  0.08100445  0.06554211  1
  Zn  Zn132  1  0.31238656  0.05943414  0.56028651  1
  Zn  Zn133  1  0.28658247  0.56441913  0.13145342  1
  Zn  Zn134  1  0.31119499  0.56318286  0.56082596  1
  Zn  Zn135  1  0.81392509  0.05954420  0.05890131  1
  Zn  Zn136  1  0.81804655  0.05561322  0.56283877  1
  Zn  Zn137  1  0.81613839  0.55827768  0.05963615  1
  Zn  Zn138  1  0.81122635  0.56155432  0.56344495  1
  Zn  Zn139  1  0.44253936  0.44241540  0.19473035  1
  Zn  Zn140  1  0.43850651  0.43916263  0.69187096  1
  Zn  Zn141  1  0.43791514  0.93690609  0.17894843  1
  Zn  Zn142  1  0.44032666  0.94544978  0.69188940  1
  Zn  Zn143  1  0.93270892  0.43678643  0.18129725  1
  Zn  Zn144  1  0.93551061  0.43959977  0.68802362  1
  Zn  Zn145  1  0.93677812  0.93437075  0.18816777  1
  Zn  Zn146  1  0.93403520  0.94073313  0.68128057  1
  Zn  Zn147  1  0.06310231  0.06588968  0.31512312  1
  Zn  Zn148  1  0.05405745  0.06196233  0.81185660  1
  Zn  Zn149  1  0.10835225  0.58957791  0.22082717  1
  Zn  Zn150  1  0.06675761  0.55510860  0.83061329  1
  Zn  Zn151  1  0.58311198  0.05913860  0.30663742  1
  Zn  Zn152  1  0.55757902  0.06337124  0.80397121  1
  Zn  Zn153  1  0.56263566  0.56547561  0.31442906  1
  Zn  Zn154  1  0.55998525  0.56090075  0.81563982  1
  Zn  Zn155  1  0.43762778  0.19648759  0.44662491  1
  Zn  Zn156  1  0.42288467  0.20088107  0.95251008  1
  Zn  Zn157  1  0.43469584  0.68433580  0.43932936  1
  Zn  Zn158  1  0.44136249  0.69145171  0.96371503  1
  Zn  Zn159  1  0.93443860  0.18507706  0.43673895  1
  Zn  Zn160  1  0.93168057  0.18408211  0.93485406  1
  Zn  Zn161  1  0.94251704  0.68399948  0.43665518  1
  Zn  Zn162  1  0.93702339  0.69157322  0.93004730  1
  Zn  Zn163  1  0.05364771  0.30457675  0.06086193  1
  Zn  Zn164  1  0.06061562  0.31514479  0.56247409  1
  Zn  Zn165  1  0.06685754  0.81732440  0.05941221  1
  Zn  Zn166  1  0.06338267  0.81702514  0.55433974  1
  Zn  Zn167  1  0.56885950  0.31374227  0.06386980  1
  Zn  Zn168  1  0.57059001  0.31246155  0.56131318  1
  Zn  Zn169  1  0.54958393  0.82255324  0.08384943  1
  Zn  Zn170  1  0.56199538  0.81588307  0.55682344  1
  O  O171  1  0.11962575  0.12267544  0.11611977  1
  O  O172  1  0.10880719  0.11318183  0.62634804  1
  O  O173  1  0.10798922  0.63233623  0.10715336  1
  O  O174  1  0.11634089  0.62181060  0.63612902  1
  O  O175  1  0.62018133  0.11034939  0.13589573  1
  O  O176  1  0.61458659  0.11649177  0.62944744  1
  O  O177  1  0.62842360  0.61376430  0.12000506  1
  O  O178  1  0.61775999  0.62158397  0.62196128  1
  O  O179  1  0.38007335  0.38110573  0.38017136  1
  O  O180  1  0.38291279  0.38351634  0.87396771  1
  O  O181  1  0.37747413  0.87645642  0.38362295  1
  O  O182  1  0.38778198  0.88140554  0.87631874  1
  O  O183  1  0.86765615  0.38901691  0.38670782  1
  O  O184  1  0.87411924  0.38023409  0.87494621  1
  O  O185  1  0.88404256  0.88242588  0.36844186  1
  O  O186  1  0.87996826  0.87899176  0.87674236  1
  O  O187  1  0.24487268  0.01181270  0.36881888  1
  O  O188  1  0.24840664  0.01298206  0.86811439  1
  O  O189  1  0.25999849  0.49214249  0.37780513  1
  O  O190  1  0.26129474  0.50783105  0.87437559  1
  O  O191  1  0.75724420  0.00254561  0.37359147  1
  O  O192  1  0.76020538  0.00293050  0.87788333  1
  O  O193  1  0.75825013  0.50761520  0.37426528  1
  O  O194  1  0.75655956  0.51228920  0.87853993  1
  O  O195  1  0.27405450  0.46001287  0.09173255  1
  O  O196  1  0.23964349  0.49664402  0.63638233  1
  O  O197  1  0.23942603  1.00428030  0.13023251  1
  O  O198  1  0.23140600  1.00577555  0.62375145  1
  O  O199  1  0.74504710  0.49703143  0.13224043  1
  O  O200  1  0.74112585  0.49097520  0.62202709  1
  O  O201  1  0.74426496  0.99547726  0.12741932  1
  O  O202  1  0.74350274  0.98657778  0.61727025  1
  O  O203  1  -0.01243808  0.36688883  0.25806229  1
  O  O204  1  0.00025718  0.36649519  0.75369248  1
  O  O205  1  0.00355086  0.86842611  0.25920022  1
  O  O206  1  -0.00493518  0.87701139  0.75594257  1
  O  O207  1  0.51005700  0.36939348  0.26007729  1
  O  O208  1  0.50020876  0.37218456  0.76016197  1
  O  O209  1  0.50518434  0.84992354  0.19257161  1
  O  O210  1  0.50791028  0.87242966  0.76067628  1
  O  O211  1  0.49993951  0.12828977  0.25088965  1
  O  O212  1  0.48903275  0.12903774  0.73730274  1
  O  O213  1  0.50103852  0.62665611  0.24808471  1
  O  O214  1  0.50079275  0.63313540  0.74501676  1
  O  O215  1  0.99005068  0.13034720  0.25111833  1
  O  O216  1  0.98947262  0.13098821  0.74234347  1
  O  O217  1  1.00161301  0.64027171  0.24483887  1
  O  O218  1  0.99549826  0.62498846  0.75523530  1
  O  O219  1  0.37214282  0.27509746  0.02980922  1
  O  O220  1  0.36291747  0.26632386  0.49818307  1
  O  O221  1  0.35207145  0.75932072  -0.00358385  1
  O  O222  1  0.37972355  0.76140789  0.50595434  1
  O  O223  1  0.86318958  0.25431230  -0.00081945  1
  O  O224  1  0.87300260  0.26422807  0.49541247  1
  O  O225  1  0.86354259  0.75600062  -0.00753862  1
  O  O226  1  0.86984835  0.73893831  0.51330359  1
  O  O227  1  0.13178152  0.25870174  0.49057870  1
  O  O228  1  0.11598894  0.24226512  0.98580516  1
  O  O229  1  0.12182857  0.74770107  0.48437255  1
  O  O230  1  0.12559969  0.74536189  0.99100282  1
  O  O231  1  0.63604471  0.25328392  0.49489903  1
  O  O232  1  0.63899220  0.25169800  0.99491687  1
  O  O233  1  0.63402219  0.74661661  0.49075579  1
  O  O234  1  0.64031964  0.74477424  0.99144344  1
  O  O235  1  0.52190002  0.24070079  0.13795048  1
  O  O236  1  0.50433557  0.23639185  0.62258242  1
  O  O237  1  0.48807621  0.72854277  0.07307522  1
  O  O238  1  0.50001427  0.74311817  0.63017058  1
  O  O239  1  0.99351367  0.24589828  0.13705998  1
  O  O240  1  1.00456746  0.24099299  0.63178247  1
  O  O241  1  1.00299161  0.76444008  0.14037913  1
  O  O242  1  0.99653157  0.74615657  0.62267191  1
  O  O243  1  0.00824569  0.24573333  0.37159579  1
  O  O244  1  -0.00098984  0.25624957  0.86694638  1
  O  O245  1  0.00784596  0.75693773  0.36925578  1
  O  O246  1  -0.00094437  0.76738517  0.86941723  1
  O  O247  1  0.50064702  0.26181343  0.37220551  1
  O  O248  1  0.49536704  0.26249194  0.88322192  1
  O  O249  1  0.51453250  0.74360876  0.37868981  1
  O  O250  1  0.50664670  0.76010567  0.87756323  1
  O  O251  1  0.25629202  0.13505448  0.49317721  1
  O  O252  1  0.23027863  0.11547063  0.98399874  1
  O  O253  1  0.24123010  0.62999689  0.50761942  1
  O  O254  1  0.23379414  0.63784215  0.99709219  1
  O  O255  1  0.76353567  0.12487126  0.48779828  1
  O  O256  1  0.75586617  0.12924587  0.98755418  1
  O  O257  1  0.74583735  0.63487309  0.49745357  1
  O  O258  1  0.74805463  0.63003773  0.99305196  1
  O  O259  1  0.26013194  0.36548228  -0.02080698  1
  O  O260  1  0.25578615  0.36883028  0.51081578  1
  O  O261  1  0.24373555  0.87580159  0.00307164  1
  O  O262  1  0.26606835  0.87046263  0.50607626  1
  O  O263  1  0.75559603  0.36583559  -0.00262168  1
  O  O264  1  0.76095408  0.37614346  0.51241884  1
  O  O265  1  0.76032366  0.86669991  0.00134142  1
  O  O266  1  0.74847069  0.86158768  0.50744694  1
  O  O267  1  0.09824977  0.48030328  0.25470762  1
  O  O268  1  0.12800108  0.49207182  0.74979188  1
  O  O269  1  0.13035539  1.00134735  0.24338609  1
  O  O270  1  0.12034064  1.00279895  0.73621020  1
  O  O271  1  0.63432817  0.49619239  0.24660040  1
  O  O272  1  0.61988336  0.50018963  0.73737514  1
  O  O273  1  0.63374186  0.98448282  0.23923611  1
  O  O274  1  0.62113712  0.98863612  0.73806071  1
  O  O275  1  0.36909484  0.00448058  0.24402291  1
  O  O276  1  0.37577552  0.01913117  0.75501020  1
  O  O277  1  0.37338231  0.49821287  0.26620479  1
  O  O278  1  0.37337946  0.50462475  0.76458340  1
  O  O279  1  0.87157886  0.00434737  0.25896036  1
  O  O280  1  0.87570606  0.00862715  0.75524053  1
  O  O281  1  0.87401912  0.50524939  0.25832110  1
  O  O282  1  0.88147601  0.50753479  0.76372116  1
  O  O283  1  0.12144211  0.37010995  0.37357058  1
  O  O284  1  0.10970104  0.36377977  0.86904836  1
  O  O285  1  0.11660811  0.87445598  0.36912234  1
  O  O286  1  0.10638176  0.87693223  0.87299165  1
  O  O287  1  0.61781614  0.37955862  0.37137332  1
  O  O288  1  0.61444412  0.37578410  0.87155421  1
  O  O289  1  0.62479069  0.85939387  0.37012686  1
  O  O290  1  0.61958218  0.87402838  0.86855350  1
  O  O291  1  0.39646186  0.14112399  0.12830318  1
  O  O292  1  0.38267515  0.12359346  0.63156294  1
  O  O293  1  0.37745544  0.62904021  0.13518338  1
  O  O294  1  0.38955089  0.63105709  0.62514008  1
  O  O295  1  0.87445977  0.12136380  0.13837154  1
  O  O296  1  0.88638386  0.11641803  0.63225943  1
  O  O297  1  0.86690912  0.62472067  0.13835051  1
  O  O298  1  0.87254978  0.62694007  0.63709387  1
  O  O299  1  0.26424152  0.19296941  0.10638574  1
  O  O300  1  0.23922023  0.25290348  0.61476129  1
  O  O301  1  0.23207411  0.77117580  0.11106020  1
  O  O302  1  0.26843186  0.75254884  0.62044569  1
  O  O303  1  0.75077881  0.24728393  0.11754578  1
  O  O304  1  0.74839757  0.26711689  0.62834348  1
  O  O305  1  0.74637852  0.75729509  0.11478790  1
  O  O306  1  0.75667360  0.75697048  0.61811322  1
  O  O307  1  0.24012485  0.24435274  0.38464856  1
  O  O308  1  0.23364578  0.23758191  0.86532747  1
  O  O309  1  0.23280634  0.75962740  0.37509542  1
  O  O310  1  0.24532305  0.74481962  0.87880877  1
  O  O311  1  0.75596717  0.23176762  0.37380885  1
  O  O312  1  0.74877850  0.23635915  0.88119082  1
  O  O313  1  0.75359864  0.74473146  0.38362031  1
  O  O314  1  0.74708405  0.73911074  0.87884640  1
  O  O315  1  0.00692239  0.12202291  -0.00151926  1
  O  O316  1  -0.00657480  0.11595935  0.50671355  1
  O  O317  1  0.00829211  0.62190371  -0.01521586  1
  O  O318  1  0.00760462  0.60716794  0.49442193  1
  O  O319  1  0.49853571  0.12548355  0.00777387  1
  O  O320  1  0.49255057  0.12107790  0.51358734  1
  O  O321  1  0.51361631  0.60184580  -0.01131804  1
  O  O322  1  0.50640796  0.62029261  0.50899752  1
  O  O323  1  0.49214562  0.37806556  0.49704408  1
  O  O324  1  0.51109487  0.38425057  0.99405018  1
  O  O325  1  0.48643836  0.87986717  0.49967031  1
  O  O326  1  0.49827772  0.88970700  0.99272812  1
  O  O327  1  0.98754825  0.38754776  0.51026690  1
  O  O328  1  0.97861152  0.36957695  0.98688167  1
  O  O329  1  0.99981489  0.88384089  0.48558083  1
  O  O330  1  0.98665202  0.87447248  0.99642501  1
  O  O331  1  0.49726697  0.48886717  0.38304326  1
  O  O332  1  0.49336172  0.49001995  0.88053609  1
  O  O333  1  0.49179736  1.01866802  0.36641727  1
  O  O334  1  0.50063989  0.99699750  0.88134837  1
  O  O335  1  0.99550730  0.48739568  0.38315491  1
  O  O336  1  0.99338666  0.48282085  0.88409187  1
  O  O337  1  0.99492902  0.99437140  0.37862814  1
  O  O338  1  0.98699510  0.98871568  0.87363500  1
  O  O339  1  0.01044086  0.00161761  0.12625730  1
  O  O340  1  0.00724800  0.00347722  0.61463463  1
  O  O341  1  -0.02280092  0.51202211  0.10670919  1
  O  O342  1  0.01241124  0.49818124  0.62361973  1
  O  O343  1  0.50742219  0.01200450  0.11648581  1
  O  O344  1  0.50867383  0.01108860  0.62308246  1
  O  O345  1  0.51127540  0.49965678  0.11808463  1
  O  O346  1  0.50516936  0.50822261  0.62121026  1
  O  O347  1  0.26628932  0.29587728  0.20711096  1
  O  O348  1  0.24546803  0.37877623  0.74962023  1
  O  O349  1  0.24282515  0.89325291  0.24192686  1
  O  O350  1  0.25563131  0.87964781  0.73984999  1
  O  O351  1  0.74729382  0.38089782  0.25307266  1
  O  O352  1  0.75131976  0.37705037  0.73880771  1
  O  O353  1  0.75571743  0.87742460  0.23801687  1
  O  O354  1  0.74048607  0.86809463  0.73950570  1
  O  O355  1  0.24656595  0.11732048  0.26212434  1
  O  O356  1  0.25965188  0.12327560  0.75060068  1
  O  O357  1  0.22129599  0.60096310  0.21816128  1
  O  O358  1  0.25885708  0.61634930  0.76282808  1
  O  O359  1  0.75713470  0.11449584  0.25980206  1
  O  O360  1  0.76108782  0.13060929  0.75385438  1
  O  O361  1  0.76169288  0.62004383  0.25798919  1
  O  O362  1  0.75767122  0.62873470  0.75746017  1
  O  O363  1  0.36665264  0.13440903  0.37405158  1
  O  O364  1  0.36193130  0.13207544  0.87627131  1
  O  O365  1  0.37448614  0.60868771  0.37679994  1
  O  O366  1  0.36533408  0.61816715  0.88808529  1
  O  O367  1  0.86837743  0.11435290  0.36645775  1
  O  O368  1  0.86774056  0.11417927  0.86467546  1
  O  O369  1  0.87543274  0.61289122  0.36950720  1
  O  O370  1  0.86883605  0.61931669  0.86501111  1
  O  O371  1  0.08879629  0.40959755  0.07643120  1
  O  O372  1  0.13065076  0.38213833  0.63434055  1
  O  O373  1  0.13020755  0.88946412  0.13020644  1
  O  O374  1  0.12301868  0.89123255  0.61820378  1
  O  O375  1  0.62935484  0.38616294  0.13649291  1
  O  O376  1  0.63672511  0.38498635  0.62762302  1
  O  O377  1  0.64277672  0.88597165  0.11446442  1
  O  O378  1  0.63047323  0.88050178  0.63078723  1
  O  O379  1  0.10822758  0.24726377  0.26093971  1
  O  O380  1  0.11105595  0.25073384  0.75787430  1
  O  O381  1  0.11847738  0.75945307  0.25862174  1
  O  O382  1  0.11643594  0.73900724  0.73885215  1
  O  O383  1  0.62108957  0.25530230  0.26240558  1
  O  O384  1  0.61636845  0.25442629  0.75784198  1
  O  O385  1  0.63440538  0.74877952  0.26698013  1
  O  O386  1  0.62030301  0.76026084  0.75690455  1
  O  O387  1  0.39855258  0.25028810  0.24464281  1
  O  O388  1  0.37643878  0.23544300  0.75375761  1
  O  O389  1  0.34020323  0.74231522  0.24112324  1
  O  O390  1  0.38604328  0.74766505  0.74349540  1
  O  O391  1  0.88319737  0.23955139  0.25290321  1
  O  O392  1  0.88495232  0.24052409  0.75235424  1
  O  O393  1  0.89280862  0.73972047  0.25601837  1
  O  O394  1  0.87406175  0.73984009  0.73561194  1
  O  O395  1  0.37924388  0.49060508  0.49246722  1
  O  O396  1  0.38918395  0.48018969  0.99307927  1
  O  O397  1  0.37719758  0.98490156  0.50281496  1
  O  O398  1  0.38597909  1.00724798  1.00031334  1
  O  O399  1  0.88220642  0.49750463  0.49471334  1
  O  O400  1  0.87535030  0.48920291  0.98669526  1
  O  O401  1  0.88642032  0.99880415  0.48733095  1
  O  O402  1  0.87633047  0.98996884  0.98900106  1
  O  O403  1  0.11755856  0.00726165  0.00745196  1
  O  O404  1  0.11537136  -0.00086971  0.50267279  1
  O  O405  1  0.11640982  0.52384610  -0.01443304  1
  O  O406  1  0.11850302  0.49765140  0.51395047  1
  O  O407  1  0.61313691  0.00170325  0.00690473  1
  O  O408  1  0.61958079  -0.00758567  0.50928187  1
  O  O409  1  0.62538536  0.50197333  0.01067759  1
  O  O410  1  0.61876425  0.50671346  0.51032659  1
  O  O411  1  0.38543845  0.36501628  0.13195459  1
  O  O412  1  0.36695774  0.38396838  0.61844546  1
  O  O413  1  0.35645065  0.87657572  0.11823539  1
  O  O414  1  0.38610027  0.86559756  0.62627986  1
  O  O415  1  0.86894095  0.37041863  0.11198035  1
  O  O416  1  0.86259508  0.38357402  0.61933507  1
  O  O417  1  0.86367108  0.88211579  0.11344561  1
  O  O418  1  0.86551803  0.86509883  0.62807308  1
  O  O419  1  0.13321368  0.13494153  0.37745685  1
  O  O420  1  0.12435994  0.13050917  0.87685833  1
  O  O421  1  0.12338909  0.64082316  0.36777742  1
  O  O422  1  0.13901251  0.63175656  0.87472763  1
  O  O423  1  0.64587938  0.12191050  0.37640469  1
  O  O424  1  0.63861258  0.11863518  0.86524468  1
  O  O425  1  0.63511692  0.63305645  0.38305194  1
  O  O426  1  0.63331049  0.62834506  0.87850804  1
