# generated using pymatgen
data_V85Zn86O256
_symmetry_space_group_name_H-M   'P 1'
_cell_length_a   16.93880601
_cell_length_b   16.92334167
_cell_length_c   16.92853094
_cell_angle_alpha   90.02353176
_cell_angle_beta   90.04522362
_cell_angle_gamma   89.99793779
_symmetry_Int_Tables_number   1
_chemical_formula_structural   V85Zn86O256
_chemical_formula_sum   'V85 Zn86 O256'
_cell_volume   4852.75109841
_cell_formula_units_Z   1
loop_
 _symmetry_equiv_pos_site_id
 _symmetry_equiv_pos_as_xyz
  1  'x, y, z'
loop_
 _atom_site_type_symbol
 _atom_site_label
 _atom_site_symmetry_multiplicity
 _atom_site_fract_x
 _atom_site_fract_y
 _atom_site_fract_z
 _atom_site_occupancy
  V  V0  1  0.13281490  0.75063303  0.87709914  1
  V  V1  1  0.75047109  0.49700660  0.25344792  1
  V  V2  1  0.49462343  0.88190680  0.37920840  1
  V  V3  1  0.62240801  0.37425950  0.74555459  1
  V  V4  1  0.37046521  0.88181889  -0.00614009  1
  V  V5  1  -0.00158144  0.12684004  0.12672245  1
  V  V6  1  0.00790286  0.12514916  0.63807183  1
  V  V7  1  0.74850478  0.37364231  0.61691888  1
  V  V8  1  0.62722479  0.01857239  0.62372885  1
  V  V9  1  0.75192915  0.23166823  0.48865442  1
  V  V10  1  0.12593754  0.49906477  0.12685185  1
  V  V11  1  0.25054750  0.36374144  0.62102117  1
  V  V12  1  0.12490956  0.36997661  0.25413587  1
  V  V13  1  0.87651351  0.49802052  0.87511550  1
  V  V14  1  0.24925589  0.62538242  0.87581624  1
  V  V15  1  0.49847737  0.62660702  0.12242381  1
  V  V16  1  0.88264347  0.50049845  0.38426096  1
  V  V17  1  0.38807354  0.24039627  0.12355834  1
  V  V18  1  0.87644623  0.62458465  0.75017610  1
  V  V19  1  0.38027205  0.37469273  0.48512593  1
  V  V20  1  0.87338596  0.88317933  -0.00134312  1
  V  V21  1  0.36954658  0.75013536  0.11966484  1
  V  V22  1  0.49825804  0.50034053  -0.00198983  1
  V  V23  1  0.12619041  0.88865430  0.74928663  1
  V  V24  1  0.37479196  0.37099615  -0.00144478  1
  V  V25  1  0.87457366  0.75029347  0.12539558  1
  V  V26  1  0.37246160  0.74912602  0.62493134  1
  V  V27  1  0.00491081  0.37778739  0.38744249  1
  V  V28  1  0.25685937  0.62207246  0.37598376  1
  V  V29  1  0.74787153  0.87448903  0.62761761  1
  V  V30  1  0.12351766  0.49371155  0.61996306  1
  V  V31  1  0.00189064  0.49630681  0.00114696  1
  V  V32  1  0.25178371  0.00356227  0.25965981  1
  V  V33  1  0.75068541  0.75037381  -0.00084104  1
  V  V34  1  0.62409183  0.62647906  -0.00062187  1
  V  V35  1  0.61257803  0.37134615  0.25742101  1
  V  V36  1  0.13042295  0.24190993  0.39408622  1
  V  V37  1  0.87505608  0.24149285  0.63486016  1
  V  V38  1  0.87554022  0.62481443  0.25116374  1
  V  V39  1  0.49617837  0.75560018  0.75062725  1
  V  V40  1  0.38408464  0.12415544  0.25300758  1
  V  V41  1  0.12415229  0.75084778  0.37677534  1
  V  V42  1  0.75214047  0.37311766  0.12607147  1
  V  V43  1  0.00101840  0.62023587  0.61667809  1
  V  V44  1  0.24388277  0.88916368  0.62980163  1
  V  V45  1  0.12420724  0.00644048  0.12460547  1
  V  V46  1  0.12918064  0.62820282  0.00074030  1
  V  V47  1  0.12596139  0.24783763  0.85492106  1
  V  V48  1  0.76270570  0.00241092  0.75784961  1
  V  V49  1  0.49295678  0.50328585  0.48174983  1
  V  V50  1  0.62001287  0.12698351  0.00215406  1
  V  V51  1  0.87446356  0.87735418  0.50036660  1
  V  V52  1  -0.00072958  0.00805047  -0.00397654  1
  V  V53  1  0.37639994  0.62348843  0.74888383  1
  V  V54  1  0.37405678  0.49767453  0.87368103  1
  V  V55  1  0.25789849  0.49709956  0.25522766  1
  V  V56  1  0.35957819  0.11659324  0.75282097  1
  V  V57  1  0.62291744  0.74673808  0.38431988  1
  V  V58  1  0.24584145  0.49033372  0.74767146  1
  V  V59  1  0.00211741  0.74830361  0.74973559  1
  V  V60  1  0.74741519  0.49942360  0.74788060  1
  V  V61  1  -0.00509268  0.87811009  0.87394168  1
  V  V62  1  0.24826771  0.87270333  0.12122071  1
  V  V63  1  -0.00070300  0.75111288  0.25030921  1
  V  V64  1  0.74584137  0.62367873  0.38372935  1
  V  V65  1  0.49561693  0.88644458  0.87141412  1
  V  V66  1  0.25024601  0.37086782  0.12467976  1
  V  V67  1  0.87227724  0.12797507  0.25823680  1
  V  V68  1  0.01165223  0.00959751  0.50297809  1
  V  V69  1  0.74826635  0.00514655  0.25886099  1
  V  V70  1  0.12477979  0.87566081  0.25025986  1
  V  V71  1  0.23847122  0.24019673  -0.00030000  1
  V  V72  1  0.75005438  0.62522594  0.87486273  1
  V  V73  1  0.74783680  0.87728712  0.12528264  1
  V  V74  1  0.62468735  0.87425434  0.24981407  1
  V  V75  1  0.61507981  0.24092331  0.37541193  1
  V  V76  1  0.76602686  0.12407263  0.87702030  1
  V  V77  1  0.49940878  0.75000202  0.24883864  1
  V  V78  1  0.61859906  0.50432748  0.61615664  1
  V  V79  1  0.50184968  0.23624989  0.74655992  1
  V  V80  1  0.62811435  0.24855513  0.87501581  1
  V  V81  1  0.61672724  0.00536461  0.12506238  1
  V  V82  1  0.38310010  0.24807796  0.62046935  1
  V  V83  1  0.24809027  0.74896706  0.50407702  1
  V  V84  1  0.00694144  0.37204401  0.86023087  1
  Zn  Zn85  1  0.00083781  0.24893628  0.25535269  1
  Zn  Zn86  1  0.74856019  0.74792059  0.50464640  1
  Zn  Zn87  1  0.50317706  0.62632312  0.61840939  1
  Zn  Zn88  1  0.24279812  0.10937798  0.87521359  1
  Zn  Zn89  1  -0.00000960  0.62465162  0.12525129  1
  Zn  Zn90  1  0.62374671  0.49811804  0.12628670  1
  Zn  Zn91  1  0.37024273  0.88114106  0.49301650  1
  Zn  Zn92  1  0.87587999  0.37318272  0.00134545  1
  Zn  Zn93  1  0.25226581  0.12296912  0.38811160  1
  Zn  Zn94  1  0.50571644  0.01649116  0.49951614  1
  Zn  Zn95  1  0.12158046  0.62005457  0.49732513  1
  Zn  Zn96  1  0.37765668  0.62076271  0.25095469  1
  Zn  Zn97  1  0.87631104  0.25129670  0.12643585  1
  Zn  Zn98  1  0.50017593  0.37309680  0.87397540  1
  Zn  Zn99  1  -0.00205477  0.87884929  0.37788540  1
  Zn  Zn100  1  0.62206712  0.87984238  0.74980886  1
  Zn  Zn101  1  0.62188002  0.75268907  0.87253912  1
  Zn  Zn102  1  0.87237413  0.00425878  0.37971377  1
  Zn  Zn103  1  0.49350066  0.00693632  -0.00116823  1
  Zn  Zn104  1  0.75389635  0.25031652  0.00112219  1
  Zn  Zn105  1  0.87470649  0.74944227  0.62447201  1
  Zn  Zn106  1  0.87782454  0.37371166  0.50223538  1
  Zn  Zn107  1  0.18946473  0.18605279  0.18894560  1
  Zn  Zn108  1  0.19262038  0.17631388  0.56792957  1
  Zn  Zn109  1  0.18831058  0.68624834  0.18865475  1
  Zn  Zn110  1  0.18527143  0.68440368  0.68983483  1
  Zn  Zn111  1  0.68488313  0.18864213  0.19073336  1
  Zn  Zn112  1  0.70135496  0.18917099  0.69394432  1
  Zn  Zn113  1  0.68681666  0.68624156  0.18955418  1
  Zn  Zn114  1  0.68519317  0.68840504  0.68792623  1
  Zn  Zn115  1  0.31168865  0.30348922  0.31038954  1
  Zn  Zn116  1  0.31224232  0.30692870  0.81064623  1
  Zn  Zn117  1  0.31303823  0.81118441  0.30930003  1
  Zn  Zn118  1  0.31255297  0.93939544  0.80990178  1
  Zn  Zn119  1  0.81548969  0.31320401  0.31365628  1
  Zn  Zn120  1  0.81272727  0.31518770  0.81396338  1
  Zn  Zn121  1  0.81081624  0.81452863  0.31591793  1
  Zn  Zn122  1  0.81343067  0.81360680  0.81172655  1
  Zn  Zn123  1  0.19196997  0.43538858  0.44156223  1
  Zn  Zn124  1  0.18744706  0.43360271  0.93684628  1
  Zn  Zn125  1  0.18686487  0.93733612  0.44201676  1
  Zn  Zn126  1  0.18042262  0.93602205  0.94186886  1
  Zn  Zn127  1  0.68123151  0.43572808  0.43849791  1
  Zn  Zn128  1  0.68702981  0.43757390  0.93787084  1
  Zn  Zn129  1  0.68386762  0.93689551  0.44137915  1
  Zn  Zn130  1  0.68274465  0.93947446  0.93493844  1
  Zn  Zn131  1  0.30891481  0.06236786  0.06407305  1
  Zn  Zn132  1  0.33554124  0.06426777  0.55772617  1
  Zn  Zn133  1  0.31065697  0.56103940  0.06341872  1
  Zn  Zn134  1  0.31258119  0.55891805  0.56144686  1
  Zn  Zn135  1  0.80849893  0.06520395  0.06704349  1
  Zn  Zn136  1  0.81513392  0.05955311  0.56581048  1
  Zn  Zn137  1  0.81292726  0.55904603  0.06441476  1
  Zn  Zn138  1  0.81316196  0.56151963  0.56374899  1
  Zn  Zn139  1  0.43630077  0.43476645  0.18315397  1
  Zn  Zn140  1  0.43961470  0.43303648  0.68300422  1
  Zn  Zn141  1  0.43497527  0.93876335  0.18937273  1
  Zn  Zn142  1  0.43255225  0.94450382  0.66355971  1
  Zn  Zn143  1  0.93910445  0.43643055  0.19310301  1
  Zn  Zn144  1  0.93508159  0.43703517  0.68391561  1
  Zn  Zn145  1  0.93549624  0.93997656  0.18947680  1
  Zn  Zn146  1  0.93963293  0.93971390  0.68354448  1
  Zn  Zn147  1  0.06039497  0.06277491  0.31526928  1
  Zn  Zn148  1  0.05983646  0.06804580  0.81337743  1
  Zn  Zn149  1  0.06570349  0.56241187  0.31253088  1
  Zn  Zn150  1  0.06438366  0.55921924  0.80946706  1
  Zn  Zn151  1  0.56203985  0.06328909  0.31339013  1
  Zn  Zn152  1  0.57142172  0.06163708  0.81004646  1
  Zn  Zn153  1  0.56471935  0.56316184  0.30920767  1
  Zn  Zn154  1  0.56123005  0.56331359  0.81139313  1
  Zn  Zn155  1  0.43377635  0.19187908  0.43295054  1
  Zn  Zn156  1  0.43719403  0.18716866  0.93178376  1
  Zn  Zn157  1  0.43685027  0.68863846  0.43900045  1
  Zn  Zn158  1  0.43295729  0.69506599  0.93504346  1
  Zn  Zn159  1  0.93947951  0.18990256  0.44100181  1
  Zn  Zn160  1  0.94152013  0.19496781  0.94010925  1
  Zn  Zn161  1  0.93481993  0.69110645  0.43794823  1
  Zn  Zn162  1  0.94020084  0.68793666  0.93812517  1
  Zn  Zn163  1  0.06151808  0.31314558  0.06327956  1
  Zn  Zn164  1  0.05939510  0.31194750  0.57314827  1
  Zn  Zn165  1  0.06087115  0.81390680  0.06224584  1
  Zn  Zn166  1  0.06134137  0.81438277  0.56378327  1
  Zn  Zn167  1  0.56643609  0.31479095  0.06327487  1
  Zn  Zn168  1  0.56386873  0.19336776  0.55828574  1
  Zn  Zn169  1  0.55863934  0.81592622  0.05878097  1
  Zn  Zn170  1  0.56429164  0.81346077  0.56496420  1
  O  O171  1  0.11726865  0.11358367  0.13139222  1
  O  O172  1  0.10680343  0.13562409  0.63158692  1
  O  O173  1  0.12411318  0.61938024  0.11751899  1
  O  O174  1  0.11666644  0.61716400  0.62389267  1
  O  O175  1  0.62925315  0.11804379  0.11621979  1
  O  O176  1  0.63488426  0.12274288  0.62554765  1
  O  O177  1  0.61900177  0.62279274  0.11653292  1
  O  O178  1  0.62558101  0.60869518  0.62939004  1
  O  O179  1  0.36844842  0.36856207  0.38603253  1
  O  O180  1  0.37607486  0.37914719  0.88084343  1
  O  O181  1  0.38916768  0.87097855  0.37473985  1
  O  O182  1  0.38008068  0.87604052  0.88368887  1
  O  O183  1  0.88696212  0.38332945  0.37549389  1
  O  O184  1  0.88786795  0.37976454  0.87643878  1
  O  O185  1  0.87649026  0.87859097  0.38517487  1
  O  O186  1  0.88677999  0.86926928  0.88410589  1
  O  O187  1  0.24545918  -0.00228741  0.36324616  1
  O  O188  1  0.24497253  -0.00331242  0.87762127  1
  O  O189  1  0.24242127  0.50973501  0.36692736  1
  O  O190  1  0.25360379  0.50321385  0.86672105  1
  O  O191  1  0.74664466  -0.00543997  0.36207166  1
  O  O192  1  0.74845925  0.00616509  0.86551363  1
  O  O193  1  0.75516996  0.50502478  0.37055883  1
  O  O194  1  0.75496762  0.50508299  0.86888158  1
  O  O195  1  0.24387729  0.49183148  0.13185029  1
  O  O196  1  0.24455734  0.49359290  0.63193164  1
  O  O197  1  0.23949538  0.99428473  0.13175561  1
  O  O198  1  0.25131470  0.98546126  0.62127135  1
  O  O199  1  0.74838578  0.49256714  0.13544593  1
  O  O200  1  0.74514117  0.49293533  0.62862485  1
  O  O201  1  0.73998214  0.99321585  0.13312371  1
  O  O202  1  0.74512071  0.99560637  0.63494739  1
  O  O203  1  0.01041324  0.37379211  0.26177688  1
  O  O204  1  -0.00021277  0.37941409  0.76197855  1
  O  O205  1  0.00626041  0.87027028  0.25215559  1
  O  O206  1  0.00254104  0.86816327  0.75570801  1
  O  O207  1  0.51452028  0.38016249  0.24612037  1
  O  O208  1  0.51351740  0.36957487  0.75108250  1
  O  O209  1  0.50379949  0.87123499  0.26015267  1
  O  O210  1  0.49507105  0.86988692  0.75311121  1
  O  O211  1  0.48317891  0.11838940  0.24980785  1
  O  O212  1  0.50032124  0.13478996  0.75513784  1
  O  O213  1  0.49820131  0.62951324  0.23962331  1
  O  O214  1  0.48852583  0.62975522  0.74889031  1
  O  O215  1  0.99236949  0.12449233  0.24274308  1
  O  O216  1  0.99186859  0.11890435  0.73671652  1
  O  O217  1  0.99441308  0.63183590  0.24922224  1
  O  O218  1  0.99622943  0.63100517  0.74480578  1
  O  O219  1  0.36804675  0.25100888  0.00705130  1
  O  O220  1  0.38148437  0.26577194  0.50823521  1
  O  O221  1  0.37714900  0.76226956  0.01241854  1
  O  O222  1  0.36636732  0.75428222  0.50804010  1
  O  O223  1  0.87220720  0.25547622  0.00773492  1
  O  O224  1  0.86325065  0.25323324  0.50472550  1
  O  O225  1  0.87120280  0.75836535  0.00536325  1
  O  O226  1  0.87307839  0.76334812  0.50293778  1
  O  O227  1  0.12597012  0.24954474  0.49712032  1
  O  O228  1  0.13768713  0.25393806  0.99953674  1
  O  O229  1  0.13079062  0.74808003  0.49316471  1
  O  O230  1  0.11530236  0.73872851  0.99216460  1
  O  O231  1  0.64011443  0.24927244  0.48697986  1
  O  O232  1  0.62920088  0.24582287  0.99221269  1
  O  O233  1  0.62660689  0.75028174  0.48790114  1
  O  O234  1  0.62966451  0.73974200  0.99953664  1
  O  O235  1  0.48618760  0.25128546  0.11870261  1
  O  O236  1  0.49596355  0.25344438  0.63471613  1
  O  O237  1  0.49341457  0.74587658  0.12839940  1
  O  O238  1  0.49012546  0.74883028  0.62876687  1
  O  O239  1  1.00309173  0.23626060  0.12630420  1
  O  O240  1  0.98384448  0.23980928  0.62032406  1
  O  O241  1  0.99266407  0.74870274  0.13131665  1
  O  O242  1  1.00003137  0.74179295  0.63464662  1
  O  O243  1  0.01390554  0.25771281  0.37683893  1
  O  O244  1  0.01248824  0.26312677  0.87831327  1
  O  O245  1  0.00838692  0.75208928  0.37019382  1
  O  O246  1  0.00624545  0.75594964  0.86825058  1
  O  O247  1  0.51680424  0.25335194  0.37765295  1
  O  O248  1  0.51144918  0.25343743  0.86682917  1
  O  O249  1  0.50607625  0.75305013  0.36764329  1
  O  O250  1  0.49772648  0.76125226  0.86602931  1
  O  O251  1  0.25792809  0.11758922  0.50089424  1
  O  O252  1  0.25296788  0.13726602  0.99506756  1
  O  O253  1  0.24801724  0.63137454  0.49283860  1
  O  O254  1  0.23663745  0.61847444  0.99375779  1
  O  O255  1  0.75571497  0.13318968  0.49589786  1
  O  O256  1  0.73997528  0.12481724  0.99318971  1
  O  O257  1  0.75477679  0.62677275  0.48763679  1
  O  O258  1  0.74267489  0.62784516  0.99632669  1
  O  O259  1  0.25634807  0.36649825  0.00510687  1
  O  O260  1  0.26701962  0.38469202  0.51160355  1
  O  O261  1  0.25416616  0.87610578  0.01398994  1
  O  O262  1  0.25045110  0.86746429  0.51116249  1
  O  O263  1  0.75107997  0.37814887  0.01228482  1
  O  O264  1  0.74978948  0.37334684  0.51031028  1
  O  O265  1  0.75612590  0.87175826  0.00235616  1
  O  O266  1  0.75636031  0.87402352  0.50903843  1
  O  O267  1  0.13338333  0.48930126  0.24684638  1
  O  O268  1  0.13820431  0.50539701  0.73934204  1
  O  O269  1  0.12919110  0.99377787  0.24480152  1
  O  O270  1  0.11546588  0.98701232  0.75270236  1
  O  O271  1  0.63377668  0.48974804  0.25003136  1
  O  O272  1  0.62915009  0.49233941  0.74655453  1
  O  O273  1  0.63001623  0.99581054  0.24382743  1
  O  O274  1  0.64149539  0.99994374  0.74122023  1
  O  O275  1  0.36476328  0.01402229  0.24119093  1
  O  O276  1  0.37687746  0.01206403  0.74231057  1
  O  O277  1  0.36149095  0.49927835  0.24329583  1
  O  O278  1  0.37097580  0.50540020  0.75378641  1
  O  O279  1  0.86490421  0.00653430  0.25271911  1
  O  O280  1  0.86137574  -0.00727256  0.74935233  1
  O  O281  1  0.86878540  0.50507726  0.26042781  1
  O  O282  1  0.86750783  0.50411506  0.75536716  1
  O  O283  1  0.12234522  0.36759730  0.37317645  1
  O  O284  1  0.11372695  0.36886259  0.87628832  1
  O  O285  1  0.12503183  0.86367516  0.37102926  1
  O  O286  1  0.11342852  0.86604459  0.87077631  1
  O  O287  1  0.62997100  0.36811823  0.36135921  1
  O  O288  1  0.62879220  0.36402901  0.86729623  1
  O  O289  1  0.61791888  0.86627642  0.36896325  1
  O  O290  1  0.61377677  0.87165834  0.87149243  1
  O  O291  1  0.37238679  0.13495953  0.13013231  1
  O  O292  1  0.37365017  0.14159959  0.63978237  1
  O  O293  1  0.37887897  0.63355636  0.12306131  1
  O  O294  1  0.37275712  0.63317552  0.63252097  1
  O  O295  1  0.88297342  0.12434446  0.13542517  1
  O  O296  1  0.87683116  0.13763327  0.62348184  1
  O  O297  1  0.87555056  0.63118769  0.13195829  1
  O  O298  1  0.88260747  0.62435846  0.63263819  1
  O  O299  1  0.25300059  0.25183244  0.11291867  1
  O  O300  1  0.25842353  0.26018804  0.62312764  1
  O  O301  1  0.25738917  0.75900972  0.13113502  1
  O  O302  1  0.25208643  0.74607980  0.61498145  1
  O  O303  1  0.74956001  0.26394406  0.12703400  1
  O  O304  1  0.75651679  0.25475561  0.61366001  1
  O  O305  1  0.75404392  0.75594963  0.11935945  1
  O  O306  1  0.75254578  0.75801248  0.62589071  1
  O  O307  1  0.23210472  0.24987807  0.37528145  1
  O  O308  1  0.23774340  0.25475828  0.88486039  1
  O  O309  1  0.24406845  0.74734508  0.38410081  1
  O  O310  1  0.23379968  0.74106001  0.87291667  1
  O  O311  1  0.74876585  0.25406544  0.38683882  1
  O  O312  1  0.74491419  0.24300206  0.87544611  1
  O  O313  1  0.74084231  0.74091501  0.37396426  1
  O  O314  1  0.74868640  0.74349462  0.88170134  1
  O  O315  1  -0.00661003  0.11386722  0.00762692  1
  O  O316  1  -0.00455586  0.11371047  0.50789237  1
  O  O317  1  0.00936989  0.61236056  -0.00107691  1
  O  O318  1  -0.00078828  0.62952589  0.51316849  1
  O  O319  1  0.51456287  0.12423057  -0.00929651  1
  O  O320  1  0.49152770  0.12820988  0.50345377  1
  O  O321  1  0.50559009  0.62309393  0.00186843  1
  O  O322  1  0.49109890  0.61009557  0.50184739  1
  O  O323  1  0.48327627  0.39109110  0.49765621  1
  O  O324  1  0.49517472  0.38324950  0.99891343  1
  O  O325  1  0.50261613  0.86713438  0.48259051  1
  O  O326  1  0.48978099  0.87763878  0.98913705  1
  O  O327  1  1.00013554  0.37329276  0.49116220  1
  O  O328  1  1.00151801  0.38674936  0.99509676  1
  O  O329  1  0.99186327  0.88555624  0.50439789  1
  O  O330  1  0.99177026  0.88257359  0.99418219  1
  O  O331  1  0.49850223  0.50543767  0.38248393  1
  O  O332  1  0.49332373  0.49832904  0.88199948  1
  O  O333  1  0.50701249  0.98534390  0.37968761  1
  O  O334  1  0.50535185  0.98999232  0.87427494  1
  O  O335  1  0.99423038  0.49326122  0.37187466  1
  O  O336  1  0.99979825  0.48990385  0.88030336  1
  O  O337  1  0.99813200  0.99927513  0.38950673  1
  O  O338  1  1.00445499  0.99149615  0.88532397  1
  O  O339  1  0.00440483  0.00837650  0.12121002  1
  O  O340  1  -0.00584306  0.01386300  0.61521597  1
  O  O341  1  0.00662578  0.50053107  0.11833253  1
  O  O342  1  0.00973600  0.50763603  0.63213154  1
  O  O343  1  0.51392833  -0.00726094  0.12361867  1
  O  O344  1  0.52865172  0.00250723  0.63794973  1
  O  O345  1  0.49918119  0.50797872  0.11492047  1
  O  O346  1  0.50705207  0.50230800  0.62062140  1
  O  O347  1  0.24462650  0.37903156  0.24651771  1
  O  O348  1  0.25897360  0.38536303  0.74077822  1
  O  O349  1  0.24606812  0.88199065  0.24128585  1
  O  O350  1  0.24021750  0.87525946  0.73927731  1
  O  O351  1  0.74864234  0.38547935  0.24668492  1
  O  O352  1  0.74117436  0.37825116  0.74146683  1
  O  O353  1  0.74369961  0.88091516  0.24420170  1
  O  O354  1  0.74849057  0.88326548  0.74608159  1
  O  O355  1  0.25530003  0.11591743  0.25193902  1
  O  O356  1  0.26199322  0.12521640  0.75188516  1
  O  O357  1  0.24981456  0.61444135  0.25671350  1
  O  O358  1  0.26008762  0.61720888  0.75486600  1
  O  O359  1  0.75906476  0.11578740  0.24280868  1
  O  O360  1  0.75344304  0.11231624  0.76146997  1
  O  O361  1  0.75402377  0.61371635  0.25658577  1
  O  O362  1  0.75568287  0.62105017  0.75587723  1
  O  O363  1  0.36777606  0.13689159  0.35623161  1
  O  O364  1  0.37037489  0.13180323  0.85755393  1
  O  O365  1  0.36025184  0.63442753  0.36942873  1
  O  O366  1  0.36903270  0.62029343  0.86931708  1
  O  O367  1  0.88104925  0.12486373  0.36241491  1
  O  O368  1  0.86512758  0.12937944  0.88363071  1
  O  O369  1  0.86923626  0.61975458  0.36983996  1
  O  O370  1  0.87178461  0.61848408  0.87055112  1
  O  O371  1  0.12982648  0.37895830  0.13435276  1
  O  O372  1  0.13594371  0.38082670  0.62203755  1
  O  O373  1  0.13044495  0.88054339  0.13030181  1
  O  O374  1  0.13652380  0.86770517  0.63483161  1
  O  O375  1  0.63320367  0.37657849  0.13710113  1
  O  O376  1  0.63490096  0.38692317  0.63378753  1
  O  O377  1  0.62945637  0.87993988  0.12933320  1
  O  O378  1  0.63791275  0.87746988  0.62792554  1
  O  O379  1  0.12536339  0.26180601  0.25248600  1
  O  O380  1  0.13137413  0.25617156  0.76053921  1
  O  O381  1  0.12084488  0.75524450  0.25666533  1
  O  O382  1  0.11517187  0.75327231  0.75765848  1
  O  O383  1  0.63059683  0.26318851  0.26021718  1
  O  O384  1  0.62297505  0.25532692  0.75440789  1
  O  O385  1  0.61835998  0.75591432  0.25514126  1
  O  O386  1  0.60782397  0.75015061  0.74904170  1
  O  O387  1  0.36862280  0.23885510  0.23265128  1
  O  O388  1  0.38614904  0.24672096  0.74396556  1
  O  O389  1  0.38170315  0.74895720  0.23720677  1
  O  O390  1  0.38437890  0.73789308  0.74305715  1
  O  O391  1  0.87941147  0.24298133  0.24719310  1
  O  O392  1  0.86534716  0.25211015  0.73320941  1
  O  O393  1  0.87840230  0.74566669  0.24626085  1
  O  O394  1  0.88728014  0.74463244  0.75057289  1
  O  O395  1  0.38387074  0.49231023  0.50085690  1
  O  O396  1  0.37868861  0.49395111  0.99425129  1
  O  O397  1  0.40412011  0.97766765  0.54475157  1
  O  O398  1  0.37703519  0.98682543  1.01091202  1
  O  O399  1  0.87263516  0.49742011  0.48747400  1
  O  O400  1  0.88505424  0.49997994  0.99316950  1
  O  O401  1  0.87927001  0.99034760  0.49950751  1
  O  O402  1  0.88011348  0.98818481  1.00816855  1
  O  O403  1  0.11035460  -0.00721281  0.01423983  1
  O  O404  1  0.11012900  -0.00335479  0.50274727  1
  O  O405  1  0.12013735  0.50478393  0.00527194  1
  O  O406  1  0.12967782  0.50271960  0.51454222  1
  O  O407  1  0.62375029  0.00842398  0.00833999  1
  O  O408  1  0.62614724  -0.00072327  0.51860121  1
  O  O409  1  0.61824233  0.51111392  -0.00010229  1
  O  O410  1  0.60692466  0.49348764  0.50498536  1
  O  O411  1  0.36861214  0.36216973  0.11994957  1
  O  O412  1  0.36986211  0.36459561  0.62244871  1
  O  O413  1  0.36656018  0.86934004  0.12133405  1
  O  O414  1  0.35654724  0.85683377  0.63578877  1
  O  O415  1  0.86692396  0.37635249  0.12651722  1
  O  O416  1  0.86691934  0.36677476  0.62263923  1
  O  O417  1  0.86897947  0.87021606  0.11831676  1
  O  O418  1  0.86432463  0.87440237  0.61980016  1
  O  O419  1  0.12507246  0.14022112  0.37359274  1
  O  O420  1  0.12531458  0.14250763  0.87038617  1
  O  O421  1  0.13333061  0.63653808  0.37515014  1
  O  O422  1  0.12687476  0.62937953  0.88153169  1
  O  O423  1  0.62735315  0.14129835  0.36387886  1
  O  O424  1  0.63475377  0.13558112  0.87922301  1
  O  O425  1  0.63504044  0.63392127  0.36722971  1
  O  O426  1  0.62996266  0.62794535  0.88252126  1
