# generated using pymatgen
data_V85Zn86O256
_symmetry_space_group_name_H-M   'P 1'
_cell_length_a   16.95205313
_cell_length_b   16.98434996
_cell_length_c   16.97540225
_cell_angle_alpha   90.09166059
_cell_angle_beta   89.94672407
_cell_angle_gamma   90.00275045
_symmetry_Int_Tables_number   1
_chemical_formula_structural   V85Zn86O256
_chemical_formula_sum   'V85 Zn86 O256'
_cell_volume   4887.54270385
_cell_formula_units_Z   1
loop_
 _symmetry_equiv_pos_site_id
 _symmetry_equiv_pos_as_xyz
  1  'x, y, z'
loop_
 _atom_site_type_symbol
 _atom_site_label
 _atom_site_symmetry_multiplicity
 _atom_site_fract_x
 _atom_site_fract_y
 _atom_site_fract_z
 _atom_site_occupancy
  V  V0  1  0.38238640  0.12102146  0.74564865  1
  V  V1  1  0.88211684  0.13410035  0.25333392  1
  V  V2  1  0.24799415  0.37354568  0.62527976  1
  V  V3  1  0.75449105  0.50546050  0.74912876  1
  V  V4  1  0.61819717  0.25460507  0.87579534  1
  V  V5  1  0.12255856  0.25030740  0.36294235  1
  V  V6  1  0.37556005  -0.00162669  0.87446159  1
  V  V7  1  0.62200474  0.25260972  0.37379379  1
  V  V8  1  0.12514004  0.76306771  0.87356955  1
  V  V9  1  0.61996551  0.37939532  0.75307524  1
  V  V10  1  0.62381872  0.12427161  -0.00203864  1
  V  V11  1  -0.00262640  0.77061324  0.75849394  1
  V  V12  1  0.00441518  0.49106970  0.00939290  1
  V  V13  1  0.62534681  0.38083809  0.24799256  1
  V  V14  1  0.37384313  0.87179791  0.00157717  1
  V  V15  1  0.37082417  0.49698092  0.37465873  1
  V  V16  1  0.75729025  0.24803011  -0.00087154  1
  V  V17  1  0.74740144  0.12922875  0.37540142  1
  V  V18  1  0.76557735  0.87310129  0.13120908  1
  V  V19  1  0.24877473  0.12580277  0.87631091  1
  V  V20  1  0.87520060  0.37668206  0.49886816  1
  V  V21  1  0.50323212  -0.00286852  -0.00018412  1
  V  V22  1  0.37473677  0.37481601  0.50047466  1
  V  V23  1  0.38239138  0.61940516  0.25122614  1
  V  V24  1  0.03129554  0.85755829  0.36685123  1
  V  V25  1  0.12227449  -0.00304430  0.62955991  1
  V  V26  1  0.75171737  0.37437716  0.12510394  1
  V  V27  1  0.86572103  0.50131075  0.36029537  1
  V  V28  1  0.00102468  0.13101033  0.12213250  1
  V  V29  1  0.49735427  0.37778092  0.37403112  1
  V  V30  1  -0.00380650  -0.00380471  0.49704019  1
  V  V31  1  0.49961088  0.25102496  0.74654296  1
  V  V32  1  0.24913186  0.49925828  0.75567600  1
  V  V33  1  0.87648745  0.25245565  0.62572467  1
  V  V34  1  0.74542904  0.00679342  0.25235405  1
  V  V35  1  0.12385043  0.62204924  0.00448962  1
  V  V36  1  0.74669346  0.12051510  0.87072112  1
  V  V37  1  -0.00216268  0.50398505  0.49691486  1
  V  V38  1  0.00069025  0.37210506  0.36824371  1
  V  V39  1  0.24621521  0.25124926  0.49911264  1
  V  V40  1  0.63597146  0.62403782  0.50144240  1
  V  V41  1  0.24739395  -0.00189989  0.75107894  1
  V  V42  1  0.62269153  0.74924517  0.37818673  1
  V  V43  1  0.25448914  0.26536500  -0.00155424  1
  V  V44  1  0.11928591  0.63782254  0.49923069  1
  V  V45  1  0.62761471  0.74935700  0.87525161  1
  V  V46  1  0.12352939  0.25520103  0.87622912  1
  V  V47  1  0.37627296  0.74702645  0.62465354  1
  V  V48  1  0.77512343  0.78601118  -0.01896489  1
  V  V49  1  0.13592552  0.00011279  0.13408218  1
  V  V50  1  0.50094677  0.74405914  0.74827647  1
  V  V51  1  0.75498883  0.76894967  0.50407434  1
  V  V52  1  0.74832661  0.38027443  0.62528143  1
  V  V53  1  -0.00522746  0.62361741  0.64382962  1
  V  V54  1  0.24319250  0.87122249  0.63269609  1
  V  V55  1  0.75063777  -0.00487326  0.73823912  1
  V  V56  1  0.37416401  0.87652006  0.49993015  1
  V  V57  1  0.74909677  0.25298213  0.50044997  1
  V  V58  1  0.61563201  0.12870542  0.50824308  1
  V  V59  1  0.88595122  0.48947172  0.87193346  1
  V  V60  1  0.24374663  0.62502886  0.37343347  1
  V  V61  1  0.49644746  0.51244134  0.50483403  1
  V  V62  1  0.37580129  0.24564484  0.62476768  1
  V  V63  1  0.63162144  0.50139317  0.12029417  1
  V  V64  1  0.87645519  -0.00438683  0.37862383  1
  V  V65  1  0.63046559  0.62916436  -0.00275429  1
  V  V66  1  0.12363676  0.49925338  0.62459725  1
  V  V67  1  -0.00437076  0.25032728  0.76062565  1
  V  V68  1  -0.00992688  0.63755331  0.13408054  1
  V  V69  1  0.12856691  0.38368608  0.23817008  1
  V  V70  1  0.24931536  0.75079633  0.00243712  1
  V  V71  1  0.50315977  0.62929204  0.11888718  1
  V  V72  1  0.12326650  0.12739537  0.50050117  1
  V  V73  1  0.37271880  0.26421313  0.11980814  1
  V  V74  1  0.87422131  0.11989699  0.74857644  1
  V  V75  1  0.37639028  0.62297217  0.74674305  1
  V  V76  1  0.38070880  0.48784546  0.87313246  1
  V  V77  1  0.76233854  0.62114208  0.87586345  1
  V  V78  1  0.49963550  0.48773511  -0.00732726  1
  V  V79  1  0.49698341  0.12419541  0.12618725  1
  V  V80  1  0.50157664  0.74902602  0.24931976  1
  V  V81  1  0.11783722  0.37293554  0.75192908  1
  V  V82  1  0.36817359  0.00374240  0.37270644  1
  V  V83  1  0.62813027  0.87139479  0.73803024  1
  V  V84  1  0.61659651  0.87861912  0.24993267  1
  Zn  Zn85  1  0.36720314  0.75387718  0.13223838  1
  Zn  Zn86  1  0.00942661  -0.02155840  0.01062178  1
  Zn  Zn87  1  0.00034416  0.12649809  0.62578709  1
  Zn  Zn88  1  0.61830648  0.50629994  0.62876362  1
  Zn  Zn89  1  0.19456812  0.84369582  0.18096821  1
  Zn  Zn90  1  0.90913100  -0.07941237  0.92266500  1
  Zn  Zn91  1  0.49439809  0.87835720  0.37779548  1
  Zn  Zn92  1  0.62479255  -0.00056856  0.12289719  1
  Zn  Zn93  1  0.12401384  0.12517480  -0.00203996  1
  Zn  Zn94  1  0.36243945  0.12396452  0.24079049  1
  Zn  Zn95  1  0.25456955  0.49362407  0.23159157  1
  Zn  Zn96  1  0.61795549  -0.00085772  0.62338513  1
  Zn  Zn97  1  0.78895276  0.65723457  0.33190765  1
  Zn  Zn98  1  0.24192977  0.75033428  0.50473864  1
  Zn  Zn99  1  0.88187774  0.36895847  -0.00319862  1
  Zn  Zn100  1  0.24855605  0.62411582  0.87501190  1
  Zn  Zn101  1  0.86960919  0.75710735  0.62760611  1
  Zn  Zn102  1  0.50360192  0.87400109  0.87324195  1
  Zn  Zn103  1  0.87812089  0.25304473  0.13211059  1
  Zn  Zn104  1  0.49704352  0.24985178  0.24721945  1
  Zn  Zn105  1  0.24409392  0.11963903  0.36968454  1
  Zn  Zn106  1  0.49221398  0.00767960  0.50844541  1
  Zn  Zn107  1  0.18833246  0.18860470  0.18477145  1
  Zn  Zn108  1  0.18804394  0.18443387  0.68862302  1
  Zn  Zn109  1  0.18299843  0.67218784  0.18994359  1
  Zn  Zn110  1  0.18157232  0.68663752  0.69007959  1
  Zn  Zn111  1  0.68329430  0.19007676  0.18630020  1
  Zn  Zn112  1  0.68873410  0.19160599  0.68698265  1
  Zn  Zn113  1  0.80194560  0.68753064  0.17912630  1
  Zn  Zn114  1  0.68879928  0.68461082  0.68180852  1
  Zn  Zn115  1  0.30759760  0.30441401  0.30599807  1
  Zn  Zn116  1  0.30995544  0.31260102  0.81177980  1
  Zn  Zn117  1  0.27486617  0.80185803  0.31056223  1
  Zn  Zn118  1  0.31113843  0.81281055  0.81539396  1
  Zn  Zn119  1  0.80886754  0.31832645  0.31180678  1
  Zn  Zn120  1  0.80757937  0.31288067  0.81327638  1
  Zn  Zn121  1  0.81138661  0.82240391  0.31422632  1
  Zn  Zn122  1  0.80852497  0.81005013  0.80359172  1
  Zn  Zn123  1  0.18412667  0.43835655  0.43633990  1
  Zn  Zn124  1  0.18619183  0.43956645  1.05964925  1
  Zn  Zn125  1  0.18931963  0.93760690  0.44462625  1
  Zn  Zn126  1  0.18674708  0.93965977  0.94745346  1
  Zn  Zn127  1  0.68552448  0.44150488  0.43709633  1
  Zn  Zn128  1  0.68985614  0.43685741  0.93699773  1
  Zn  Zn129  1  0.68278340  0.94139637  0.43632437  1
  Zn  Zn130  1  0.69833251  0.93648205  0.92975568  1
  Zn  Zn131  1  0.31348595  0.06489987  0.05877926  1
  Zn  Zn132  1  0.30751621  0.06202981  0.56226184  1
  Zn  Zn133  1  0.31900754  0.56677916  0.05773986  1
  Zn  Zn134  1  0.30794396  0.56333399  0.56418212  1
  Zn  Zn135  1  0.81338777  0.05912055  0.06808304  1
  Zn  Zn136  1  0.80893191  0.06503823  0.56180483  1
  Zn  Zn137  1  0.81827683  0.55862758  0.05649502  1
  Zn  Zn138  1  0.81692485  0.56699096  0.56298103  1
  Zn  Zn139  1  0.44328038  0.44067990  0.18490636  1
  Zn  Zn140  1  0.43788075  0.43465113  0.68608940  1
  Zn  Zn141  1  0.39730578  0.91428498  0.20817920  1
  Zn  Zn142  1  0.44149669  0.93347156  0.68349630  1
  Zn  Zn143  1  0.94058098  0.43551143  0.18530801  1
  Zn  Zn144  1  0.93689409  0.43851600  0.68759568  1
  Zn  Zn145  1  0.94583693  0.94732033  0.19714672  1
  Zn  Zn146  1  0.93434436  0.93561393  0.68167779  1
  Zn  Zn147  1  0.06373480  0.06182532  0.30899987  1
  Zn  Zn148  1  0.05959938  0.05602371  0.81513860  1
  Zn  Zn149  1  0.06073991  0.56095989  0.31227796  1
  Zn  Zn150  1  0.06808940  0.55911262  0.82331583  1
  Zn  Zn151  1  0.55305367  0.06198332  0.31783102  1
  Zn  Zn152  1  0.56272807  0.06031644  0.80936260  1
  Zn  Zn153  1  0.62241426  0.59881617  0.27508547  1
  Zn  Zn154  1  0.56376594  0.56568133  0.81314563  1
  Zn  Zn155  1  0.43486145  0.18989575  0.43483746  1
  Zn  Zn156  1  0.43660043  0.18864478  0.93696803  1
  Zn  Zn157  1  0.43453228  0.68850201  0.43631835  1
  Zn  Zn158  1  0.43653068  0.68332393  0.93280855  1
  Zn  Zn159  1  0.93896287  0.18686558  0.43673798  1
  Zn  Zn160  1  0.93036592  0.09788420  0.93471131  1
  Zn  Zn161  1  0.93723268  0.69113115  0.43178254  1
  Zn  Zn162  1  0.94371690  0.68316690  0.93711496  1
  Zn  Zn163  1  0.05921890  0.30273487  0.06123595  1
  Zn  Zn164  1  0.05843341  0.31247278  0.56214522  1
  Zn  Zn165  1  0.05110991  0.81318552  0.05652157  1
  Zn  Zn166  1  0.03522091  0.82404568  0.57333291  1
  Zn  Zn167  1  0.56179630  0.31032433  0.06147145  1
  Zn  Zn168  1  0.56110859  0.31579421  0.56500848  1
  Zn  Zn169  1  0.56899473  0.81429271  0.06201839  1
  Zn  Zn170  1  0.55667942  0.80760555  0.56220681  1
  O  O171  1  0.11416010  0.12295258  0.12499122  1
  O  O172  1  0.12469748  0.11855491  0.61695954  1
  O  O173  1  0.11688180  0.62600561  0.11017340  1
  O  O174  1  0.11510752  0.61550231  0.61970033  1
  O  O175  1  0.61632904  0.12500919  0.11561398  1
  O  O176  1  0.62766977  0.13253333  0.60960868  1
  O  O177  1  0.61609093  0.61350870  0.11379717  1
  O  O178  1  0.62312742  0.62371426  0.60705081  1
  O  O179  1  0.37814098  0.37753773  0.37827820  1
  O  O180  1  0.37778888  0.38881290  0.86258035  1
  O  O181  1  0.37069665  0.88627858  0.38719005  1
  O  O182  1  0.37916968  0.88182098  0.88155868  1
  O  O183  1  0.88234609  0.38198377  0.37839714  1
  O  O184  1  0.86756588  0.38478418  0.87885624  1
  O  O185  1  0.87006032  0.89568721  0.37804201  1
  O  O186  1  0.81143164  0.86579674  0.90323854  1
  O  O187  1  0.26346595  0.00215239  0.38302819  1
  O  O188  1  0.25345377  0.00698517  0.87006403  1
  O  O189  1  0.26212856  0.50487666  0.38081293  1
  O  O190  1  0.26089640  0.50004682  0.85940480  1
  O  O191  1  0.75258848  0.00829403  0.36771000  1
  O  O192  1  0.74306072  0.01580771  0.85855316  1
  O  O193  1  0.76607240  0.49079971  0.37433134  1
  O  O194  1  0.75693877  0.50400264  0.86772306  1
  O  O195  1  0.25514923  0.50145646  0.11931790  1
  O  O196  1  0.24404730  0.49337798  0.63510548  1
  O  O197  1  0.23571514  1.01069969  0.12164664  1
  O  O198  1  0.24168357  0.99219150  0.63109231  1
  O  O199  1  0.73795629  0.48983019  0.11178600  1
  O  O200  1  0.75034025  0.49819696  0.63257204  1
  O  O201  1  0.74491360  0.99895843  0.14065089  1
  O  O202  1  0.73999360  1.00771272  0.63469626  1
  O  O203  1  0.01238731  0.37877177  0.25833685  1
  O  O204  1  0.01056368  0.36800311  0.74385185  1
  O  O205  1  0.00107944  0.88496147  0.27411229  1
  O  O206  1  0.00163273  0.86848645  0.75906718  1
  O  O207  1  0.50646125  0.37494507  0.25837137  1
  O  O208  1  0.51253815  0.36888494  0.74716623  1
  O  O209  1  0.50034528  0.86770345  0.25228450  1
  O  O210  1  0.50602744  0.86015022  0.75389931  1
  O  O211  1  0.50142819  0.12719065  0.23484624  1
  O  O212  1  0.48863299  0.13220900  0.75319290  1
  O  O213  1  0.50887156  0.63117985  0.23850887  1
  O  O214  1  0.49356351  0.63533617  0.75088228  1
  O  O215  1  0.98980458  0.12324967  0.24259953  1
  O  O216  1  0.98905855  0.13225312  0.74697066  1
  O  O217  1  1.00792180  0.61864973  0.23095140  1
  O  O218  1  1.00026673  0.60988473  0.74216039  1
  O  O219  1  0.36953953  0.25025420  0.00800944  1
  O  O220  1  0.36762299  0.25517595  0.50524412  1
  O  O221  1  0.36626434  0.75460675  -0.00725155  1
  O  O222  1  0.37232917  0.75462010  0.51130861  1
  O  O223  1  0.85917254  0.24922380  -0.00122456  1
  O  O224  1  0.87036034  0.25680569  0.50494997  1
  O  O225  1  0.86340972  0.74250980  -0.00638981  1
  O  O226  1  0.85498247  0.74756441  0.49287219  1
  O  O227  1  0.12675589  0.24480262  0.49518013  1
  O  O228  1  0.13305098  0.24625595  0.99049335  1
  O  O229  1  0.11895731  0.73852884  0.51244781  1
  O  O230  1  0.12977378  0.74392244  0.99029073  1
  O  O231  1  0.62795343  0.24588855  0.49521649  1
  O  O232  1  0.62882621  0.24430467  0.99070349  1
  O  O233  1  0.63019940  0.74240885  0.49809103  1
  O  O234  1  0.64063035  0.75204870  0.98865345  1
  O  O235  1  0.48986712  0.24232998  0.12042753  1
  O  O236  1  0.49392874  0.25400996  0.63863190  1
  O  O237  1  0.50659414  0.74222393  0.13123290  1
  O  O238  1  0.48473135  0.75088957  0.63384559  1
  O  O239  1  0.99718380  0.23712314  0.13121703  1
  O  O240  1  0.99107125  0.24903696  0.63332995  1
  O  O241  1  1.00160020  0.73600086  0.12470554  1
  O  O242  1  1.01765731  0.73265595  0.65288314  1
  O  O243  1  0.00728784  0.26389108  0.38191413  1
  O  O244  1  0.00780029  0.24626487  0.86153628  1
  O  O245  1  0.00854688  0.76062076  0.37920598  1
  O  O246  1  0.00972271  0.74306259  0.86310632  1
  O  O247  1  0.50263729  0.26282978  0.37336508  1
  O  O248  1  0.51003377  0.24638545  0.86434773  1
  O  O249  1  0.50619923  0.75370957  0.37064530  1
  O  O250  1  0.51124809  0.74805308  0.86763312  1
  O  O251  1  0.23630490  0.13178503  0.49733832  1
  O  O252  1  0.25265083  0.13292684  0.98416039  1
  O  O253  1  0.23485504  0.62209918  0.49772253  1
  O  O254  1  0.24364490  0.63254046  0.99475210  1
  O  O255  1  0.74134278  0.13546859  0.49383526  1
  O  O256  1  0.74290525  0.12966598  0.99062074  1
  O  O257  1  0.73783040  0.62334007  0.49794127  1
  O  O258  1  0.74335498  0.61650653  0.98793407  1
  O  O259  1  0.24454965  0.36371703  -0.00665664  1
  O  O260  1  0.25426211  0.37211021  0.50604495  1
  O  O261  1  0.26190779  0.86554172  -0.00481841  1
  O  O262  1  0.25788201  0.87140347  0.51456202  1
  O  O263  1  0.74644121  0.36496191  0.00953304  1
  O  O264  1  0.75337265  0.37201782  0.50517974  1
  O  O265  1  0.73873083  0.88685347  0.02732537  1
  O  O266  1  0.74412407  0.86758455  0.50187982  1
  O  O267  1  0.12860535  0.48566393  0.25255886  1
  O  O268  1  0.13116059  0.49068713  0.74869283  1
  O  O269  1  0.12717972  1.00363380  0.23467101  1
  O  O270  1  0.13036050  1.00858222  0.73700604  1
  O  O271  1  0.61775679  0.48759488  0.23381263  1
  O  O272  1  0.62991608  0.49407792  0.74936724  1
  O  O273  1  0.62835940  0.99558826  0.25378078  1
  O  O274  1  0.63014894  0.98812629  0.74853240  1
  O  O275  1  0.38498523  0.00968974  0.26958690  1
  O  O276  1  0.37029966  0.00587700  0.75385011  1
  O  O277  1  0.37767873  0.50093650  0.25944252  1
  O  O278  1  0.37143992  0.50583828  0.74979148  1
  O  O279  1  0.86492316  0.01453688  0.25997088  1
  O  O280  1  0.86650876  0.00805815  0.73997675  1
  O  O281  1  0.87789288  0.49557140  0.26197287  1
  O  O282  1  0.86581422  0.49344743  0.75847126  1
  O  O283  1  0.11648489  0.37023264  0.37008442  1
  O  O284  1  0.12877847  0.35804408  0.86154320  1
  O  O285  1  0.13158533  0.87178619  0.37230057  1
  O  O286  1  0.13136039  0.86133751  0.87898894  1
  O  O287  1  0.61689544  0.37556104  0.36725524  1
  O  O288  1  0.63139097  0.36560424  0.86528535  1
  O  O289  1  0.61953477  0.87177856  0.36696632  1
  O  O290  1  0.63004594  0.86088998  0.86248980  1
  O  O291  1  0.38424209  0.13143173  0.12189573  1
  O  O292  1  0.36491320  0.13280669  0.63543701  1
  O  O293  1  0.39094270  0.62763308  0.13061908  1
  O  O294  1  0.36812023  0.63188598  0.63717537  1
  O  O295  1  0.88389103  0.12793678  0.13570910  1
  O  O296  1  0.87193255  0.13490064  0.63441137  1
  O  O297  1  0.88400439  0.62452692  0.12196635  1
  O  O298  1  0.89324458  0.63411420  0.62086801  1
  O  O299  1  0.26417690  0.24800961  0.11282028  1
  O  O300  1  0.25280388  0.25519319  0.61902267  1
  O  O301  1  0.25145048  0.74437649  0.10794636  1
  O  O302  1  0.25483978  0.75548843  0.62860667  1
  O  O303  1  0.74852547  0.25593267  0.11507838  1
  O  O304  1  0.75702446  0.25980145  0.62054839  1
  O  O305  1  0.75777939  0.77100882  0.10879394  1
  O  O306  1  0.75292078  0.74716565  0.60993540  1
  O  O307  1  0.23789383  0.25447034  0.38565540  1
  O  O308  1  0.24535442  0.24384035  0.87784086  1
  O  O309  1  0.26468351  0.72641335  0.39138611  1
  O  O310  1  0.23887740  0.74714335  0.87960806  1
  O  O311  1  0.74105792  0.25127514  0.38166273  1
  O  O312  1  0.73758499  0.24219625  0.87874037  1
  O  O313  1  0.73432738  0.75435016  0.38900004  1
  O  O314  1  0.74576939  0.73616511  0.87535915  1
  O  O315  1  0.00211197  0.13527424  0.01687328  1
  O  O316  1  0.01025048  0.12028756  0.50278553  1
  O  O317  1  0.00589115  0.61520774  0.00761206  1
  O  O318  1  0.00400367  0.61892011  0.50432693  1
  O  O319  1  0.50477748  0.11935435  0.00414325  1
  O  O320  1  0.51344608  0.13304331  0.49854239  1
  O  O321  1  0.50896400  0.62396068  0.00366595  1
  O  O322  1  0.50470767  0.61535228  0.49505156  1
  O  O323  1  0.49297811  0.37884956  0.49283061  1
  O  O324  1  0.50598622  0.38963556  0.99798925  1
  O  O325  1  0.48349179  0.87249716  0.50147424  1
  O  O326  1  0.50179971  0.88286927  0.99245078  1
  O  O327  1  0.99463678  0.38347665  0.49291399  1
  O  O328  1  1.00134636  0.38614976  1.00558006  1
  O  O329  1  1.01370536  0.89365684  0.47694208  1
  O  O330  1  0.98981663  0.86936042  0.98482002  1
  O  O331  1  0.48622014  0.48633061  0.38711135  1
  O  O332  1  0.49697464  0.50431838  0.88466740  1
  O  O333  1  0.48663968  0.99868293  0.38841480  1
  O  O334  1  0.49428209  1.00070353  0.88331413  1
  O  O335  1  0.99307999  0.49089625  0.38172485  1
  O  O336  1  0.99098451  0.50180370  0.88568458  1
  O  O337  1  0.99025066  1.00999516  0.38285344  1
  O  O338  1  0.98881828  1.00925304  0.88549125  1
  O  O339  1  0.00796167  0.01456800  0.12585680  1
  O  O340  1  0.00742270  0.00456902  0.61588256  1
  O  O341  1  -0.00542586  0.50613046  0.11089520  1
  O  O342  1  0.00202198  0.50861873  0.61857025  1
  O  O343  1  0.50266977  0.00873715  0.10830232  1
  O  O344  1  0.50390694  0.00036883  0.62143351  1
  O  O345  1  0.50707485  0.50588570  0.10993684  1
  O  O346  1  0.50095186  0.49198863  0.60937954  1
  O  O347  1  0.23301595  0.37684179  0.25460022  1
  O  O348  1  0.23921272  0.37865918  0.74354622  1
  O  O349  1  0.29349455  0.87211106  0.22847046  1
  O  O350  1  0.25380959  0.88110002  0.73975650  1
  O  O351  1  0.74059033  0.37158135  0.23458367  1
  O  O352  1  0.73974777  0.38416491  0.74543260  1
  O  O353  1  0.73899382  0.88551406  0.24451528  1
  O  O354  1  0.74310498  0.88348835  0.74384502  1
  O  O355  1  0.25221556  0.13962281  0.25965134  1
  O  O356  1  0.26023076  0.12162880  0.75932062  1
  O  O357  1  0.26027252  0.61196253  0.26055350  1
  O  O358  1  0.25488434  0.61511598  0.74969193  1
  O  O359  1  0.75002563  0.12126973  0.25567538  1
  O  O360  1  0.75298009  0.12100500  0.75285289  1
  O  O361  1  0.72680100  0.62537140  0.24369205  1
  O  O362  1  0.74430320  0.61206729  0.75631724  1
  O  O363  1  0.37171845  0.11334388  0.38049689  1
  O  O364  1  0.36953206  0.11885913  0.86675086  1
  O  O365  1  0.37336484  0.61254258  0.37029794  1
  O  O366  1  0.37272798  0.61641755  0.85988738  1
  O  O367  1  0.86624510  0.12362864  0.37070189  1
  O  O368  1  0.85949633  0.13724575  0.85574848  1
  O  O369  1  0.87663200  0.60424244  0.38500119  1
  O  O370  1  0.86629200  0.61261971  0.87772055  1
  O  O371  1  0.12182656  0.37084534  0.13506469  1
  O  O372  1  0.12759541  0.38042557  0.63061785  1
  O  O373  1  0.11958233  0.89312117  0.11632344  1
  O  O374  1  0.13035336  0.88525381  0.61908581  1
  O  O375  1  0.62829786  0.37979044  0.12935881  1
  O  O376  1  0.63258759  0.37925915  0.63284788  1
  O  O377  1  0.62641032  0.87805919  0.14179297  1
  O  O378  1  0.61985250  0.87051674  0.63559444  1
  O  O379  1  0.12569706  0.26131410  0.26044834  1
  O  O380  1  0.11715938  0.25486789  0.75122342  1
  O  O381  1  0.17588106  0.76050333  0.25553320  1
  O  O382  1  0.11775919  0.74565807  0.76710489  1
  O  O383  1  0.62041888  0.26328337  0.25455547  1
  O  O384  1  0.61819337  0.25673607  0.75466763  1
  O  O385  1  0.61294836  0.76041195  0.26273058  1
  O  O386  1  0.61995304  0.75083633  0.75221577  1
  O  O387  1  0.37834772  0.24938618  0.23371357  1
  O  O388  1  0.38214026  0.24354586  0.74725651  1
  O  O389  1  0.39177466  0.73632909  0.25062919  1
  O  O390  1  0.38111952  0.74260152  0.74766127  1
  O  O391  1  0.86528956  0.23766898  0.25242919  1
  O  O392  1  0.87942810  0.24813391  0.74488965  1
  O  O393  1  0.85403276  0.73297650  0.26965072  1
  O  O394  1  0.89234892  0.75394942  0.75023927  1
  O  O395  1  0.37929411  0.49572575  0.49644414  1
  O  O396  1  0.39198355  0.50741578  0.98688985  1
  O  O397  1  0.37204886  0.99263032  0.49754855  1
  O  O398  1  0.38189874  0.99241032  0.99361407  1
  O  O399  1  0.88522830  0.49373329  0.49955494  1
  O  O400  1  0.88804309  0.49341933  0.99069531  1
  O  O401  1  0.88589636  1.01237479  0.49400893  1
  O  O402  1  0.88126737  1.01175715  0.99522081  1
  O  O403  1  0.12350470  0.00967785  0.00955183  1
  O  O404  1  0.12062162  0.01010284  0.50820269  1
  O  O405  1  0.11139732  0.50485249  -0.00408799  1
  O  O406  1  0.11142690  0.50267614  0.50551249  1
  O  O407  1  0.61934578  0.00648261  -0.00486215  1
  O  O408  1  0.62505414  0.01922858  0.49946775  1
  O  O409  1  0.61596217  0.50509564  0.00024101  1
  O  O410  1  0.61691612  0.51202554  0.49762929  1
  O  O411  1  0.38367923  0.36250701  0.12356763  1
  O  O412  1  0.36771709  0.36635337  0.62090753  1
  O  O413  1  0.39369987  0.86654263  0.10319304  1
  O  O414  1  0.36509013  0.86488252  0.62307386  1
  O  O415  1  0.86620579  0.37141338  0.12183126  1
  O  O416  1  0.86896428  0.37121991  0.61915978  1
  O  O417  1  0.86323376  0.88703119  0.13932575  1
  O  O418  1  0.92632197  0.85305632  0.60829350  1
  O  O419  1  0.12093550  0.13519628  0.38207625  1
  O  O420  1  0.13422670  0.13622465  0.86983848  1
  O  O421  1  0.13279943  0.61542367  0.38547316  1
  O  O422  1  0.12714007  0.63126880  0.88826143  1
  O  O423  1  0.62761671  0.13461528  0.38146468  1
  O  O424  1  0.62930528  0.13350435  0.87584191  1
  O  O425  1  0.61934987  0.63801349  0.38807631  1
  O  O426  1  0.63364952  0.63466273  0.87735073  1
