# generated using pymatgen
data_V85Zn86O256
_symmetry_space_group_name_H-M   'P 1'
_cell_length_a   16.95046723
_cell_length_b   16.94002019
_cell_length_c   16.94331931
_cell_angle_alpha   90.05096004
_cell_angle_beta   89.98492750
_cell_angle_gamma   89.98746864
_symmetry_Int_Tables_number   1
_chemical_formula_structural   V85Zn86O256
_chemical_formula_sum   'V85 Zn86 O256'
_cell_volume   4865.12379847
_cell_formula_units_Z   1
loop_
 _symmetry_equiv_pos_site_id
 _symmetry_equiv_pos_as_xyz
  1  'x, y, z'
loop_
 _atom_site_type_symbol
 _atom_site_label
 _atom_site_symmetry_multiplicity
 _atom_site_fract_x
 _atom_site_fract_y
 _atom_site_fract_z
 _atom_site_occupancy
  V  V0  1  0.13134455  0.36792897  0.25034709  1
  V  V1  1  0.12742481  0.25164834  0.87207978  1
  V  V2  1  0.11968812  0.12137575  0.49559458  1
  V  V3  1  0.37314866  0.88048134  -0.00492433  1
  V  V4  1  0.62577972  0.25582279  0.86542627  1
  V  V5  1  0.49796753  0.25663499  0.74769208  1
  V  V6  1  0.24721923  0.13108433  0.37538816  1
  V  V7  1  0.12577086  0.74706975  0.38464343  1
  V  V8  1  0.12673219  0.37960771  0.73508458  1
  V  V9  1  0.74825770  -0.00974074  0.75459319  1
  V  V10  1  0.00226563  0.25070491  0.25217689  1
  V  V11  1  0.24320123  0.25389211  0.50117355  1
  V  V12  1  0.37769670  0.50256932  0.87918595  1
  V  V13  1  0.25173540  0.25764548  -0.00070402  1
  V  V14  1  0.25135479  0.75179644  0.51233185  1
  V  V15  1  0.87552213  0.37583509  0.00010180  1
  V  V16  1  0.01422365  0.50437644  0.50805389  1
  V  V17  1  0.62316346  0.12637114  -0.00093003  1
  V  V18  1  0.49703353  0.76703714  0.25178501  1
  V  V19  1  0.37266192  0.37422404  0.50259944  1
  V  V20  1  0.87570135  0.63304177  0.74792114  1
  V  V21  1  0.12481080  0.12247112  -0.00472198  1
  V  V22  1  0.88343801  -0.00071292  0.39080273  1
  V  V23  1  0.25397461  0.12426341  0.86091067  1
  V  V24  1  0.12538578  -0.00185456  0.11761572  1
  V  V25  1  0.37337744  -0.01100122  0.37568873  1
  V  V26  1  0.00476799  0.74649725  0.25053188  1
  V  V27  1  0.49952762  0.12513101  0.12738066  1
  V  V28  1  0.00334791  0.12718088  0.12026543  1
  V  V29  1  0.87918054  0.61841895  0.25315575  1
  V  V30  1  0.24910236  0.00084778  0.25014479  1
  V  V31  1  0.24926000  0.62573354  0.87213932  1
  V  V32  1  0.75038989  0.25104090  -0.00195368  1
  V  V33  1  0.61051546  0.51354496  0.62091298  1
  V  V34  1  0.00123074  0.49887740  0.00132850  1
  V  V35  1  0.87431218  0.50213319  0.87449816  1
  V  V36  1  -0.00202431  0.11105179  0.62182000  1
  V  V37  1  0.12416669  0.62544011  0.00049247  1
  V  V38  1  0.62323568  0.36961972  0.25272029  1
  V  V39  1  0.14556917  -0.00371857  0.62497867  1
  V  V40  1  0.37554323  0.12511232  0.25122469  1
  V  V41  1  0.12336417  0.88010926  0.74855855  1
  V  V42  1  0.74891103  0.86897742  0.62647264  1
  V  V43  1  0.50203823  0.38086930  0.87882563  1
  V  V44  1  0.00068385  0.25155000  0.74715367  1
  V  V45  1  0.13193218  0.49402179  0.12465101  1
  V  V46  1  0.37226855  0.25601154  0.12441712  1
  V  V47  1  0.49466805  0.62229575  0.11994142  1
  V  V48  1  0.24747167  0.49710994  0.73936685  1
  V  V49  1  0.49703235  0.12524329  0.63116675  1
  V  V50  1  0.24821883  0.75354569  -0.00389005  1
  V  V51  1  0.87737214  0.11250164  0.24642152  1
  V  V52  1  0.00578666  0.37142710  0.37673044  1
  V  V53  1  0.61875429  0.49669802  0.11747759  1
  V  V54  1  0.25541495  0.49443269  0.25145234  1
  V  V55  1  0.10388803  0.75765569  0.87098539  1
  V  V56  1  0.63200910  -0.00983049  0.12452628  1
  V  V57  1  0.87496741  0.50172722  0.37984985  1
  V  V58  1  0.75254888  0.12287546  0.87120997  1
  V  V59  1  0.89134707  -0.00773070  0.87845263  1
  V  V60  1  0.12692225  0.87340008  0.25092834  1
  V  V61  1  0.62521440  -0.00079101  0.63324000  1
  V  V62  1  0.49691780  0.36998848  0.38079954  1
  V  V63  1  0.74966942  0.12321390  0.37375420  1
  V  V64  1  0.87625460  0.25034969  0.62510058  1
  V  V65  1  0.36844387  0.25007127  0.62932216  1
  V  V66  1  0.36780704  0.87691036  0.52143226  1
  V  V67  1  0.01259990  0.62909892  0.62875755  1
  V  V68  1  0.74226104  0.74514778  0.49355392  1
  V  V69  1  0.87348907  0.37646290  0.50301254  1
  V  V70  1  0.61872201  0.62600052  -0.00177454  1
  V  V71  1  0.00182593  0.37594787  0.87319941  1
  V  V72  1  0.24715085  0.62194639  0.38207158  1
  V  V73  1  0.50876896  0.87620037  0.86851729  1
  V  V74  1  0.74739497  0.62775315  0.87564282  1
  V  V75  1  0.50407173  -0.00586231  0.49679621  1
  V  V76  1  0.50163669  0.74758931  0.73897295  1
  V  V77  1  0.85469259  0.75026287  0.13406247  1
  V  V78  1  0.74877051  0.37401027  0.12508913  1
  V  V79  1  0.87568110  0.24940237  0.12514646  1
  V  V80  1  0.74971665  0.49735585  0.25306544  1
  V  V81  1  0.73962385  0.37675693  0.63177588  1
  V  V82  1  0.37025409  0.00303381  0.85849502  1
  V  V83  1  0.37438216  0.62347446  0.24844291  1
  V  V84  1  0.42978543  0.54415139  0.43320631  1
  Zn  Zn85  1  0.74462976  0.49901230  0.75011820  1
  Zn  Zn86  1  0.74695840  0.24840968  0.49929150  1
  Zn  Zn87  1  0.87600166  0.87634168  0.00125769  1
  Zn  Zn88  1  0.25044259  0.87498590  0.12244737  1
  Zn  Zn89  1  0.49803708  0.00218080  -0.00479096  1
  Zn  Zn90  1  0.63950990  0.85029577  0.29681723  1
  Zn  Zn91  1  0.62294683  0.24263624  0.37572292  1
  Zn  Zn92  1  0.37441821  0.63350290  0.74274075  1
  Zn  Zn93  1  0.00557141  0.88172696  0.38292125  1
  Zn  Zn94  1  0.72749717  0.62002923  0.38944115  1
  Zn  Zn95  1  0.62525108  0.12620718  0.50091817  1
  Zn  Zn96  1  0.87767461  0.74874307  0.62613544  1
  Zn  Zn97  1  0.37172817  0.75193139  0.12148288  1
  Zn  Zn98  1  0.87598062  0.12229833  0.74863421  1
  Zn  Zn99  1  0.75737849  -0.01782477  0.24142677  1
  Zn  Zn100  1  0.37647398  0.38120309  0.00386040  1
  Zn  Zn101  1  0.49174471  0.63127529  0.60352509  1
  Zn  Zn102  1  0.88305062  0.87056040  0.50853756  1
  Zn  Zn103  1  0.49913519  0.24583440  0.25270749  1
  Zn  Zn104  1  0.62742405  0.75585349  0.87288184  1
  Zn  Zn105  1  0.74238387  0.75640761  0.00877275  1
  Zn  Zn106  1  0.00166043  0.62232136  0.12627849  1
  Zn  Zn107  1  0.19058103  0.18893767  0.18451949  1
  Zn  Zn108  1  0.18395718  0.18842191  0.68245129  1
  Zn  Zn109  1  0.18909250  0.68507467  0.18631060  1
  Zn  Zn110  1  0.18352173  0.69045615  0.69469588  1
  Zn  Zn111  1  0.68932669  0.18236593  0.18914068  1
  Zn  Zn112  1  0.68798561  0.18569107  0.68733214  1
  Zn  Zn113  1  0.67452388  0.67587661  0.21402374  1
  Zn  Zn114  1  0.68082916  0.68770170  0.68899923  1
  Zn  Zn115  1  0.31466909  0.31121359  0.31650828  1
  Zn  Zn116  1  0.31392415  0.31681954  0.81205921  1
  Zn  Zn117  1  0.31053354  0.80941870  0.31243151  1
  Zn  Zn118  1  0.31235853  0.81466297  0.80641147  1
  Zn  Zn119  1  0.81531911  0.30938725  0.31288762  1
  Zn  Zn120  1  0.81441152  0.31267539  0.81036621  1
  Zn  Zn121  1  0.81871345  0.81238392  0.31588131  1
  Zn  Zn122  1  0.81557713  0.81302867  0.81773111  1
  Zn  Zn123  1  0.19079688  0.43626736  0.43486521  1
  Zn  Zn124  1  0.18843648  0.43769328  0.93235560  1
  Zn  Zn125  1  0.18766355  0.93781360  0.43999378  1
  Zn  Zn126  1  0.18633704  0.93773575  0.92986445  1
  Zn  Zn127  1  0.68561587  0.43474211  0.44232104  1
  Zn  Zn128  1  0.68671555  0.43900695  0.93594733  1
  Zn  Zn129  1  0.69603232  0.93857753  0.44310441  1
  Zn  Zn130  1  0.69441810  0.93694276  0.94628948  1
  Zn  Zn131  1  0.30963563  0.06632345  0.05701381  1
  Zn  Zn132  1  0.31599435  0.06898293  0.56065970  1
  Zn  Zn133  1  0.30918938  0.56145537  0.06058271  1
  Zn  Zn134  1  0.30694704  0.57057535  0.57018434  1
  Zn  Zn135  1  0.81231835  0.06185694  0.05829081  1
  Zn  Zn136  1  0.80840109  0.06337755  0.56489378  1
  Zn  Zn137  1  0.80906005  0.56636885  0.06548774  1
  Zn  Zn138  1  0.81090838  0.56425636  0.56460471  1
  Zn  Zn139  1  0.43967986  0.43613150  0.19041192  1
  Zn  Zn140  1  0.43401112  0.43878701  0.68918433  1
  Zn  Zn141  1  0.43353356  0.94429049  0.17780594  1
  Zn  Zn142  1  0.44129247  0.93644353  0.69042482  1
  Zn  Zn143  1  0.94184767  0.43631459  0.18732659  1
  Zn  Zn144  1  0.93553891  0.44268087  0.68840461  1
  Zn  Zn145  1  0.95612918  0.91974775  0.15633740  1
  Zn  Zn146  1  0.93709541  0.93163677  0.69627427  1
  Zn  Zn147  1  0.06312084  0.06312896  0.30901496  1
  Zn  Zn148  1  0.06690104  0.06432070  0.80395608  1
  Zn  Zn149  1  0.06630183  0.55811288  0.31668808  1
  Zn  Zn150  1  0.06351782  0.56533687  0.81079369  1
  Zn  Zn151  1  0.58001155  0.02455345  0.32890424  1
  Zn  Zn152  1  0.56064737  0.06551060  0.81091095  1
  Zn  Zn153  1  0.56094097  0.56055411  0.30369724  1
  Zn  Zn154  1  0.56471820  0.56113406  0.80389902  1
  Zn  Zn155  1  0.43697383  0.18341702  0.44087180  1
  Zn  Zn156  1  0.43664929  0.18814628  0.93473610  1
  Zn  Zn157  1  0.43610737  0.71118896  0.43190608  1
  Zn  Zn158  1  0.43656431  0.69113626  0.93212540  1
  Zn  Zn159  1  0.93711429  0.18751503  0.43723093  1
  Zn  Zn160  1  0.93901957  0.18574173  0.93537013  1
  Zn  Zn161  1  0.93671969  0.69059706  0.44432333  1
  Zn  Zn162  1  0.93094992  0.68507291  0.94756368  1
  Zn  Zn163  1  0.06620058  0.31270982  0.06253376  1
  Zn  Zn164  1  0.06075363  0.30948066  0.55932519  1
  Zn  Zn165  1  0.05809882  0.81222522  0.05961676  1
  Zn  Zn166  1  0.06214646  0.81706359  0.56537584  1
  Zn  Zn167  1  0.55971211  0.30932727  0.05903006  1
  Zn  Zn168  1  0.56195865  0.31057364  0.55823978  1
  Zn  Zn169  1  0.55518681  0.80857928  0.05934077  1
  Zn  Zn170  1  0.56702240  0.81797220  0.56056168  1
  O  O171  1  0.12450344  0.12132764  0.11424382  1
  O  O172  1  0.11804624  0.11411716  0.61917093  1
  O  O173  1  0.12484380  0.61497044  0.11855522  1
  O  O174  1  0.11116807  0.62167142  0.63306909  1
  O  O175  1  0.61763091  0.12545073  0.11515792  1
  O  O176  1  0.61719036  0.11889773  0.62456809  1
  O  O177  1  0.61503537  0.61528050  0.12056233  1
  O  O178  1  0.61193134  0.61823992  0.62127786  1
  O  O179  1  0.38323357  0.37203323  0.38730432  1
  O  O180  1  0.38323716  0.38372387  0.87734776  1
  O  O181  1  0.36904290  0.88723274  0.37759698  1
  O  O182  1  0.37909213  0.88779644  0.87575389  1
  O  O183  1  0.88071269  0.38313845  0.38231152  1
  O  O184  1  0.88050495  0.38117126  0.88026206  1
  O  O185  1  0.88064785  0.89299707  0.37432171  1
  O  O186  1  0.88304136  0.88783002  0.87506325  1
  O  O187  1  0.25544710  0.00909479  0.37055288  1
  O  O188  1  0.26191673  0.00792382  0.87450679  1
  O  O189  1  0.24416479  0.51003158  0.36390076  1
  O  O190  1  0.25372034  0.51226012  0.87140619  1
  O  O191  1  0.76862325  0.01018045  0.37138906  1
  O  O192  1  0.75156566  0.00782114  0.86856966  1
  O  O193  1  0.75732621  0.49941481  0.37238969  1
  O  O194  1  0.75583630  0.50986871  0.87497968  1
  O  O195  1  0.23969147  0.50199536  0.13327059  1
  O  O196  1  0.24719004  0.50049195  0.64075108  1
  O  O197  1  0.24026984  1.00350413  0.13117861  1
  O  O198  1  0.24314221  1.00742610  0.62581243  1
  O  O199  1  0.74251582  0.49178822  0.13124917  1
  O  O200  1  0.74984218  0.48546766  0.62595371  1
  O  O201  1  0.73706514  1.00394015  0.12192664  1
  O  O202  1  0.74399969  0.99585818  0.63446001  1
  O  O203  1  0.00802645  0.37090010  0.25842819  1
  O  O204  1  0.00570080  0.37283641  0.75401936  1
  O  O205  1  0.01399903  0.86563499  0.25146134  1
  O  O206  1  0.02000290  0.87015510  0.74100415  1
  O  O207  1  0.50624669  0.37047116  0.26083092  1
  O  O208  1  0.49640023  0.36315675  0.75895891  1
  O  O209  1  0.48410566  0.86627633  0.24312979  1
  O  O210  1  0.49996352  0.86869570  0.76184773  1
  O  O211  1  0.49177209  0.12550674  0.23935045  1
  O  O212  1  0.50202059  0.13748384  0.73962923  1
  O  O213  1  0.48432877  0.62710296  0.24017142  1
  O  O214  1  0.49752694  0.64164303  0.75508338  1
  O  O215  1  0.99596713  0.13400916  0.24393510  1
  O  O216  1  1.00016254  0.13465207  0.73813944  1
  O  O217  1  0.99448809  0.62525223  0.25273360  1
  O  O218  1  0.99155863  0.61514840  0.73654637  1
  O  O219  1  0.36734143  0.24936693  0.00596400  1
  O  O220  1  0.36596253  0.25499751  0.50755493  1
  O  O221  1  0.36545411  0.76254187  -0.00539259  1
  O  O222  1  0.36803101  0.76967257  0.49974237  1
  O  O223  1  0.87064323  0.25486208  0.00471813  1
  O  O224  1  0.87580587  0.26159585  0.50649347  1
  O  O225  1  0.87111714  0.74380753  0.02621677  1
  O  O226  1  0.86364783  0.75030641  0.50763110  1
  O  O227  1  0.13547967  0.23979997  0.50566107  1
  O  O228  1  0.13292902  0.24558666  0.99273045  1
  O  O229  1  0.13388232  0.75682681  0.48881798  1
  O  O230  1  0.12867525  0.74897247  0.99113821  1
  O  O231  1  0.62872434  0.24450565  0.49419788  1
  O  O232  1  0.62933385  0.24160544  0.98960959  1
  O  O233  1  0.64193653  0.75943216  0.49745441  1
  O  O234  1  0.62457351  0.74032096  0.99597363  1
  O  O235  1  0.49341948  0.23883413  0.12485327  1
  O  O236  1  0.49429083  0.24551603  0.63065912  1
  O  O237  1  0.49140846  0.73693827  0.12786539  1
  O  O238  1  0.50555035  0.75309866  0.63526548  1
  O  O239  1  0.99645078  0.24537446  0.12972389  1
  O  O240  1  0.98908456  0.24486791  0.62670530  1
  O  O241  1  1.00237040  0.74291430  0.14298423  1
  O  O242  1  1.00034296  0.73200445  0.61900543  1
  O  O243  1  -0.00617735  0.26417640  0.37074151  1
  O  O244  1  0.00568379  0.25528280  0.86733105  1
  O  O245  1  0.00898572  0.74559144  0.36612410  1
  O  O246  1  0.00668861  0.74754841  0.88552141  1
  O  O247  1  0.50074285  0.25494600  0.37296479  1
  O  O248  1  0.50628010  0.25398872  0.86632240  1
  O  O249  1  0.50021298  0.75404530  0.35144509  1
  O  O250  1  0.50196051  0.76643287  0.87225012  1
  O  O251  1  0.24178315  0.13156415  0.49315477  1
  O  O252  1  0.24034519  0.13510191  0.98971757  1
  O  O253  1  0.25612831  0.63291349  0.48756967  1
  O  O254  1  0.24314289  0.63178385  0.99187601  1
  O  O255  1  0.75043277  0.12687303  0.48951137  1
  O  O256  1  0.74347113  0.13297629  0.99144743  1
  O  O257  1  0.74855844  0.63720076  0.50158111  1
  O  O258  1  0.73727930  0.62682448  0.99493787  1
  O  O259  1  0.25205193  0.36163351  -0.00663294  1
  O  O260  1  0.25682805  0.36332486  0.49282507  1
  O  O261  1  0.25396982  0.86825998  -0.00431231  1
  O  O262  1  0.26117081  0.86962411  0.49978317  1
  O  O263  1  0.75558788  0.36941581  0.00415314  1
  O  O264  1  0.75978811  0.37103234  0.51011176  1
  O  O265  1  0.76240955  0.86712010  -0.00297380  1
  O  O266  1  0.75828255  0.86806375  0.50963762  1
  O  O267  1  0.13312624  0.49111797  0.24334343  1
  O  O268  1  0.13803312  0.49258880  0.75858895  1
  O  O269  1  0.13169462  0.99184193  0.24524819  1
  O  O270  1  0.12729244  0.99443555  0.73660878  1
  O  O271  1  0.62773420  0.48319343  0.23675578  1
  O  O272  1  0.62936577  0.50141742  0.72933853  1
  O  O273  1  0.62804827  1.00660452  0.22671778  1
  O  O274  1  0.63207378  1.00515795  0.74159614  1
  O  O275  1  0.36821022  0.00560797  0.25590375  1
  O  O276  1  0.37470139  0.00089651  0.76000141  1
  O  O277  1  0.36270929  0.50443334  0.24405671  1
  O  O278  1  0.36012375  0.49736753  0.76042247  1
  O  O279  1  0.87888941  0.00991681  0.24203574  1
  O  O280  1  0.86713138  0.00236222  0.76246266  1
  O  O281  1  0.87475327  0.49928042  0.26022342  1
  O  O282  1  0.87206643  0.50784696  0.76174235  1
  O  O283  1  0.11573151  0.37859328  0.36507594  1
  O  O284  1  0.11828867  0.36870952  0.86856727  1
  O  O285  1  0.12641635  0.86829349  0.36692337  1
  O  O286  1  0.11984058  0.86460383  0.87087959  1
  O  O287  1  0.61837308  0.37338098  0.36759569  1
  O  O288  1  0.61896386  0.36617511  0.87759739  1
  O  O289  1  0.60820498  0.92021339  0.37667701  1
  O  O290  1  0.60984352  0.88253381  0.88155545  1
  O  O291  1  0.38129794  0.13092106  0.12737889  1
  O  O292  1  0.38424898  0.13729414  0.62168878  1
  O  O293  1  0.37832624  0.62438069  0.12927740  1
  O  O294  1  0.38335747  0.62050194  0.63076884  1
  O  O295  1  0.88181073  0.12925731  0.12755972  1
  O  O296  1  0.88086416  0.13303321  0.62415335  1
  O  O297  1  0.88206659  0.62718962  0.13618062  1
  O  O298  1  0.88192013  0.62232540  0.63538804  1
  O  O299  1  0.26083288  0.24453657  0.11305883  1
  O  O300  1  0.25818466  0.24542800  0.61559748  1
  O  O301  1  0.24939792  0.74926587  0.10847537  1
  O  O302  1  0.24190150  0.73991180  0.61088328  1
  O  O303  1  0.75481007  0.25469731  0.11883488  1
  O  O304  1  0.76125715  0.25729905  0.62605454  1
  O  O305  1  0.75486802  0.73286815  0.13584724  1
  O  O306  1  0.74789446  0.75599759  0.62076935  1
  O  O307  1  0.25237516  0.23795025  0.38346450  1
  O  O308  1  0.24787393  0.24456124  0.87948733  1
  O  O309  1  0.24451688  0.74167145  0.38133891  1
  O  O310  1  0.24526744  0.74067861  0.88241930  1
  O  O311  1  0.75283701  0.23493891  0.37393296  1
  O  O312  1  0.74356927  0.24560375  0.87620527  1
  O  O313  1  0.75781522  0.74560411  0.39050238  1
  O  O314  1  0.74837777  0.73745100  0.87658614  1
  O  O315  1  0.01659059  0.13299204  0.00338592  1
  O  O316  1  0.01200199  0.13221738  0.50663680  1
  O  O317  1  0.00707899  0.61550796  0.00257032  1
  O  O318  1  -0.00284366  0.61110340  0.51120889  1
  O  O319  1  0.50852128  0.12587639  0.00321190  1
  O  O320  1  0.49888789  0.11400642  0.51352730  1
  O  O321  1  0.50867583  0.62832939  0.00431989  1
  O  O322  1  0.48517150  0.61953631  0.48363266  1
  O  O323  1  0.49236086  0.37310674  0.48865865  1
  O  O324  1  0.49729614  0.36911609  0.98363155  1
  O  O325  1  0.48556935  0.88749589  0.51002485  1
  O  O326  1  0.48912658  0.87777326  0.98691457  1
  O  O327  1  0.99457333  0.38261728  0.49534563  1
  O  O328  1  0.99520355  0.37908323  0.99459204  1
  O  O329  1  0.99531775  0.87022627  0.49508044  1
  O  O330  1  0.97977358  0.88803969  1.04462270  1
  O  O331  1  0.49744008  0.49207192  0.37043596  1
  O  O332  1  0.49151416  0.49209431  0.86471415  1
  O  O333  1  0.48290225  1.01655002  0.39070301  1
  O  O334  1  0.48964237  0.99438422  0.87282037  1
  O  O335  1  0.99480744  0.49154666  0.38596787  1
  O  O336  1  0.99496468  0.49577892  0.88137707  1
  O  O337  1  0.98596526  1.00402226  0.36961296  1
  O  O338  1  0.98831375  1.01162948  0.86970760  1
  O  O339  1  0.02012609  0.01532072  0.13639554  1
  O  O340  1  -0.00141071  0.01070812  0.63027062  1
  O  O341  1  0.01232592  0.49827057  0.11915867  1
  O  O342  1  -0.00208454  0.50450159  0.61273091  1
  O  O343  1  0.50580478  0.01301039  0.11718903  1
  O  O344  1  0.50637338  0.00670477  0.62465702  1
  O  O345  1  0.50565004  0.51001810  0.12847058  1
  O  O346  1  0.50854770  0.49889985  0.62554515  1
  O  O347  1  0.24351448  0.38207112  0.25825583  1
  O  O348  1  0.24120360  0.38825491  0.75536118  1
  O  O349  1  0.24094467  0.87825388  0.24718409  1
  O  O350  1  0.22564748  0.85886916  0.75153870  1
  O  O351  1  0.74378339  0.37744686  0.24641312  1
  O  O352  1  0.75572410  0.37645772  0.73541399  1
  O  O353  1  0.74295721  0.87211109  0.26124298  1
  O  O354  1  0.75138739  0.88472594  0.74875543  1
  O  O355  1  0.25307397  0.12174431  0.25778949  1
  O  O356  1  0.24488583  0.13285274  0.76220943  1
  O  O357  1  0.26030844  0.62054261  0.25671150  1
  O  O358  1  0.24919878  0.61642293  0.75752237  1
  O  O359  1  0.76261196  0.12116193  0.25475484  1
  O  O360  1  0.75181741  0.11553678  0.75671271  1
  O  O361  1  0.77227712  0.61032589  0.24397511  1
  O  O362  1  0.75573471  0.62245513  0.75796333  1
  O  O363  1  0.36400308  0.11899116  0.37181873  1
  O  O364  1  0.36910052  0.11168140  0.87835095  1
  O  O365  1  0.37279005  0.61906083  0.36909350  1
  O  O366  1  0.36598646  0.62022436  0.87083242  1
  O  O367  1  0.87458975  0.11644254  0.36651771  1
  O  O368  1  0.86258487  0.12349143  0.87306469  1
  O  O369  1  0.87881251  0.61024871  0.37257430  1
  O  O370  1  0.86792074  0.62033956  0.87272723  1
  O  O371  1  0.12324213  0.38251829  0.13549431  1
  O  O372  1  0.11935898  0.37173199  0.63602553  1
  O  O373  1  0.12984957  0.88333515  0.13096623  1
  O  O374  1  0.12791431  0.89101909  0.62853481  1
  O  O375  1  0.62650657  0.37728372  0.12839331  1
  O  O376  1  0.63930057  0.36940163  0.62444107  1
  O  O377  1  0.61584826  0.89289941  0.11107364  1
  O  O378  1  0.63833044  0.88615159  0.62421217  1
  O  O379  1  0.12228206  0.26117902  0.24468385  1
  O  O380  1  0.12041399  0.25868714  0.75304167  1
  O  O381  1  0.12378772  0.75471546  0.25699086  1
  O  O382  1  0.11783430  0.74964235  0.76818754  1
  O  O383  1  0.62483641  0.25968410  0.25000678  1
  O  O384  1  0.61837690  0.24649573  0.75997975  1
  O  O385  1  0.60141664  0.76513404  0.23118503  1
  O  O386  1  0.60949804  0.74924394  0.75706303  1
  O  O387  1  0.37324998  0.24293225  0.24139899  1
  O  O388  1  0.38060675  0.25674185  0.73787581  1
  O  O389  1  0.37792541  0.74109823  0.24490733  1
  O  O390  1  0.39407088  0.75258921  0.75697840  1
  O  O391  1  0.88246283  0.24281604  0.24213045  1
  O  O392  1  0.88204037  0.24777910  0.74155484  1
  O  O393  1  0.88442975  0.73607426  0.25032174  1
  O  O394  1  0.87359428  0.73664224  0.75053612  1
  O  O395  1  0.36474463  0.49192925  0.49793609  1
  O  O396  1  0.36858507  0.49895766  0.98486386  1
  O  O397  1  0.37620797  0.99094054  0.49575785  1
  O  O398  1  0.37335777  0.99147280  0.99205263  1
  O  O399  1  0.88042405  0.49086467  0.49644028  1
  O  O400  1  0.87891277  0.49661129  0.99464068  1
  O  O401  1  0.87654753  1.00210952  0.49176574  1
  O  O402  1  0.87300286  1.00555368  0.98057509  1
  O  O403  1  0.13266663  0.00910045  0.00594468  1
  O  O404  1  0.12994021  0.00821929  0.51331297  1
  O  O405  1  0.12363608  0.50190948  0.00723000  1
  O  O406  1  0.11205869  0.49553947  0.49720722  1
  O  O407  1  0.62478083  0.01444362  0.00461092  1
  O  O408  1  0.61727810  0.00371324  0.51533554  1
  O  O409  1  0.62780299  0.50406833  0.01244747  1
  O  O410  1  0.63044671  0.49309252  0.52253646  1
  O  O411  1  0.38404880  0.36058300  0.12257612  1
  O  O412  1  0.38128082  0.36689660  0.61085079  1
  O  O413  1  0.36922485  0.87542434  0.11031391  1
  O  O414  1  0.36813741  0.88240239  0.61953690  1
  O  O415  1  0.87020411  0.37029510  0.11992908  1
  O  O416  1  0.87147716  0.36945789  0.61897453  1
  O  O417  1  0.86374155  0.84979633  0.14840028  1
  O  O418  1  0.86141704  0.87363344  0.63082426  1
  O  O419  1  0.13260572  0.11747357  0.38459561  1
  O  O420  1  0.13146364  0.13051076  0.87812306  1
  O  O421  1  0.13600102  0.63416896  0.36934710  1
  O  O422  1  0.12928317  0.63506800  0.88067825  1
  O  O423  1  0.63765220  0.11844154  0.37364193  1
  O  O424  1  0.63413019  0.13128891  0.87942320  1
  O  O425  1  0.64302708  0.63060895  0.31866413  1
  O  O426  1  0.63099097  0.62078639  0.88355181  1
