# generated using pymatgen
data_V85Zn86O256
_symmetry_space_group_name_H-M   'P 1'
_cell_length_a   16.91957707
_cell_length_b   16.91820075
_cell_length_c   16.91945314
_cell_angle_alpha   89.97904851
_cell_angle_beta   90.01137673
_cell_angle_gamma   90.04478653
_symmetry_Int_Tables_number   1
_chemical_formula_structural   V85Zn86O256
_chemical_formula_sum   'V85 Zn86 O256'
_cell_volume   4843.17128362
_cell_formula_units_Z   1
loop_
 _symmetry_equiv_pos_site_id
 _symmetry_equiv_pos_as_xyz
  1  'x, y, z'
loop_
 _atom_site_type_symbol
 _atom_site_label
 _atom_site_symmetry_multiplicity
 _atom_site_fract_x
 _atom_site_fract_y
 _atom_site_fract_z
 _atom_site_occupancy
  V  V0  1  0.12557314  -0.00015927  0.62394110  1
  V  V1  1  0.74851715  0.62575342  0.37452280  1
  V  V2  1  0.37417165  0.50368093  0.87658027  1
  V  V3  1  0.62175241  0.37688518  0.24932623  1
  V  V4  1  0.74928911  0.88162227  0.12777687  1
  V  V5  1  0.00199346  0.62760014  0.62450969  1
  V  V6  1  0.87550005  0.75860053  0.61772987  1
  V  V7  1  0.24849916  -0.01420832  0.24842982  1
  V  V8  1  0.12585935  0.62462939  0.49227164  1
  V  V9  1  0.39373225  0.64518618  0.77127483  1
  V  V10  1  0.62576808  0.25268885  0.87326693  1
  V  V11  1  0.12386664  0.37425680  0.24965299  1
  V  V12  1  0.12754627  -0.01166496  0.12817301  1
  V  V13  1  0.49932648  0.75372204  0.23644170  1
  V  V14  1  0.87617715  0.62912871  0.75393864  1
  V  V15  1  0.00371293  0.49787777  0.00086565  1
  V  V16  1  0.61329084  0.12646801  0.00346252  1
  V  V17  1  0.12415753  0.12443697  0.50062183  1
  V  V18  1  0.50302507  0.62903280  0.62315879  1
  V  V19  1  0.50112059  0.25367932  0.74933286  1
  V  V20  1  -0.00798422  0.49746352  0.49949047  1
  V  V21  1  0.37487342  0.12517958  0.75216756  1
  V  V22  1  0.00353649  0.62026491  0.12697742  1
  V  V23  1  0.00312288  0.75711648  0.24925084  1
  V  V24  1  0.12414576  0.12360885  -0.00058328  1
  V  V25  1  0.75452344  0.75682459  0.49839854  1
  V  V26  1  0.30882783  0.56674313  0.42098901  1
  V  V27  1  0.86086819  -0.00420065  0.37533738  1
  V  V28  1  0.12716671  0.87172268  0.75299980  1
  V  V29  1  0.00433292  0.87380470  0.87758187  1
  V  V30  1  0.51302153  0.12194985  0.62201277  1
  V  V31  1  0.63091273  0.61555158  0.00923818  1
  V  V32  1  0.36522612  0.85072246  0.03566169  1
  V  V33  1  0.12448637  0.50061933  0.62675011  1
  V  V34  1  0.49063692  0.37987594  0.38099903  1
  V  V35  1  0.48938569  -0.00083561  0.00290337  1
  V  V36  1  0.74901639  0.63156924  0.87522285  1
  V  V37  1  0.37826598  0.25717670  0.61627062  1
  V  V38  1  0.86157709  0.11786391  0.25217463  1
  V  V39  1  0.74691015  0.11846245  0.86858940  1
  V  V40  1  0.37053525  0.62912325  0.24307864  1
  V  V41  1  0.37718126  0.37707735  -0.00072249  1
  V  V42  1  0.87412570  0.37331517  -0.00062520  1
  V  V43  1  0.62712730  0.23922787  0.38315656  1
  V  V44  1  0.88083131  0.26028643  0.63210284  1
  V  V45  1  0.62291428  0.00316823  0.12656584  1
  V  V46  1  0.13327770  0.75371884  0.36391892  1
  V  V47  1  0.00100990  0.87632597  0.38321364  1
  V  V48  1  0.86985690  -0.00286022  0.86751137  1
  V  V49  1  0.87553853  0.87389296  -0.00114616  1
  V  V50  1  0.75185141  0.89244167  0.62545285  1
  V  V51  1  0.25136382  0.50457532  0.24897482  1
  V  V52  1  0.38180432  0.75661261  0.62764111  1
  V  V53  1  0.74560528  0.75356275  0.00042855  1
  V  V54  1  0.12373631  0.24721611  0.37476376  1
  V  V55  1  0.62498990  0.50070467  0.61793893  1
  V  V56  1  0.62492430  0.75312733  0.37307062  1
  V  V57  1  0.24982895  0.37357912  0.12607236  1
  V  V58  1  -0.00184458  0.12444444  0.12559043  1
  V  V59  1  0.24971988  0.12337686  0.37408734  1
  V  V60  1  0.24841296  0.25033021  -0.00530055  1
  V  V61  1  0.37629459  -0.01628478  0.87524726  1
  V  V62  1  0.74559381  0.50318995  0.74743221  1
  V  V63  1  0.12715716  0.36933170  0.74857259  1
  V  V64  1  0.87576566  0.62475479  0.25225992  1
  V  V65  1  0.49703200  0.87633189  0.37792199  1
  V  V66  1  -0.00912229  0.37277505  0.37829824  1
  V  V67  1  -0.00156721  0.12685191  0.63222085  1
  V  V68  1  0.17848352  0.68623331  0.95448237  1
  V  V69  1  0.25587623  0.87726589  0.62332830  1
  V  V70  1  0.25677596  0.75665506  0.49550386  1
  V  V71  1  -0.00051270  0.36797346  0.86878272  1
  V  V72  1  0.00290642  0.75142036  0.74725953  1
  V  V73  1  0.37720871  0.24596770  0.12474160  1
  V  V74  1  0.37454497  -0.00099522  0.38723315  1
  V  V75  1  0.25030236  0.51197057  0.75538340  1
  V  V76  1  0.74728121  0.24964235  -0.00053221  1
  V  V77  1  0.37608175  0.12022553  0.24496813  1
  V  V78  1  0.74583615  0.38029040  0.12414079  1
  V  V79  1  0.74423102  0.50139977  0.24906555  1
  V  V80  1  0.50032412  0.24534017  0.24757030  1
  V  V81  1  0.76263225  0.24823880  0.49507310  1
  V  V82  1  -0.00145772  0.24721680  0.25057560  1
  V  V83  1  0.50576238  0.61447744  0.12924482  1
  V  V84  1  0.51798114  0.00051035  0.50570560  1
  Zn  Zn85  1  0.25668450  0.25530949  0.49580245  1
  Zn  Zn86  1  0.87410602  0.12548069  0.74924615  1
  Zn  Zn87  1  0.87647264  0.50193156  0.87360133  1
  Zn  Zn88  1  0.25167449  -0.00052839  0.75151523  1
  Zn  Zn89  1  0.75388134  0.37974615  0.61695231  1
  Zn  Zn90  1  0.62795879  0.88209423  0.24930755  1
  Zn  Zn91  1  0.00121096  -0.00264010  0.00003824  1
  Zn  Zn92  1  0.11963388  0.24388207  0.86771957  1
  Zn  Zn93  1  0.25792940  0.38028174  0.61945340  1
  Zn  Zn94  1  0.50354781  0.38196790  0.87384924  1
  Zn  Zn95  1  0.62861089  0.37656558  0.74758722  1
  Zn  Zn96  1  0.12848624  0.49903895  0.12008295  1
  Zn  Zn97  1  0.87836040  0.75293260  0.12518394  1
  Zn  Zn98  1  0.24936309  0.12224465  0.87304918  1
  Zn  Zn99  1  0.62442106  0.62613926  0.49822270  1
  Zn  Zn100  1  -0.00765696  -0.00237043  0.50071698  1
  Zn  Zn101  1  0.54646967  0.79164417  0.83097338  1
  Zn  Zn102  1  0.62374914  0.88534126  0.73655886  1
  Zn  Zn103  1  0.50500770  0.49788094  0.00407905  1
  Zn  Zn104  1  0.86879249  0.49371658  0.37979493  1
  Zn  Zn105  1  0.48497915  0.49976015  0.49703160  1
  Zn  Zn106  1  0.87106477  0.24674728  0.12651834  1
  Zn  Zn107  1  0.18875671  0.18314030  0.18629488  1
  Zn  Zn108  1  0.19223468  0.18815064  0.68498473  1
  Zn  Zn109  1  0.19340012  0.68932879  0.16879780  1
  Zn  Zn110  1  0.19154622  0.68956476  0.68973328  1
  Zn  Zn111  1  0.68434333  0.18998406  0.18530724  1
  Zn  Zn112  1  0.69322693  0.18958534  0.68417903  1
  Zn  Zn113  1  0.68662872  0.69305033  0.18463662  1
  Zn  Zn114  1  0.68222154  0.69863026  0.69089521  1
  Zn  Zn115  1  0.31170077  0.31126032  0.31254384  1
  Zn  Zn116  1  0.31193518  0.31689522  0.81013908  1
  Zn  Zn117  1  0.31828866  0.81262558  0.30925872  1
  Zn  Zn118  1  0.29929275  0.80618607  0.82429010  1
  Zn  Zn119  1  0.81020534  0.30730444  0.31054173  1
  Zn  Zn120  1  0.81085168  0.31481697  0.80991664  1
  Zn  Zn121  1  0.81472023  0.81603844  0.30956682  1
  Zn  Zn122  1  0.80410951  0.81195791  0.80811153  1
  Zn  Zn123  1  0.17939238  0.42898297  0.44241216  1
  Zn  Zn124  1  0.18698681  0.43998254  0.93462055  1
  Zn  Zn125  1  0.18630165  0.93607975  0.43643461  1
  Zn  Zn126  1  0.19377979  0.93429484  0.93985843  1
  Zn  Zn127  1  0.68552912  0.43130796  0.43644250  1
  Zn  Zn128  1  0.68977551  0.44132875  0.93336486  1
  Zn  Zn129  1  0.68928218  0.93367948  0.44011696  1
  Zn  Zn130  1  0.65751362  0.94522392  0.90088034  1
  Zn  Zn131  1  0.30715747  0.06043556  0.06315926  1
  Zn  Zn132  1  0.31472497  0.06869869  0.56619128  1
  Zn  Zn133  1  0.31241047  0.56764591  0.06346184  1
  Zn  Zn134  1  0.31141476  0.57208941  0.58515060  1
  Zn  Zn135  1  0.80956540  0.06011258  0.05499662  1
  Zn  Zn136  1  0.81220261  0.07420883  0.55323945  1
  Zn  Zn137  1  0.81858425  0.56123577  0.06413247  1
  Zn  Zn138  1  0.81200300  0.57122651  0.56337137  1
  Zn  Zn139  1  0.43249636  0.43813070  0.19332430  1
  Zn  Zn140  1  0.44175031  0.44309129  0.69060742  1
  Zn  Zn141  1  0.43985459  0.93827158  0.18618649  1
  Zn  Zn142  1  0.44459276  0.93466928  0.69533175  1
  Zn  Zn143  1  0.93215769  0.43606643  0.18891281  1
  Zn  Zn144  1  0.93839025  0.44075073  0.68957788  1
  Zn  Zn145  1  0.93930397  0.93810141  0.18858302  1
  Zn  Zn146  1  0.93668992  0.93900145  0.68633921  1
  Zn  Zn147  1  0.06022818  0.05822587  0.31027290  1
  Zn  Zn148  1  0.06152144  0.05676994  0.81186585  1
  Zn  Zn149  1  0.06453479  0.56177452  0.31280381  1
  Zn  Zn150  1  0.06646870  0.56370870  0.82072647  1
  Zn  Zn151  1  0.56164711  0.06167654  0.31118256  1
  Zn  Zn152  1  0.55825788  0.06045023  0.81060147  1
  Zn  Zn153  1  0.56134557  0.56245626  0.31367041  1
  Zn  Zn154  1  0.55201962  0.59170301  0.82797333  1
  Zn  Zn155  1  0.44426362  0.18318767  0.43456343  1
  Zn  Zn156  1  0.43730426  0.18807669  0.93392791  1
  Zn  Zn157  1  0.44229496  0.69455618  0.44089581  1
  Zn  Zn158  1  0.43203007  0.68420752  0.94859181  1
  Zn  Zn159  1  0.93662332  0.17975821  0.43770302  1
  Zn  Zn160  1  0.93538533  0.18681260  0.93674992  1
  Zn  Zn161  1  0.93947398  0.68776120  0.43444683  1
  Zn  Zn162  1  0.96411289  0.69841199  0.94703401  1
  Zn  Zn163  1  0.06173770  0.31067587  0.06189093  1
  Zn  Zn164  1  0.06383677  0.31273857  0.56218364  1
  Zn  Zn165  1  0.09056934  0.79246405  0.06659370  1
  Zn  Zn166  1  0.06905712  0.81230318  0.55982615  1
  Zn  Zn167  1  0.56127312  0.31341268  0.06544580  1
  Zn  Zn168  1  0.56388925  0.31609366  0.56124548  1
  Zn  Zn169  1  0.57396605  0.83107675  0.02775382  1
  Zn  Zn170  1  0.56635592  0.81804421  0.56314514  1
  O  O171  1  0.11780618  0.12046893  0.11519515  1
  O  O172  1  0.12096016  0.12222548  0.61867513  1
  O  O173  1  0.10591077  0.61332714  0.13873071  1
  O  O174  1  0.12251647  0.62237941  0.61466189  1
  O  O175  1  0.63104907  0.11881542  0.11297485  1
  O  O176  1  0.61222674  0.12804237  0.63194961  1
  O  O177  1  0.61948896  0.62148804  0.12346645  1
  O  O178  1  0.61891196  0.62377023  0.62290098  1
  O  O179  1  0.39198042  0.36923260  0.36987037  1
  O  O180  1  0.37820779  0.38224438  0.88316701  1
  O  O181  1  0.38895649  0.88402344  0.37126252  1
  O  O182  1  0.37457298  0.88360788  0.86804299  1
  O  O183  1  0.88681971  0.37398547  0.36843970  1
  O  O184  1  0.88063372  0.37675359  0.88072082  1
  O  O185  1  0.88337229  0.88857953  0.36776224  1
  O  O186  1  0.87637669  0.88118941  0.87954674  1
  O  O187  1  0.25661501  0.00344690  0.36960391  1
  O  O188  1  0.26153899  0.00300030  0.87231651  1
  O  O189  1  0.24443956  0.50246562  0.37135548  1
  O  O190  1  0.26037014  0.48948695  0.86380342  1
  O  O191  1  0.76151007  -0.00847712  0.37096990  1
  O  O192  1  0.75919490  0.00975377  0.89110147  1
  O  O193  1  0.74953938  0.50463100  0.36863531  1
  O  O194  1  0.75514736  0.50944381  0.86475938  1
  O  O195  1  0.24946705  0.49168910  0.13341580  1
  O  O196  1  0.24228383  0.49953665  0.63579478  1
  O  O197  1  0.23611157  1.00297491  0.13341415  1
  O  O198  1  0.24650954  0.99282030  0.62589776  1
  O  O199  1  0.75445698  0.48796004  0.13247536  1
  O  O200  1  0.74445452  0.50295748  0.62847946  1
  O  O201  1  0.73812876  0.99174633  0.11432474  1
  O  O202  1  0.76382734  0.99021919  0.61471676  1
  O  O203  1  0.00339976  0.36747618  0.25449073  1
  O  O204  1  0.01038671  0.38390511  0.75929476  1
  O  O205  1  -0.00265318  0.86137037  0.25682477  1
  O  O206  1  0.00832371  0.87211389  0.75231710  1
  O  O207  1  0.50537632  0.36947625  0.25627519  1
  O  O208  1  0.50418503  0.36481023  0.75164908  1
  O  O209  1  0.50363255  0.86869724  0.25723964  1
  O  O210  1  0.51036702  0.86513947  0.74744196  1
  O  O211  1  0.48879841  0.13360188  0.25521295  1
  O  O212  1  0.49559861  0.13455448  0.74527746  1
  O  O213  1  0.49377845  0.63022680  0.24665866  1
  O  O214  1  0.49461508  0.61037119  0.72932804  1
  O  O215  1  0.99482565  0.12934038  0.24185955  1
  O  O216  1  1.00210055  0.12306189  0.73642850  1
  O  O217  1  0.99155420  0.62966522  0.24976280  1
  O  O218  1  0.99526048  0.62981078  0.74650278  1
  O  O219  1  0.36902358  0.25589188  0.00322655  1
  O  O220  1  0.38029416  0.24211826  0.51370322  1
  O  O221  1  0.37379078  0.75227374  0.01483984  1
  O  O222  1  0.36447908  0.74643425  0.50991550  1
  O  O223  1  0.86779400  0.25929059  0.00114669  1
  O  O224  1  0.86794308  0.24717121  0.50403050  1
  O  O225  1  0.87436636  0.76151924  0.00249763  1
  O  O226  1  0.86863527  0.74393982  0.50605077  1
  O  O227  1  0.12388871  0.23720702  0.49434314  1
  O  O228  1  0.13232339  0.24238382  0.99814080  1
  O  O229  1  0.13858880  0.74193850  0.49408148  1
  O  O230  1  0.07821089  0.72840169  0.97411039  1
  O  O231  1  0.62447973  0.25196895  0.48567311  1
  O  O232  1  0.62596686  0.24589797  0.99413478  1
  O  O233  1  0.63209959  0.75150753  0.48735836  1
  O  O234  1  0.64272937  0.73251618  1.01327713  1
  O  O235  1  0.49393616  0.25393070  0.13955525  1
  O  O236  1  0.49526385  0.24487282  0.62979239  1
  O  O237  1  0.50983536  0.74036877  0.13693904  1
  O  O238  1  0.48983210  0.74622449  0.61604796  1
  O  O239  1  0.99704689  0.23805537  0.12876389  1
  O  O240  1  0.98727156  0.24421178  0.61757160  1
  O  O241  1  1.00106824  0.74003128  0.13483337  1
  O  O242  1  0.99568985  0.74750533  0.62706137  1
  O  O243  1  0.00375726  0.25371630  0.37193577  1
  O  O244  1  0.00060701  0.26305372  0.87858174  1
  O  O245  1  0.00839422  0.75614585  0.36888672  1
  O  O246  1  -0.01533909  0.76785708  0.85692137  1
  O  O247  1  0.50854528  0.25676155  0.36763785  1
  O  O248  1  0.50838474  0.25281889  0.86616225  1
  O  O249  1  0.50729117  0.75936618  0.37128301  1
  O  O250  1  0.48287788  0.69522577  0.84775155  1
  O  O251  1  0.24309123  0.12895906  0.49320131  1
  O  O252  1  0.24094717  0.13391525  0.99862785  1
  O  O253  1  0.24901019  0.62648272  0.49155914  1
  O  O254  1  0.23214697  0.60829853  0.99816779  1
  O  O255  1  0.74224838  0.14881196  0.50309686  1
  O  O256  1  0.74134013  0.13354846  0.99132693  1
  O  O257  1  0.74864177  0.63772841  0.49075050  1
  O  O258  1  0.75098888  0.62836217  0.99651080  1
  O  O259  1  0.25854727  0.36931151  0.00370276  1
  O  O260  1  0.24330737  0.36743526  0.50718250  1
  O  O261  1  0.27560519  0.88658939  0.00331398  1
  O  O262  1  0.24622671  0.86693225  0.50965927  1
  O  O263  1  0.75374309  0.37251282  0.00583182  1
  O  O264  1  0.74420433  0.35694398  0.50138410  1
  O  O265  1  0.75841206  0.86492705  0.00842326  1
  O  O266  1  0.75421424  0.86380116  0.50584505  1
  O  O267  1  0.13616067  0.49325974  0.25151913  1
  O  O268  1  0.13304902  0.49621517  0.74743557  1
  O  O269  1  0.13315778  1.00579859  0.23675571  1
  O  O270  1  0.12706907  0.98905574  0.74148430  1
  O  O271  1  0.63618922  0.49301037  0.25424560  1
  O  O272  1  0.63739162  0.50609914  0.73962623  1
  O  O273  1  0.61775736  1.00125563  0.23205736  1
  O  O274  1  0.63572188  0.98444085  0.79329914  1
  O  O275  1  0.36905981  0.00555243  0.25643904  1
  O  O276  1  0.37761408  0.00858229  0.75795320  1
  O  O277  1  0.36016504  0.50809665  0.25470287  1
  O  O278  1  0.37206044  0.50939116  0.75920372  1
  O  O279  1  0.87841967  0.01063199  0.25744271  1
  O  O280  1  0.87798170  0.00310349  0.76337669  1
  O  O281  1  0.86262601  0.50597590  0.25370743  1
  O  O282  1  0.86571592  0.51435307  0.74548228  1
  O  O283  1  0.11276583  0.36730772  0.36708160  1
  O  O284  1  0.11744358  0.37279714  0.86614964  1
  O  O285  1  0.11688738  0.86415055  0.37709526  1
  O  O286  1  0.11667725  0.88355786  0.86651542  1
  O  O287  1  0.61688529  0.36611027  0.36358323  1
  O  O288  1  0.62510864  0.36508359  0.87382444  1
  O  O289  1  0.61647361  0.87148399  0.37156724  1
  O  O290  1  0.59875681  0.85133889  0.91782565  1
  O  O291  1  0.36766943  0.12968896  0.13740612  1
  O  O292  1  0.38527244  0.13337078  0.63597788  1
  O  O293  1  0.38488937  0.62247613  0.13631275  1
  O  O294  1  0.38400594  0.64006758  0.63788706  1
  O  O295  1  0.88100871  0.12136079  0.13221414  1
  O  O296  1  0.88258255  0.13492060  0.62637486  1
  O  O297  1  0.88144911  0.62490265  0.13955393  1
  O  O298  1  0.88339316  0.63587029  0.63164453  1
  O  O299  1  0.25494209  0.25368354  0.11459521  1
  O  O300  1  0.27036106  0.24934670  0.62449684  1
  O  O301  1  0.19297962  0.74005634  0.07044486  1
  O  O302  1  0.25884371  0.75658362  0.61701353  1
  O  O303  1  0.74924747  0.26221355  0.11859467  1
  O  O304  1  0.76469297  0.25405177  0.61690424  1
  O  O305  1  0.75709520  0.75693329  0.11788864  1
  O  O306  1  0.75988002  0.75120412  0.61384098  1
  O  O307  1  0.24204539  0.24165793  0.37358221  1
  O  O308  1  0.24828945  0.25017828  0.88583501  1
  O  O309  1  0.24506548  0.75741880  0.38220330  1
  O  O310  1  0.23688990  0.75002075  0.89928446  1
  O  O311  1  0.73896769  0.25345372  0.38276137  1
  O  O312  1  0.74280785  0.24609200  0.87947802  1
  O  O313  1  0.74426974  0.74969825  0.37758554  1
  O  O314  1  0.76141276  0.74187777  0.88818514  1
  O  O315  1  0.00546005  0.12297408  0.00740146  1
  O  O316  1  0.00834370  0.12172478  0.50977857  1
  O  O317  1  -0.01858858  0.60685525  0.01470122  1
  O  O318  1  0.00902473  0.62110949  0.50359990  1
  O  O319  1  0.50806229  0.12478615  0.00014477  1
  O  O320  1  0.49777937  0.11025204  0.50689916  1
  O  O321  1  0.51248041  0.62332561  0.01307258  1
  O  O322  1  0.50115642  0.62175466  0.50913674  1
  O  O323  1  0.50061179  0.37768757  0.48553766  1
  O  O324  1  0.48846200  0.37650415  1.00065179  1
  O  O325  1  0.50309328  0.88975976  0.49331005  1
  O  O326  1  0.46900955  0.88787429  1.01313796  1
  O  O327  1  1.00650676  0.38538303  0.49034253  1
  O  O328  1  0.99045905  0.37721304  0.99546723  1
  O  O329  1  1.00225835  0.87424207  0.48813423  1
  O  O330  1  0.99337348  0.87526075  0.99000552  1
  O  O331  1  0.50262762  0.48574412  0.37688690  1
  O  O332  1  0.49028990  0.50236724  0.88001402  1
  O  O333  1  0.49532751  0.99643201  0.38441669  1
  O  O334  1  0.48692920  1.00814226  0.89103254  1
  O  O335  1  0.99825240  0.49130747  0.38184657  1
  O  O336  1  0.99637517  0.49099509  0.88350733  1
  O  O337  1  0.99631297  0.98918091  0.37503425  1
  O  O338  1  0.99077230  0.98964121  0.87658873  1
  O  O339  1  0.00961742  0.01009923  0.12602132  1
  O  O340  1  0.00595784  0.00649278  0.62048262  1
  O  O341  1  -0.00221410  0.50157051  0.11970040  1
  O  O342  1  0.00483492  0.50768875  0.61835090  1
  O  O343  1  0.50563662  0.00180138  0.11366594  1
  O  O344  1  0.49602790  0.00561065  0.61213941  1
  O  O345  1  0.49679147  0.51004871  0.12829410  1
  O  O346  1  0.50672872  0.50584806  0.61593577  1
  O  O347  1  0.24520478  0.38196091  0.24722373  1
  O  O348  1  0.24366288  0.38526331  0.74363847  1
  O  O349  1  0.24867131  0.88649826  0.25654634  1
  O  O350  1  0.24223329  0.87401079  0.74394095  1
  O  O351  1  0.74361607  0.38048152  0.24446050  1
  O  O352  1  0.75016035  0.38882811  0.74466947  1
  O  O353  1  0.74727852  0.86988784  0.23259489  1
  O  O354  1  0.76037624  0.87941116  0.72760385  1
  O  O355  1  0.25661262  0.11777527  0.25708351  1
  O  O356  1  0.25959006  0.12236695  0.75073700  1
  O  O357  1  0.25672510  0.62108267  0.24023778  1
  O  O358  1  0.26148142  0.61601098  0.74515894  1
  O  O359  1  0.76358492  0.12847132  0.24424650  1
  O  O360  1  0.75089510  0.12963221  0.76484436  1
  O  O361  1  0.75454091  0.61937903  0.25290096  1
  O  O362  1  0.75681908  0.62464985  0.75727425  1
  O  O363  1  0.37077739  0.11788178  0.36647230  1
  O  O364  1  0.37375950  0.12568074  0.86108346  1
  O  O365  1  0.37430558  0.62686108  0.36779064  1
  O  O366  1  0.36367906  0.61231627  0.87540780  1
  O  O367  1  0.87876507  0.11308965  0.35995582  1
  O  O368  1  0.86643371  0.11718701  0.87544452  1
  O  O369  1  0.86914087  0.62330920  0.36467217  1
  O  O370  1  0.87081339  0.62573212  0.86505386  1
  O  O371  1  0.13081366  0.37357736  0.13294532  1
  O  O372  1  0.12096826  0.38466010  0.63340859  1
  O  O373  1  0.11307116  0.89098889  0.12260811  1
  O  O374  1  0.13555441  0.87970035  0.62954617  1
  O  O375  1  0.63072409  0.37164831  0.13882887  1
  O  O376  1  0.62681891  0.38674268  0.62767843  1
  O  O377  1  0.63138452  0.88472711  0.11844346  1
  O  O378  1  0.64650185  0.87925502  0.61846125  1
  O  O379  1  0.11899646  0.25225530  0.25440328  1
  O  O380  1  0.13214164  0.26429111  0.74873306  1
  O  O381  1  0.12135901  0.74131762  0.25947108  1
  O  O382  1  0.11939174  0.76282916  0.74251178  1
  O  O383  1  0.61812889  0.25573924  0.25656198  1
  O  O384  1  0.61996571  0.25168015  0.75669014  1
  O  O385  1  0.61882426  0.75319276  0.26045409  1
  O  O386  1  0.64112486  0.76996274  0.76304508  1
  O  O387  1  0.38079477  0.24148645  0.24642447  1
  O  O388  1  0.38395012  0.24604490  0.74410801  1
  O  O389  1  0.38647396  0.74005332  0.25477706  1
  O  O390  1  0.36347769  0.74400561  0.74530065  1
  O  O391  1  0.88034925  0.23661982  0.24896061  1
  O  O392  1  0.87315666  0.24867442  0.73554603  1
  O  O393  1  0.88487021  0.74195715  0.24987807  1
  O  O394  1  0.87842240  0.74297311  0.73888301  1
  O  O395  1  0.36319354  0.51607752  0.49213112  1
  O  O396  1  0.37495426  0.49189845  0.99511530  1
  O  O397  1  0.37596238  1.00508029  0.48887457  1
  O  O398  1  0.37930973  1.01293490  0.98993346  1
  O  O399  1  0.88793964  0.50833831  0.49936516  1
  O  O400  1  0.87952360  0.48513925  0.99894020  1
  O  O401  1  0.87596213  1.01035876  0.47909732  1
  O  O402  1  0.87899514  0.98843844  0.99259950  1
  O  O403  1  0.12606670  0.00659731  0.01007493  1
  O  O404  1  0.12526340  0.01077176  0.50493644  1
  O  O405  1  0.10824028  0.48730174  0.00290485  1
  O  O406  1  0.11586108  0.50925474  0.50386842  1
  O  O407  1  0.61056281  0.00983951  0.00274037  1
  O  O408  1  0.61602455  0.00275697  0.49655971  1
  O  O409  1  0.62694458  0.51013605  0.00059855  1
  O  O410  1  0.62881929  0.50421620  0.50998185  1
  O  O411  1  0.36936878  0.36824317  0.11962410  1
  O  O412  1  0.38127196  0.36055709  0.62922591  1
  O  O413  1  0.36648443  0.86572577  0.13577172  1
  O  O414  1  0.36402227  0.86960477  0.63192439  1
  O  O415  1  0.86591548  0.37019546  0.11761536  1
  O  O416  1  0.87858158  0.36402674  0.62540330  1
  O  O417  1  0.86951700  0.87859261  0.11709679  1
  O  O418  1  0.87291043  0.86440486  0.62183545  1
  O  O419  1  0.12784149  0.12619128  0.38136504  1
  O  O420  1  0.12354306  0.12394336  0.88578503  1
  O  O421  1  0.12111941  0.63429623  0.38615430  1
  O  O422  1  0.13712443  0.62792942  0.87759878  1
  O  O423  1  0.62170987  0.14102655  0.36909254  1
  O  O424  1  0.62882023  0.13713138  0.88310956  1
  O  O425  1  0.63019293  0.63513369  0.37469370  1
  O  O426  1  0.64271631  0.62429405  0.88852350  1
