# generated using pymatgen
data_V85Zn86O256
_symmetry_space_group_name_H-M   'P 1'
_cell_length_a   16.92137825
_cell_length_b   16.93559270
_cell_length_c   16.93741006
_cell_angle_alpha   89.90189002
_cell_angle_beta   90.02476031
_cell_angle_gamma   89.95280835
_symmetry_Int_Tables_number   1
_chemical_formula_structural   V85Zn86O256
_chemical_formula_sum   'V85 Zn86 O256'
_cell_volume   4853.80484995
_cell_formula_units_Z   1
loop_
 _symmetry_equiv_pos_site_id
 _symmetry_equiv_pos_as_xyz
  1  'x, y, z'
loop_
 _atom_site_type_symbol
 _atom_site_label
 _atom_site_symmetry_multiplicity
 _atom_site_fract_x
 _atom_site_fract_y
 _atom_site_fract_z
 _atom_site_occupancy
  V  V0  1  0.75248410  0.74783298  0.00568598  1
  V  V1  1  0.12725426  0.61516683  0.00708326  1
  V  V2  1  0.75543893  0.12463081  0.37397749  1
  V  V3  1  0.37365575  0.62297870  0.74823126  1
  V  V4  1  0.25801336  0.12458279  0.87521226  1
  V  V5  1  0.25372962  0.00104055  0.75646683  1
  V  V6  1  0.75153114  0.37589494  0.12523473  1
  V  V7  1  0.51395195  0.12122178  0.12338191  1
  V  V8  1  -0.00101522  0.25494291  0.74913128  1
  V  V9  1  0.11643971  0.87621301  0.75271425  1
  V  V10  1  -0.00929692  0.36831380  0.37687249  1
  V  V11  1  -0.00283524  0.49912245  -0.00148096  1
  V  V12  1  0.37474881  0.87394300  0.50004958  1
  V  V13  1  0.86977638  0.25951099  0.62599467  1
  V  V14  1  0.37284940  0.74872597  0.62204073  1
  V  V15  1  0.12159065  0.25030344  0.37049765  1
  V  V16  1  0.49657426  0.37545485  0.37965386  1
  V  V17  1  0.87378863  0.37684729  -0.00647181  1
  V  V18  1  0.37167493  0.49796316  0.37709373  1
  V  V19  1  0.24915953  0.87534157  0.62545624  1
  V  V20  1  0.62518039  0.87512364  0.75295692  1
  V  V21  1  0.62339447  0.12607203  0.50390416  1
  V  V22  1  0.50466628  0.00685492  -0.00144045  1
  V  V23  1  0.25072958  0.24837068  -0.00048245  1
  V  V24  1  0.88435267  0.87557686  -0.01394561  1
  V  V25  1  0.75804223  0.49933844  0.25389360  1
  V  V26  1  0.62184996  0.00224805  0.62831217  1
  V  V27  1  0.37602127  0.49898006  0.87379660  1
  V  V28  1  0.11457121  0.74779315  0.87711721  1
  V  V29  1  0.12018086  0.87182114  0.26335941  1
  V  V30  1  0.75860715  -0.00053613  0.75787861  1
  V  V31  1  0.76272516  0.87241222  0.12831425  1
  V  V32  1  0.37544060  0.75343869  0.12254028  1
  V  V33  1  -0.00172358  0.62768507  0.12386393  1
  V  V34  1  0.37492193  0.24870595  0.12439436  1
  V  V35  1  0.62644127  0.63454713  0.50313512  1
  V  V36  1  0.74441458  0.24000553  0.00231145  1
  V  V37  1  0.93285197  0.55541769  0.43165899  1
  V  V38  1  0.12430504  0.00198502  0.62347487  1
  V  V39  1  -0.00242442  -0.00498004  0.49593233  1
  V  V40  1  0.49915367  0.24927526  0.73534039  1
  V  V41  1  0.62834560  0.49105107  0.62586094  1
  V  V42  1  0.62483058  0.74353513  0.88090403  1
  V  V43  1  0.48961430  0.88104392  0.87624416  1
  V  V44  1  0.49680327  0.49999516  0.50167817  1
  V  V45  1  0.74948939  0.25717623  0.50384417  1
  V  V46  1  0.24669054  0.49985119  0.24236124  1
  V  V47  1  0.50506755  0.62749100  0.12178127  1
  V  V48  1  0.62317132  0.37821079  0.25181917  1
  V  V49  1  0.87611021  -0.00569331  0.36937860  1
  V  V50  1  0.38159566  0.12542349  0.73450951  1
  V  V51  1  0.12470557  -0.00208479  0.11984419  1
  V  V52  1  0.11317782  0.50708621  0.61121095  1
  V  V53  1  0.75215847  0.49249265  0.75096207  1
  V  V54  1  0.50004409  0.25101253  0.25060183  1
  V  V55  1  -0.00266203  0.74597439  0.74549551  1
  V  V56  1  0.11939460  0.37477046  0.24402824  1
  V  V57  1  0.87421103  0.63188216  0.24316054  1
  V  V58  1  0.75050954  0.62305487  0.38113974  1
  V  V59  1  0.49926132  0.75043711  0.75166626  1
  V  V60  1  0.50039158  0.00296698  0.50358918  1
  V  V61  1  0.23728003  0.63139624  0.37918483  1
  V  V62  1  0.37584899  0.37395572  -0.00040908  1
  V  V63  1  0.74821960  0.00303813  0.24475712  1
  V  V64  1  0.88268451  0.24874160  0.13669338  1
  V  V65  1  -0.00630159  0.12837928  0.62220819  1
  V  V66  1  0.62504378  0.50528283  0.12438559  1
  V  V67  1  0.26140043  0.25503310  0.50073542  1
  V  V68  1  0.12589534  0.25407444  0.87332381  1
  V  V69  1  0.86858787  0.74424475  0.61795936  1
  V  V70  1  0.24819716  0.75756812  -0.00052920  1
  V  V71  1  0.26194702  0.37636448  0.62198980  1
  V  V72  1  0.12303666  0.12855813  0.49732647  1
  V  V73  1  0.74999116  0.61690379  0.88063169  1
  V  V74  1  0.37429329  0.00000488  0.37408098  1
  V  V75  1  -0.00293821  0.11993239  0.13604482  1
  V  V76  1  0.62646169  0.87960652  0.23956871  1
  V  V77  1  0.50262562  0.87234330  0.37394594  1
  V  V78  1  0.50542782  0.50279987  -0.00138746  1
  V  V79  1  0.87805198  0.61979127  0.75476533  1
  V  V80  1  0.37411472  0.12401571  0.24750759  1
  V  V81  1  0.37513792  0.62620637  0.25134221  1
  V  V82  1  0.50323388  0.75121227  0.25155919  1
  V  V83  1  0.86543738  0.87797669  0.50601798  1
  V  V84  1  0.24977543  0.62411185  0.87600751  1
  Zn  Zn85  1  0.64437820  0.75766521  0.37827784  1
  Zn  Zn86  1  0.63018500  0.36762892  0.75082591  1
  Zn  Zn87  1  0.61969987  0.24156588  0.87732511  1
  Zn  Zn88  1  0.87313349  0.38334341  0.50053340  1
  Zn  Zn89  1  0.24947038  0.12667139  0.37463239  1
  Zn  Zn90  1  0.50107450  0.62356230  0.62593295  1
  Zn  Zn91  1  -0.00004202  0.38326930  0.87168847  1
  Zn  Zn92  1  0.24492459  0.37763517  0.12338676  1
  Zn  Zn93  1  0.23261945  0.74777184  0.49978291  1
  Zn  Zn94  1  0.37081912  0.88371502  -0.00330091  1
  Zn  Zn95  1  0.00217723  0.75453633  0.24780619  1
  Zn  Zn96  1  0.50191405  0.36801799  0.87193865  1
  Zn  Zn97  1  0.12631403  0.37763856  0.74239681  1
  Zn  Zn98  1  0.74540955  0.87002769  0.62531140  1
  Zn  Zn99  1  0.87795485  0.12250908  0.76559168  1
  Zn  Zn100  1  0.11275788  0.12680870  -0.00245609  1
  Zn  Zn101  1  0.24837360  -0.00057321  0.24914194  1
  Zn  Zn102  1  -0.05261330  0.03751956  -0.06177544  1
  Zn  Zn103  1  0.62566230  0.24981985  0.37653898  1
  Zn  Zn104  1  0.75249279  0.11391044  0.88789169  1
  Zn  Zn105  1  0.24763754  0.87690101  0.12870342  1
  Zn  Zn106  1  0.24612661  0.49887287  0.74544134  1
  Zn  Zn107  1  0.18581000  0.18672773  0.18657751  1
  Zn  Zn108  1  0.18812401  0.19053296  0.68433850  1
  Zn  Zn109  1  0.18563045  0.68934788  0.18855536  1
  Zn  Zn110  1  0.18543646  0.68495412  0.68446392  1
  Zn  Zn111  1  0.69159542  0.19101759  0.19070097  1
  Zn  Zn112  1  0.68828927  0.18223890  0.69022022  1
  Zn  Zn113  1  0.68884239  0.69001933  0.19047294  1
  Zn  Zn114  1  0.68903878  0.68233060  0.69075653  1
  Zn  Zn115  1  0.30966421  0.31362112  0.31345418  1
  Zn  Zn116  1  0.31758156  0.31000187  0.80802906  1
  Zn  Zn117  1  0.30952702  0.81382057  0.30965734  1
  Zn  Zn118  1  0.30670962  0.81072547  0.81152929  1
  Zn  Zn119  1  0.80968083  0.31185563  0.31473244  1
  Zn  Zn120  1  0.81323956  0.30869847  0.81681351  1
  Zn  Zn121  1  0.86879419  0.77346290  0.36195815  1
  Zn  Zn122  1  0.81094762  0.80934325  0.81400670  1
  Zn  Zn123  1  0.18360627  0.43615045  0.43591378  1
  Zn  Zn124  1  0.18894813  0.43677322  0.93488282  1
  Zn  Zn125  1  0.18902545  0.93657293  0.43871217  1
  Zn  Zn126  1  0.13056297  0.95790455  0.91598661  1
  Zn  Zn127  1  0.68441807  0.44034724  0.43826164  1
  Zn  Zn128  1  0.68398553  0.42928354  0.93456017  1
  Zn  Zn129  1  0.68835872  0.93877417  0.43494656  1
  Zn  Zn130  1  0.68451283  0.93323960  0.94133690  1
  Zn  Zn131  1  0.31442557  0.05937124  0.05985656  1
  Zn  Zn132  1  0.30869333  0.06356193  0.55979365  1
  Zn  Zn133  1  0.31625064  0.56563250  0.06209072  1
  Zn  Zn134  1  0.30851273  0.56079413  0.55997447  1
  Zn  Zn135  1  0.81768895  0.06002209  0.06943027  1
  Zn  Zn136  1  0.80825408  0.06404468  0.56653161  1
  Zn  Zn137  1  0.81326913  0.56146451  0.06176985  1
  Zn  Zn138  1  0.80863856  0.56595338  0.57112178  1
  Zn  Zn139  1  0.43462406  0.43822876  0.18735884  1
  Zn  Zn140  1  0.43691159  0.43482846  0.68504918  1
  Zn  Zn141  1  0.43927029  0.93979468  0.18286634  1
  Zn  Zn142  1  0.43701268  0.94019744  0.68961969  1
  Zn  Zn143  1  0.94294171  0.43946243  0.18235088  1
  Zn  Zn144  1  0.93859549  0.44064238  0.68422140  1
  Zn  Zn145  1  0.93792560  0.93761846  0.18742598  1
  Zn  Zn146  1  0.93833610  0.93480722  0.68675029  1
  Zn  Zn147  1  0.06201768  0.05954211  0.30958118  1
  Zn  Zn148  1  0.06773607  0.07358933  0.80417077  1
  Zn  Zn149  1  0.06351057  0.55766085  0.30448749  1
  Zn  Zn150  1  0.06471278  0.55947688  0.80905456  1
  Zn  Zn151  1  0.56417376  0.06245833  0.31447830  1
  Zn  Zn152  1  0.56657024  0.06717186  0.81953618  1
  Zn  Zn153  1  0.56573455  0.56515906  0.31412755  1
  Zn  Zn154  1  0.56375732  0.56077706  0.81212356  1
  Zn  Zn155  1  0.43964493  0.18551040  0.43732660  1
  Zn  Zn156  1  0.43972075  0.18352330  0.93175142  1
  Zn  Zn157  1  0.43632812  0.68517597  0.43707602  1
  Zn  Zn158  1  0.43794115  0.68765102  0.93802043  1
  Zn  Zn159  1  0.93458917  0.18771615  0.43564215  1
  Zn  Zn160  1  0.93416506  0.19797822  0.94153598  1
  Zn  Zn161  1  1.05470239  0.70488623  0.42682816  1
  Zn  Zn162  1  0.93354783  0.68792821  0.93894073  1
  Zn  Zn163  1  0.06036750  0.31005110  0.06179856  1
  Zn  Zn164  1  0.06662001  0.31987432  0.55951448  1
  Zn  Zn165  1  0.06147386  0.81104441  0.06672825  1
  Zn  Zn166  1  0.05670830  0.81371687  0.56756731  1
  Zn  Zn167  1  0.56161341  0.31490268  0.06536622  1
  Zn  Zn168  1  0.55968506  0.31207469  0.56259445  1
  Zn  Zn169  1  0.56432718  0.81715717  0.05903724  1
  Zn  Zn170  1  0.56008494  0.81303414  0.56525102  1
  O  O171  1  0.11200716  0.12208780  0.12499942  1
  O  O172  1  0.11361442  0.12338535  0.61905820  1
  O  O173  1  0.11975022  0.62744662  0.11528494  1
  O  O174  1  0.13365834  0.60681214  0.62452421  1
  O  O175  1  0.61212875  0.13089252  0.13296738  1
  O  O176  1  0.62897362  0.11538518  0.61350021  1
  O  O177  1  0.61742389  0.61691436  0.13104279  1
  O  O178  1  0.62302124  0.61704184  0.61887237  1
  O  O179  1  0.38102438  0.38942558  0.36920930  1
  O  O180  1  0.37627406  0.38138181  0.88226404  1
  O  O181  1  0.37998308  0.88133608  0.37913445  1
  O  O182  1  0.38659867  0.86745435  0.87272622  1
  O  O183  1  0.88673681  0.37239205  0.37475203  1
  O  O184  1  0.87967692  0.36947739  0.88990965  1
  O  O185  1  0.87156924  0.88696230  0.39068634  1
  O  O186  1  0.87345102  0.87263087  0.88662807  1
  O  O187  1  0.26381947  0.00335881  0.37601852  1
  O  O188  1  0.23441718  0.00947202  0.86129444  1
  O  O189  1  0.25582699  0.50772840  0.36857465  1
  O  O190  1  0.25787437  0.50722315  0.87208394  1
  O  O191  1  0.75683750  0.00576049  0.36803861  1
  O  O192  1  0.74372516  -0.00622028  0.86075393  1
  O  O193  1  0.74190256  0.50808216  0.36424362  1
  O  O194  1  0.74011507  0.51139719  0.87141406  1
  O  O195  1  0.25889540  0.50044620  0.13846442  1
  O  O196  1  0.24942794  0.48633946  0.62303896  1
  O  O197  1  0.24177854  1.00042945  0.12871490  1
  O  O198  1  0.24327675  0.99553883  0.63146820  1
  O  O199  1  0.74210766  0.49486710  0.12998876  1
  O  O200  1  0.74021812  0.50254017  0.63746790  1
  O  O201  1  0.75345376  0.99341427  0.13806632  1
  O  O202  1  0.73793496  0.99604045  0.63552104  1
  O  O203  1  0.00791878  0.38342946  0.26214185  1
  O  O204  1  -0.00133562  0.36481942  0.75150309  1
  O  O205  1  0.01524398  0.87539503  0.24377318  1
  O  O206  1  0.01063326  0.86707421  0.74787239  1
  O  O207  1  0.50295010  0.37328607  0.25901609  1
  O  O208  1  0.49617278  0.35896999  0.74846148  1
  O  O209  1  0.50701308  0.87268151  0.25389116  1
  O  O210  1  0.50543805  0.87147269  0.75746400  1
  O  O211  1  0.49219808  0.12864973  0.24586023  1
  O  O212  1  0.48732440  0.12786377  0.75067688  1
  O  O213  1  0.49553365  0.63129981  0.24461551  1
  O  O214  1  0.48785113  0.63035227  0.75082202  1
  O  O215  1  0.99981408  0.12574496  0.23574883  1
  O  O216  1  0.99721652  0.13787722  0.74015604  1
  O  O217  1  0.98992439  0.61628180  0.23923338  1
  O  O218  1  0.98834588  0.63234780  0.75788393  1
  O  O219  1  0.37203336  0.25696517  0.00213469  1
  O  O220  1  0.35987442  0.24484306  0.49450363  1
  O  O221  1  0.36706477  0.74941004  0.00739884  1
  O  O222  1  0.37668312  0.75331159  0.51221704  1
  O  O223  1  0.86467756  0.25977542  0.01284473  1
  O  O224  1  0.86601727  0.25033554  0.50791254  1
  O  O225  1  0.86095134  0.75936502  -0.00366872  1
  O  O226  1  0.87800409  0.76039790  0.51677119  1
  O  O227  1  0.12808757  0.24641774  0.48777236  1
  O  O228  1  0.13228271  0.24961413  0.99116117  1
  O  O229  1  0.12033371  0.75632253  0.49887376  1
  O  O230  1  0.13026083  0.74224209  0.99305846  1
  O  O231  1  0.62996110  0.24229361  0.50030095  1
  O  O232  1  0.64235811  0.25724363  1.00757679  1
  O  O233  1  0.62093248  0.73863414  0.50014182  1
  O  O234  1  0.63498070  0.75594162  0.98941388  1
  O  O235  1  0.49353436  0.24448225  0.13089785  1
  O  O236  1  0.49735654  0.24831434  0.63516713  1
  O  O237  1  0.49534114  0.74685427  0.12793494  1
  O  O238  1  0.49099653  0.74760098  0.63377201  1
  O  O239  1  0.98880788  0.24239990  0.12403147  1
  O  O240  1  0.99532862  0.24660639  0.62919153  1
  O  O241  1  1.00296898  0.73358395  0.12922716  1
  O  O242  1  0.98626556  0.75259984  0.63910045  1
  O  O243  1  0.00468349  0.25923894  0.37315533  1
  O  O244  1  0.00890235  0.25231911  0.86626690  1
  O  O245  1  -0.02235214  0.74391741  0.35817699  1
  O  O246  1  0.01004286  0.74517044  0.86758233  1
  O  O247  1  0.50016144  0.25958231  0.36996177  1
  O  O248  1  0.49926407  0.24826557  0.86081643  1
  O  O249  1  0.49652703  0.75972802  0.36899354  1
  O  O250  1  0.50643825  0.75509567  0.87114482  1
  O  O251  1  0.24112335  0.13652015  0.49928862  1
  O  O252  1  0.25141640  0.13276745  0.99061916  1
  O  O253  1  0.25423736  0.62670658  0.48225413  1
  O  O254  1  0.24401790  0.63093911  0.99622624  1
  O  O255  1  0.74310900  0.13250260  0.49450046  1
  O  O256  1  0.75312864  0.13749645  1.01056969  1
  O  O257  1  0.73835125  0.61493658  0.49295375  1
  O  O258  1  0.75445913  0.63261770  0.99212344  1
  O  O259  1  0.26072147  0.37074153  0.00203974  1
  O  O260  1  0.24828606  0.36298388  0.50459777  1
  O  O261  1  0.25125787  0.86034656  0.00005910  1
  O  O262  1  0.25821244  0.87259301  0.50646764  1
  O  O263  1  0.75744033  0.37219201  0.00842784  1
  O  O264  1  0.75023039  0.36120519  0.49176232  1
  O  O265  1  0.75503057  0.86763238  0.00853042  1
  O  O266  1  0.76015962  0.88101562  0.50561202  1
  O  O267  1  0.13610802  0.48862897  0.25199775  1
  O  O268  1  0.12859351  0.49577827  0.74062803  1
  O  O269  1  0.12673676  0.99222294  0.24077588  1
  O  O270  1  0.13188471  0.99347444  0.74061587  1
  O  O271  1  0.63126002  0.49593426  0.24436455  1
  O  O272  1  0.63161307  0.49836922  0.74221074  1
  O  O273  1  0.63409947  0.99045031  0.25736664  1
  O  O274  1  0.62883449  0.99262154  0.74486188  1
  O  O275  1  0.37580834  0.00664691  0.25693751  1
  O  O276  1  0.36519640  0.01048828  0.74735772  1
  O  O277  1  0.36929015  0.50669538  0.25723256  1
  O  O278  1  0.37397822  0.50781055  0.75398621  1
  O  O279  1  0.86569433  -0.00659301  0.26081545  1
  O  O280  1  0.86153322  -0.00233099  0.74530056  1
  O  O281  1  0.86067752  0.50159788  0.24054871  1
  O  O282  1  0.86807314  0.51007300  0.74444941  1
  O  O283  1  0.11570599  0.36833521  0.36757952  1
  O  O284  1  0.12629412  0.36455210  0.86995071  1
  O  O285  1  0.12360896  0.88291766  0.36259400  1
  O  O286  1  0.13735761  0.85851694  0.86124980  1
  O  O287  1  0.61483504  0.37613342  0.36775519  1
  O  O288  1  0.62012666  0.36283929  0.86932914  1
  O  O289  1  0.61942752  0.87268290  0.36913921  1
  O  O290  1  0.61650734  0.86554062  0.86607438  1
  O  O291  1  0.38199385  0.13070916  0.13286405  1
  O  O292  1  0.37255505  0.12148955  0.63594703  1
  O  O293  1  0.38269874  0.63584322  0.13087763  1
  O  O294  1  0.37379883  0.63141425  0.63137697  1
  O  O295  1  0.88492689  0.13715221  0.12533037  1
  O  O296  1  0.88575590  0.13256547  0.62431226  1
  O  O297  1  0.88363459  0.62019203  0.13128699  1
  O  O298  1  0.87181294  0.63784478  0.63562290  1
  O  O299  1  0.25672476  0.24974195  0.11562197  1
  O  O300  1  0.24354686  0.26060069  0.60970027  1
  O  O301  1  0.25894192  0.74791058  0.11692639  1
  O  O302  1  0.25704396  0.75632840  0.62377020  1
  O  O303  1  0.75875391  0.25620548  0.12024811  1
  O  O304  1  0.75851765  0.24317298  0.61763663  1
  O  O305  1  0.74332127  0.75782407  0.11534017  1
  O  O306  1  0.76364438  0.75123695  0.63323746  1
  O  O307  1  0.24277615  0.25071019  0.38575803  1
  O  O308  1  0.24672351  0.24633496  0.87942330  1
  O  O309  1  0.25724277  0.73347844  0.37527682  1
  O  O310  1  0.24385036  0.74087755  0.88176822  1
  O  O311  1  0.74820486  0.24068790  0.38214562  1
  O  O312  1  0.75334952  0.24833967  0.89551361  1
  O  O313  1  0.76038736  0.72877496  0.37580848  1
  O  O314  1  0.74138893  0.74151929  0.88120529  1
  O  O315  1  -0.00381342  0.12571712  0.00978934  1
  O  O316  1  0.00331420  0.11911469  0.50561538  1
  O  O317  1  0.00661562  0.62122017  0.00409766  1
  O  O318  1  -0.01240200  0.61966858  0.48127922  1
  O  O319  1  0.49770328  0.11552080  0.00701334  1
  O  O320  1  0.51048734  0.11559698  0.49398287  1
  O  O321  1  0.49502817  0.61480924  0.00851706  1
  O  O322  1  0.50838113  0.61698874  0.49997439  1
  O  O323  1  0.50396915  0.38254176  0.48725154  1
  O  O324  1  0.48868118  0.38125175  1.00057240  1
  O  O325  1  0.49479208  0.88138541  0.49409952  1
  O  O326  1  0.49501156  0.88076988  0.99139987  1
  O  O327  1  0.99698638  0.37218352  0.48137277  1
  O  O328  1  0.99346247  0.38228010  1.00055098  1
  O  O329  1  0.98749599  0.89150670  0.51192880  1
  O  O330  1  0.98355164  0.86477450  1.00164581  1
  O  O331  1  0.49362216  0.49550067  0.38010768  1
  O  O332  1  0.49464630  0.49821801  0.88284462  1
  O  O333  1  0.49097674  0.99252167  0.37986995  1
  O  O334  1  0.50128087  0.99256842  0.88388894  1
  O  O335  1  0.99672937  0.49282958  0.37715080  1
  O  O336  1  1.00731930  0.50048541  0.89131978  1
  O  O337  1  0.98876803  1.00833414  0.38481115  1
  O  O338  1  1.02987128  0.99730075  0.87526201  1
  O  O339  1  0.00507711  0.01248378  0.12757856  1
  O  O340  1  0.00386979  0.01015541  0.62072203  1
  O  O341  1  0.00223265  0.51060094  0.11013302  1
  O  O342  1  0.01270643  0.49782405  0.62165292  1
  O  O343  1  0.49960041  0.01032319  0.11551688  1
  O  O344  1  0.51333840  -0.00636570  0.62015128  1
  O  O345  1  0.50375482  0.50617974  0.11902387  1
  O  O346  1  0.50416162  0.50182569  0.61681679  1
  O  O347  1  0.24317616  0.38379946  0.24890717  1
  O  O348  1  0.25190914  0.37153459  0.73334656  1
  O  O349  1  0.23824138  0.87855587  0.24869158  1
  O  O350  1  0.24467672  0.88339399  0.74475968  1
  O  O351  1  0.74292211  0.38116778  0.24669230  1
  O  O352  1  0.75284981  0.38830645  0.75894867  1
  O  O353  1  0.74109400  0.88291435  0.24177848  1
  O  O354  1  0.74105112  0.88192341  0.75077640  1
  O  O355  1  0.26349914  0.12524364  0.25231023  1
  O  O356  1  0.25752624  0.12051864  0.75115352  1
  O  O357  1  0.25379097  0.61905219  0.25846082  1
  O  O358  1  0.26150713  0.62657329  0.75624774  1
  O  O359  1  0.74337571  0.11624396  0.26098697  1
  O  O360  1  0.75572726  0.10839955  0.75011671  1
  O  O361  1  0.75442808  0.61652720  0.25529551  1
  O  O362  1  0.75674897  0.61539191  0.75984717  1
  O  O363  1  0.37680541  0.11640211  0.36620167  1
  O  O364  1  0.36130381  0.12647448  0.86331833  1
  O  O365  1  0.37094480  0.61485552  0.36813736  1
  O  O366  1  0.37018067  0.62046232  0.86840352  1
  O  O367  1  0.86230188  0.11362861  0.38138213  1
  O  O368  1  0.87345593  0.11852431  0.88191765  1
  O  O369  1  0.86784854  0.60714351  0.36465079  1
  O  O370  1  0.86295983  0.62952143  0.86619575  1
  O  O371  1  0.12532551  0.36593255  0.13932099  1
  O  O372  1  0.13550061  0.38467025  0.62332616  1
  O  O373  1  0.12671496  0.88430572  0.12719011  1
  O  O374  1  0.12954570  0.88056025  0.63495249  1
  O  O375  1  0.62806443  0.38423859  0.13423855  1
  O  O376  1  0.62108260  0.38723482  0.62698026  1
  O  O377  1  0.63103477  0.87228395  0.13614929  1
  O  O378  1  0.62445938  0.87791295  0.63797114  1
  O  O379  1  0.13389071  0.25754064  0.26362579  1
  O  O380  1  0.11681840  0.25309191  0.75423288  1
  O  O381  1  0.12564864  0.76653989  0.24847955  1
  O  O382  1  0.11697979  0.75323500  0.75358250  1
  O  O383  1  0.61833052  0.26003298  0.25323043  1
  O  O384  1  0.61135085  0.24745534  0.74443917  1
  O  O385  1  0.61966973  0.75913008  0.25617055  1
  O  O386  1  0.61986796  0.75605468  0.75591253  1
  O  O387  1  0.38022990  0.24360267  0.24715171  1
  O  O388  1  0.38374129  0.23526434  0.74804956  1
  O  O389  1  0.38126843  0.74617593  0.24228857  1
  O  O390  1  0.37726432  0.74421455  0.74074268  1
  O  O391  1  0.86897685  0.25420648  0.23487517  1
  O  O392  1  0.88034171  0.24664120  0.74373322  1
  O  O393  1  0.86751496  0.73235541  0.24512313  1
  O  O394  1  0.88044852  0.74375517  0.74598013  1
  O  O395  1  0.38804256  0.50662042  0.49173680  1
  O  O396  1  0.38314254  0.49318985  0.99642182  1
  O  O397  1  0.38002818  0.99631110  0.49390394  1
  O  O398  1  0.39124825  0.99660354  1.00339506  1
  O  O399  1  0.87477104  0.50197609  0.49981565  1
  O  O400  1  0.88290471  0.48866959  1.00467784  1
  O  O401  1  0.87877953  0.99628429  0.49838234  1
  O  O402  1  0.87070861  0.98184698  1.00318839  1
  O  O403  1  0.13177483  0.00872067  0.01621704  1
  O  O404  1  0.11704013  0.00596848  0.50336714  1
  O  O405  1  0.12409956  0.51070465  -0.00196075  1
  O  O406  1  0.12830528  0.49879561  0.51079740  1
  O  O407  1  0.60524513  -0.01065694  0.00119990  1
  O  O408  1  0.62179437  0.00456241  0.50790360  1
  O  O409  1  0.61134311  0.49222555  0.00610054  1
  O  O410  1  0.61504621  0.50684407  0.50665609  1
  O  O411  1  0.37358377  0.36736667  0.11721301  1
  O  O412  1  0.36167880  0.37651430  0.61924118  1
  O  O413  1  0.37254109  0.86285215  0.12499436  1
  O  O414  1  0.37094643  0.86817060  0.62138357  1
  O  O415  1  0.87357660  0.36550135  0.11972517  1
  O  O416  1  0.87832421  0.36302627  0.62068566  1
  O  O417  1  0.86500261  0.87330083  0.12215327  1
  O  O418  1  0.87040386  0.86550356  0.62346859  1
  O  O419  1  0.12548201  0.13222178  0.37797333  1
  O  O420  1  0.13778257  0.14095995  0.87231807  1
  O  O421  1  0.13436777  0.62568772  0.36915251  1
  O  O422  1  0.13210333  0.63131558  0.88105562  1
  O  O423  1  0.63457249  0.12367592  0.38711461  1
  O  O424  1  0.63856053  0.12947804  0.87523982  1
  O  O425  1  0.63318434  0.63011500  0.38370853  1
  O  O426  1  0.63100157  0.63670201  0.86957271  1
