# generated using pymatgen
data_V85Zn86O256
_symmetry_space_group_name_H-M   'P 1'
_cell_length_a   16.95572090
_cell_length_b   16.94794186
_cell_length_c   16.96095804
_cell_angle_alpha   90.03260408
_cell_angle_beta   90.03785440
_cell_angle_gamma   89.99360703
_symmetry_Int_Tables_number   1
_chemical_formula_structural   V85Zn86O256
_chemical_formula_sum   'V85 Zn86 O256'
_cell_volume   4873.97656597
_cell_formula_units_Z   1
loop_
 _symmetry_equiv_pos_site_id
 _symmetry_equiv_pos_as_xyz
  1  'x, y, z'
loop_
 _atom_site_type_symbol
 _atom_site_label
 _atom_site_symmetry_multiplicity
 _atom_site_fract_x
 _atom_site_fract_y
 _atom_site_fract_z
 _atom_site_occupancy
  V  V0  1  0.87925514  -0.00110746  0.87526905  1
  V  V1  1  0.62466755  0.11899856  0.50550437  1
  V  V2  1  0.37366170  0.25796611  0.61702264  1
  V  V3  1  0.24810162  0.25561374  0.00390290  1
  V  V4  1  0.12457018  0.74636294  0.37563705  1
  V  V5  1  0.13301371  0.37692948  0.24322843  1
  V  V6  1  0.37407972  0.12593442  0.75314977  1
  V  V7  1  0.61854504  -0.00635046  0.12490063  1
  V  V8  1  0.37570953  0.63549101  0.75039489  1
  V  V9  1  0.49880103  0.24870692  0.24999384  1
  V  V10  1  0.49683764  -0.00683315  0.49634853  1
  V  V11  1  0.25128443  0.12377036  0.87568431  1
  V  V12  1  0.74906685  0.24780403  -0.00048040  1
  V  V13  1  0.37154155  0.38155716  0.00537529  1
  V  V14  1  0.88539908  0.12696414  0.74766506  1
  V  V15  1  0.73665442  0.73884560  -0.00932813  1
  V  V16  1  -0.01492690  0.73029711  0.25067952  1
  V  V17  1  0.51579547  0.86660812  0.36786189  1
  V  V18  1  0.87455764  0.12347632  0.24864092  1
  V  V19  1  0.87992731  0.24703664  0.62232995  1
  V  V20  1  0.01057893  0.61874406  0.63252481  1
  V  V21  1  0.48592928  -0.00643450  -0.01051818  1
  V  V22  1  0.87788684  0.87292283  0.49692340  1
  V  V23  1  0.49231273  0.37375575  0.38133114  1
  V  V24  1  0.25983929  0.50198810  0.23694855  1
  V  V25  1  0.87342398  0.86975765  -0.00198771  1
  V  V26  1  0.75107367  0.12394379  0.87322162  1
  V  V27  1  0.87374352  0.24781867  0.12300187  1
  V  V28  1  0.74766119  0.74715066  0.49908808  1
  V  V29  1  0.49376035  0.49731698  0.50270308  1
  V  V30  1  0.75802716  -0.00111098  0.74632799  1
  V  V31  1  0.75141744  0.87481128  0.62863346  1
  V  V32  1  0.62321331  0.62498803  0.49368437  1
  V  V33  1  0.25719162  0.61977419  0.37334909  1
  V  V34  1  0.00254207  0.25196899  0.25122243  1
  V  V35  1  0.60119825  -0.01733786  0.65176051  1
  V  V36  1  0.00584520  0.25111095  0.74653018  1
  V  V37  1  0.24931215  0.38529308  0.61495773  1
  V  V38  1  0.73819482  0.61699539  0.85964592  1
  V  V39  1  0.76353273  0.49402812  0.26248445  1
  V  V40  1  0.37928601  0.75641384  0.61648877  1
  V  V41  1  0.76779237  0.61227243  0.38586224  1
  V  V42  1  0.49751076  0.12757209  0.62300577  1
  V  V43  1  0.12838754  0.38945716  0.74604342  1
  V  V44  1  -0.00017090  0.38555520  0.87419826  1
  V  V45  1  0.62288597  0.24832382  0.87450894  1
  V  V46  1  0.50141397  0.63108661  0.63018658  1
  V  V47  1  0.74620477  -0.00482297  0.24790875  1
  V  V48  1  0.74876283  0.12183386  0.37592973  1
  V  V49  1  0.12834435  0.63713613  0.00271926  1
  V  V50  1  0.37236324  0.12201854  0.25373482  1
  V  V51  1  0.74646811  0.87230494  0.11864516  1
  V  V52  1  -0.00054538  0.12316691  0.12292793  1
  V  V53  1  0.62997601  0.50123888  0.63053984  1
  V  V54  1  0.12528350  0.25205136  0.87377377  1
  V  V55  1  0.87404423  -0.00332967  0.37387710  1
  V  V56  1  0.74704284  0.37246235  0.12449446  1
  V  V57  1  -0.00115443  0.87422245  0.36881702  1
  V  V58  1  0.62402422  0.51240225  0.12561300  1
  V  V59  1  0.49883337  0.25105306  0.75127876  1
  V  V60  1  0.12660918  -0.00390450  0.12559244  1
  V  V61  1  0.12102012  0.86458796  0.75366343  1
  V  V62  1  0.12735481  0.61274531  0.50058984  1
  V  V63  1  0.25181024  -0.00182106  0.75099046  1
  V  V64  1  0.11901532  0.00813925  0.62355999  1
  V  V65  1  0.24781770  -0.00500620  0.25107478  1
  V  V66  1  0.62408541  0.37272483  0.25256932  1
  V  V67  1  0.62157593  0.12206021  -0.00246982  1
  V  V68  1  0.87626780  0.38042939  0.49558996  1
  V  V69  1  0.25216372  0.87651485  0.61563794  1
  V  V70  1  0.36790600  0.86045950  -0.00816865  1
  V  V71  1  0.37003427  0.50266287  0.87316943  1
  V  V72  1  0.37079727  0.25300408  0.12569470  1
  V  V73  1  0.44765325  0.68875134  0.19754168  1
  V  V74  1  0.49736508  0.37842229  0.87755339  1
  V  V75  1  0.62405009  0.24686994  0.37878739  1
  V  V76  1  0.75037645  0.24794591  0.50507570  1
  V  V77  1  0.49815541  0.12296670  0.12437007  1
  V  V78  1  0.88689087  0.74951528  0.63386008  1
  V  V79  1  -0.00120024  0.50860851  0.00418452  1
  V  V80  1  0.24755876  0.64442745  0.87820781  1
  V  V81  1  0.63032947  0.37975661  0.75274827  1
  V  V82  1  0.61444304  0.76699518  0.85457521  1
  V  V83  1  0.00241428  -0.00338716  -0.00253015  1
  V  V84  1  0.37445855  -0.01506704  0.37644616  1
  Zn  Zn85  1  0.00653394  0.85709513  0.87714376  1
  Zn  Zn86  1  0.75527809  0.37864245  0.63254032  1
  Zn  Zn87  1  0.24753063  0.25087265  0.49729597  1
  Zn  Zn88  1  0.86420541  0.49689696  0.86459726  1
  Zn  Zn89  1  0.24721073  0.50694266  0.74624188  1
  Zn  Zn90  1  0.37594244  0.50024200  0.37443689  1
  Zn  Zn91  1  0.88275037  0.73110136  0.11753743  1
  Zn  Zn92  1  0.12891039  0.49782283  0.11884407  1
  Zn  Zn93  1  0.24569665  0.12508082  0.38188482  1
  Zn  Zn94  1  0.25244001  0.85829823  0.11272866  1
  Zn  Zn95  1  0.25548969  0.75448829  0.49076853  1
  Zn  Zn96  1  0.12510210  0.86583562  0.24563134  1
  Zn  Zn97  1  -0.00419101  0.50368318  0.49614785  1
  Zn  Zn98  1  0.50970418  0.51675907  0.00260210  1
  Zn  Zn99  1  -0.00173182  0.38343346  0.36934043  1
  Zn  Zn100  1  0.87793011  0.61870865  0.75067360  1
  Zn  Zn101  1  0.87550172  0.37649328  -0.00260048  1
  Zn  Zn102  1  0.11744795  0.13386475  0.49887996  1
  Zn  Zn103  1  0.12597391  0.12489316  -0.00061759  1
  Zn  Zn104  1  0.12978781  0.25022147  0.37586887  1
  Zn  Zn105  1  0.59064987  0.80337864  0.21894600  1
  Zn  Zn106  1  -0.00074580  0.00533790  0.50151062  1
  Zn  Zn107  1  0.18718100  0.18352783  0.18814223  1
  Zn  Zn108  1  0.19041251  0.19213079  0.68396947  1
  Zn  Zn109  1  0.17760646  0.67935350  0.18829077  1
  Zn  Zn110  1  0.19508861  0.68879546  0.68215789  1
  Zn  Zn111  1  0.68486433  0.18341791  0.18666262  1
  Zn  Zn112  1  0.68806775  0.18353977  0.68841697  1
  Zn  Zn113  1  0.72653784  0.67185919  0.18240496  1
  Zn  Zn114  1  0.68536675  0.69243517  0.68475000  1
  Zn  Zn115  1  0.31016530  0.31341021  0.31257659  1
  Zn  Zn116  1  0.31048890  0.31410442  0.81010827  1
  Zn  Zn117  1  0.29483843  0.78266351  0.27114956  1
  Zn  Zn118  1  0.32023476  0.81905446  0.81128510  1
  Zn  Zn119  1  0.81288840  0.30864607  0.31522771  1
  Zn  Zn120  1  0.81451511  0.31197567  0.81297728  1
  Zn  Zn121  1  0.78095481  0.79201884  0.29744816  1
  Zn  Zn122  1  0.81390349  0.80985583  0.81406840  1
  Zn  Zn123  1  0.18509172  0.43438358  0.42994460  1
  Zn  Zn124  1  0.18628213  0.44246153  0.93475573  1
  Zn  Zn125  1  0.18541798  0.93844547  0.43538230  1
  Zn  Zn126  1  0.19135967  0.93608100  0.93484806  1
  Zn  Zn127  1  0.68439761  0.43401208  0.44434154  1
  Zn  Zn128  1  0.68406941  0.43790438  0.94171199  1
  Zn  Zn129  1  0.68661417  0.93790595  0.44489059  1
  Zn  Zn130  1  0.68370398  0.93792432  0.93423841  1
  Zn  Zn131  1  0.31010904  0.06207965  0.06549414  1
  Zn  Zn132  1  0.31005645  0.06505290  0.56088358  1
  Zn  Zn133  1  0.34502377  0.59949256  0.04714991  1
  Zn  Zn134  1  0.31375313  0.56659263  0.55991297  1
  Zn  Zn135  1  0.81180164  0.05957198  0.06036724  1
  Zn  Zn136  1  0.81758135  0.06221086  0.56406941  1
  Zn  Zn137  1  0.81313304  0.55912753  0.05960321  1
  Zn  Zn138  1  0.81463258  0.56308516  0.57445738  1
  Zn  Zn139  1  0.43894794  0.43978533  0.18659422  1
  Zn  Zn140  1  0.43702834  0.44104218  0.68952894  1
  Zn  Zn141  1  0.43438249  0.92561837  0.18529247  1
  Zn  Zn142  1  0.43300004  0.93930475  0.69054217  1
  Zn  Zn143  1  0.93910904  0.43391440  0.18244168  1
  Zn  Zn144  1  0.93904350  0.44078790  0.68771494  1
  Zn  Zn145  1  0.93381319  0.93221129  0.18517009  1
  Zn  Zn146  1  0.94114346  0.93314412  0.68749345  1
  Zn  Zn147  1  0.06227177  0.06309125  0.31447049  1
  Zn  Zn148  1  0.06753659  0.05990749  0.81244291  1
  Zn  Zn149  1  0.06333440  0.55649322  0.31606132  1
  Zn  Zn150  1  0.06652506  0.68577383  0.81486257  1
  Zn  Zn151  1  0.56212463  0.05862868  0.31144505  1
  Zn  Zn152  1  0.55944386  0.05082841  0.80690103  1
  Zn  Zn153  1  0.56963128  0.55930308  0.31367910  1
  Zn  Zn154  1  0.55980529  0.56606209  0.81454924  1
  Zn  Zn155  1  0.43552454  0.18394277  0.43644088  1
  Zn  Zn156  1  0.43519996  0.18732953  0.93857415  1
  Zn  Zn157  1  0.43913073  0.69164226  0.43277898  1
  Zn  Zn158  1  0.44806956  0.69068000  0.93301516  1
  Zn  Zn159  1  0.94285241  0.18545516  0.43706248  1
  Zn  Zn160  1  0.94005870  0.18900145  0.93541970  1
  Zn  Zn161  1  0.94154662  0.68886672  0.44414542  1
  Zn  Zn162  1  0.92741924  0.68222121  0.93402262  1
  Zn  Zn163  1  0.06271661  0.31514115  0.06258348  1
  Zn  Zn164  1  0.06394191  0.31491545  0.56311894  1
  Zn  Zn165  1  0.05778754  0.81042800  0.06884427  1
  Zn  Zn166  1  0.06610036  0.81288689  0.56102647  1
  Zn  Zn167  1  0.55849724  0.31455958  0.06157560  1
  Zn  Zn168  1  0.56397953  0.31373084  0.56522954  1
  Zn  Zn169  1  0.55467967  0.80804854  0.05115994  1
  Zn  Zn170  1  0.56286684  0.81177804  0.55947755  1
  O  O171  1  0.11727486  0.11312395  0.12249179  1
  O  O172  1  0.12883139  0.10976172  0.63066817  1
  O  O173  1  0.12871966  0.61705863  0.10628651  1
  O  O174  1  0.11746821  0.63277764  0.61663363  1
  O  O175  1  0.61867946  0.11713330  0.11648556  1
  O  O176  1  0.61400037  0.11419550  0.62536281  1
  O  O177  1  0.63458752  0.60943906  0.13356752  1
  O  O178  1  0.61758114  0.61902338  0.62144131  1
  O  O179  1  0.39009531  0.37403328  0.37280228  1
  O  O180  1  0.37896441  0.38329401  0.87786115  1
  O  O181  1  0.38997876  0.88642110  0.37241232  1
  O  O182  1  0.37306584  0.88027415  0.89008169  1
  O  O183  1  0.87483530  0.36597488  0.39274261  1
  O  O184  1  0.88413441  0.37506478  0.87696482  1
  O  O185  1  0.87837197  0.87836974  0.38290438  1
  O  O186  1  0.87680459  0.88109724  0.88384920  1
  O  O187  1  0.25870876  0.00219584  0.37079406  1
  O  O188  1  0.24256294  0.01644066  0.86636872  1
  O  O189  1  0.25407929  0.50461128  0.36882722  1
  O  O190  1  0.26167522  0.50412145  0.87031466  1
  O  O191  1  0.75249918  0.00129522  0.36616768  1
  O  O192  1  0.75951876  0.00475920  0.86754840  1
  O  O193  1  0.75000299  0.49383168  0.37033256  1
  O  O194  1  0.74095267  0.51406324  0.87808740  1
  O  O195  1  0.25379160  0.50459242  0.13810033  1
  O  O196  1  0.25878966  0.48894030  0.62737988  1
  O  O197  1  0.23948187  1.00080811  0.13298617  1
  O  O198  1  0.24401938  0.99359360  0.63187809  1
  O  O199  1  0.74122565  0.48648197  0.13679275  1
  O  O200  1  0.73380298  0.49780630  0.62473704  1
  O  O201  1  0.74115238  0.99225163  0.12624400  1
  O  O202  1  0.75272702  0.99073400  0.63108109  1
  O  O203  1  0.00868408  0.36760826  0.24648858  1
  O  O204  1  0.00877083  0.36942519  0.75500417  1
  O  O205  1  -0.00198690  0.87329751  0.26152157  1
  O  O206  1  0.01769433  0.87733487  0.75193156  1
  O  O207  1  0.50811745  0.36813954  0.25735781  1
  O  O208  1  0.50660718  0.36980955  0.75783733  1
  O  O209  1  0.51044177  0.87980423  0.26164397  1
  O  O210  1  0.53611596  0.95067626  0.73347456  1
  O  O211  1  0.49411824  0.12921879  0.24445855  1
  O  O212  1  0.49107458  0.12911304  0.74558477  1
  O  O213  1  0.50179997  0.62483536  0.25485627  1
  O  O214  1  0.49172120  0.62208913  0.73723843  1
  O  O215  1  0.99382789  0.13086060  0.24186789  1
  O  O216  1  0.99231699  0.13283362  0.75750390  1
  O  O217  1  0.99496843  0.63183260  0.25564085  1
  O  O218  1  1.00580354  0.62554450  0.73473897  1
  O  O219  1  0.36792983  0.25949232  0.00393381  1
  O  O220  1  0.37849826  0.24628186  0.51478666  1
  O  O221  1  0.37789535  0.76143333  -0.00407238  1
  O  O222  1  0.37404220  0.74762119  0.51254585  1
  O  O223  1  0.86679040  0.24886167  0.00547429  1
  O  O224  1  0.87049254  0.25307418  0.50780894  1
  O  O225  1  0.86036679  0.75573158  -0.00096119  1
  O  O226  1  0.87141934  0.76020677  0.50994617  1
  O  O227  1  0.12676658  0.25263889  0.49590529  1
  O  O228  1  0.13212343  0.24889501  0.99454277  1
  O  O229  1  0.12689152  0.74575812  0.48596411  1
  O  O230  1  0.11783026  0.73624587  1.00477591  1
  O  O231  1  0.63070814  0.24082446  0.49977286  1
  O  O232  1  0.62860489  0.24383463  0.99405442  1
  O  O233  1  0.63601647  0.73799011  0.50928318  1
  O  O234  1  0.63423009  0.75739354  0.98406664  1
  O  O235  1  0.49332127  0.24328430  0.13046974  1
  O  O236  1  0.49424049  0.24696746  0.63175556  1
  O  O237  1  0.51628940  0.75180786  0.14209203  1
  O  O238  1  0.49458133  0.74267169  0.62159418  1
  O  O239  1  0.99417001  0.24488692  0.13154969  1
  O  O240  1  0.99462640  0.25488024  0.63928261  1
  O  O241  1  0.99414445  0.75105601  0.14451415  1
  O  O242  1  0.99460828  0.74209988  0.61907420  1
  O  O243  1  -0.00475332  0.25316553  0.35710919  1
  O  O244  1  0.00513041  0.25834651  0.86541778  1
  O  O245  1  0.00175526  0.75496822  0.36911246  1
  O  O246  1  -0.00609379  0.74588385  0.87245666  1
  O  O247  1  0.50586664  0.25384998  0.37128950  1
  O  O248  1  0.50412012  0.25627954  0.87156706  1
  O  O249  1  0.50902112  0.76824894  0.38660114  1
  O  O250  1  0.51462573  0.75118090  0.86774093  1
  O  O251  1  0.24179311  0.13006440  0.50115117  1
  O  O252  1  0.25152466  0.13458113  0.99087689  1
  O  O253  1  0.24298647  0.62973821  0.49352727  1
  O  O254  1  0.24435620  0.62486830  0.98646498  1
  O  O255  1  0.74426822  0.12688603  0.49732735  1
  O  O256  1  0.74289599  0.12681208  0.99287814  1
  O  O257  1  0.74399555  0.62735138  0.50384892  1
  O  O258  1  0.74478634  0.63750096  0.98742395  1
  O  O259  1  0.25504243  0.36244933  -0.00793104  1
  O  O260  1  0.24867816  0.37713507  0.51251225  1
  O  O261  1  0.26036047  0.87584249  -0.00101198  1
  O  O262  1  0.24701137  0.87502563  0.51194361  1
  O  O263  1  0.74912152  0.36726113  0.00905830  1
  O  O264  1  0.75762276  0.36426449  0.50557977  1
  O  O265  1  0.75681360  0.87574167  0.00167242  1
  O  O266  1  0.75672784  0.86773624  0.50827339  1
  O  O267  1  0.13161166  0.48913442  0.24393081  1
  O  O268  1  0.12713264  0.48785823  0.75212176  1
  O  O269  1  0.13029543  0.99874364  0.24163611  1
  O  O270  1  0.13402578  0.99425548  0.74038199  1
  O  O271  1  0.63361437  0.48457148  0.24605207  1
  O  O272  1  0.61494323  0.49008975  0.74389193  1
  O  O273  1  0.63316589  1.00708190  0.23472420  1
  O  O274  1  0.65563487  1.02452983  0.74548521  1
  O  O275  1  0.36900022  0.00438957  0.25478467  1
  O  O276  1  0.35962250  0.01073310  0.74684548  1
  O  O277  1  0.36276513  0.49169146  0.25397738  1
  O  O278  1  0.37462958  0.51371972  0.75756966  1
  O  O279  1  0.86792137  0.00613069  0.25180118  1
  O  O280  1  0.87509808  0.00749259  0.75170489  1
  O  O281  1  0.86102425  0.48417073  0.24997162  1
  O  O282  1  0.87342831  0.50327236  0.75041831  1
  O  O283  1  0.12123251  0.37030239  0.35750140  1
  O  O284  1  0.11928241  0.36968469  0.86696340  1
  O  O285  1  0.11522554  0.86660894  0.37309691  1
  O  O286  1  0.12602945  0.88067740  0.85750179  1
  O  O287  1  0.61920499  0.36616370  0.36958524  1
  O  O288  1  0.61775274  0.37079187  0.87108273  1
  O  O289  1  0.61548898  0.88211965  0.37617458  1
  O  O290  1  0.62795896  0.86688474  0.86786500  1
  O  O291  1  0.37917220  0.12931090  0.13618791  1
  O  O292  1  0.37803601  0.13382120  0.63568474  1
  O  O293  1  0.37459774  0.63806198  0.14947561  1
  O  O294  1  0.38161189  0.63330643  0.63084662  1
  O  O295  1  0.87889723  0.12753281  0.12880391  1
  O  O296  1  0.87444509  0.13718144  0.63336999  1
  O  O297  1  0.82764151  0.63590136  0.13591476  1
  O  O298  1  0.89049240  0.63374366  0.62435157  1
  O  O299  1  0.25673926  0.24224966  0.11386726  1
  O  O300  1  0.25948219  0.26299855  0.62437502  1
  O  O301  1  0.24592201  0.76265633  0.16908131  1
  O  O302  1  0.25987401  0.76064256  0.62084417  1
  O  O303  1  0.75259911  0.25254933  0.12033217  1
  O  O304  1  0.75764351  0.24848263  0.61956891  1
  O  O305  1  0.74121330  0.76628542  0.10093651  1
  O  O306  1  0.75881561  0.75695371  0.61747938  1
  O  O307  1  0.25206125  0.24537482  0.37814862  1
  O  O308  1  0.24537834  0.24235717  0.87976870  1
  O  O309  1  0.24005422  0.74090860  0.36822899  1
  O  O310  1  0.25368089  0.74194208  0.87085763  1
  O  O311  1  0.74359413  0.24114518  0.38363006  1
  O  O312  1  0.74425156  0.24310028  0.87993373  1
  O  O313  1  0.75941696  0.73369749  0.39554391  1
  O  O314  1  0.74167817  0.74517307  0.87797770  1
  O  O315  1  0.00050587  0.11596562  0.00528640  1
  O  O316  1  0.00217486  0.11860040  0.50055389  1
  O  O317  1  0.00920792  0.61267629  -0.00943571  1
  O  O318  1  0.01221947  0.62572977  0.50929660  1
  O  O319  1  0.50296924  0.11933422  0.00643013  1
  O  O320  1  0.50752247  0.11897717  0.50257045  1
  O  O321  1  0.45582252  0.61352165  0.01063181  1
  O  O322  1  0.50724542  0.61982122  0.50735362  1
  O  O323  1  0.50837481  0.38329997  0.49241900  1
  O  O324  1  0.48945078  0.37834293  0.99265576  1
  O  O325  1  0.50524844  0.88860584  0.49252367  1
  O  O326  1  0.48784568  0.88767911  1.00170556  1
  O  O327  1  0.98423725  0.37492309  0.50303095  1
  O  O328  1  0.99900427  0.38081958  0.99106736  1
  O  O329  1  0.99310171  0.87649208  0.48903368  1
  O  O330  1  0.99214678  0.87952472  0.99888108  1
  O  O331  1  0.50257041  0.49021729  0.38381478  1
  O  O332  1  0.48803457  0.49802554  0.88016837  1
  O  O333  1  0.49572237  0.99510926  0.37974452  1
  O  O334  1  0.50214174  1.00588116  0.89308739  1
  O  O335  1  1.00077755  0.49550043  0.38357567  1
  O  O336  1  0.99884206  0.48745642  0.88405424  1
  O  O337  1  0.99065789  0.99093745  0.37411313  1
  O  O338  1  0.99827815  0.99880798  0.88654599  1
  O  O339  1  0.00386504  0.00083665  0.11491164  1
  O  O340  1  0.01624635  -0.00529593  0.62606515  1
  O  O341  1  -0.00009897  0.49476796  0.10689423  1
  O  O342  1  -0.00004924  0.51595420  0.61770114  1
  O  O343  1  0.50523161  0.00380781  0.11983026  1
  O  O344  1  0.49361662  0.00978445  0.60974300  1
  O  O345  1  0.52092191  0.49308984  0.12921682  1
  O  O346  1  0.50645632  0.50725599  0.61986052  1
  O  O347  1  0.24087487  0.38564640  0.25090689  1
  O  O348  1  0.24226812  0.37790023  0.74214865  1
  O  O349  1  0.24662043  0.89134757  0.25865260  1
  O  O350  1  0.24381382  0.88356450  0.74427736  1
  O  O351  1  0.74261852  0.37487407  0.24790502  1
  O  O352  1  0.73399543  0.36655979  0.75136187  1
  O  O353  1  0.76098556  0.89076441  0.23495370  1
  O  O354  1  0.76126847  0.88481980  0.73774945  1
  O  O355  1  0.25820882  0.11364914  0.25073792  1
  O  O356  1  0.25567652  0.12233874  0.75521723  1
  O  O357  1  0.23903030  0.60635394  0.26028953  1
  O  O358  1  0.25589067  0.62563685  0.75920807  1
  O  O359  1  0.75368024  0.11425093  0.25307990  1
  O  O360  1  0.76856809  0.12431524  0.75491614  1
  O  O361  1  0.74825936  0.59897929  0.27326534  1
  O  O362  1  0.74741842  0.62724973  0.75773779  1
  O  O363  1  0.37873540  0.11667759  0.36126759  1
  O  O364  1  0.36702925  0.13402780  0.86109479  1
  O  O365  1  0.36095805  0.62465875  0.38164534  1
  O  O366  1  0.36556423  0.62232896  0.86730886  1
  O  O367  1  0.86677463  0.11759849  0.36872062  1
  O  O368  1  0.87242616  0.11897225  0.86818704  1
  O  O369  1  0.86644893  0.61643870  0.39569619  1
  O  O370  1  0.85261377  0.62219755  0.87020065  1
  O  O371  1  0.12464410  0.37662109  0.13797436  1
  O  O372  1  0.14061202  0.37306130  0.63237330  1
  O  O373  1  0.12566717  0.88558958  0.12645665  1
  O  O374  1  0.13372367  0.88038392  0.63485506  1
  O  O375  1  0.63465446  0.36847809  0.13472236  1
  O  O376  1  0.62478297  0.38291771  0.63603320  1
  O  O377  1  0.62913850  0.88120488  0.12177618  1
  O  O378  1  0.63542599  0.88504227  0.61938881  1
  O  O379  1  0.11875164  0.25837189  0.24573362  1
  O  O380  1  0.11947212  0.25540747  0.75373217  1
  O  O381  1  0.10571650  0.74673639  0.26314933  1
  O  O382  1  0.13049952  0.76158428  0.74713068  1
  O  O383  1  0.62076565  0.25524114  0.25600854  1
  O  O384  1  0.61765467  0.25341912  0.75572072  1
  O  O385  1  0.68243535  0.75174241  0.25075869  1
  O  O386  1  0.62768893  0.75905950  0.75474820  1
  O  O387  1  0.37916658  0.24237153  0.24523371  1
  O  O388  1  0.38038087  0.24531764  0.74248817  1
  O  O389  1  0.40178263  0.75083663  0.26351042  1
  O  O390  1  0.37219924  0.74091809  0.74023414  1
  O  O391  1  0.87984402  0.24381558  0.24241690  1
  O  O392  1  0.88370524  0.24470320  0.74440166  1
  O  O393  1  0.88397468  0.75120915  0.25474694  1
  O  O394  1  0.87110709  0.74682892  0.73604907  1
  O  O395  1  0.39051972  0.50419574  0.49897082  1
  O  O396  1  0.36272298  0.48556843  0.99329909  1
  O  O397  1  0.38498265  1.00858893  0.48797277  1
  O  O398  1  0.38575122  1.00891067  0.99857401  1
  O  O399  1  0.86887582  0.48147342  0.51103636  1
  O  O400  1  0.88498739  0.49948357  0.99351622  1
  O  O401  1  0.87359963  0.98658069  0.49601987  1
  O  O402  1  0.88319612  0.99239080  0.99590426  1
  O  O403  1  0.11797193  0.00000763  0.00577823  1
  O  O404  1  0.12470951  -0.00372974  0.51650490  1
  O  O405  1  0.11416006  0.50549369  -0.00175207  1
  O  O406  1  0.12858758  0.51074019  0.49853649  1
  O  O407  1  0.61621314  0.00252045  0.00866436  1
  O  O408  1  0.61646894  0.00538611  0.51084896  1
  O  O409  1  0.62504431  0.49709608  0.01962114  1
  O  O410  1  0.61616667  0.50495304  0.51125245  1
  O  O411  1  0.38044547  0.36660112  0.11583506  1
  O  O412  1  0.36347276  0.36895214  0.63303869  1
  O  O413  1  0.36887409  0.88522595  0.10360727  1
  O  O414  1  0.36702243  0.86803695  0.63354741  1
  O  O415  1  0.86152501  0.36671619  0.12236781  1
  O  O416  1  0.87345796  0.36141967  0.62019465  1
  O  O417  1  0.86566199  0.87309830  0.11048657  1
  O  O418  1  0.87228753  0.86892465  0.61856014  1
  O  O419  1  0.12681231  0.13026124  0.37509536  1
  O  O420  1  0.13291940  0.13374954  0.87588382  1
  O  O421  1  0.13280077  0.62928792  0.38287572  1
  O  O422  1  0.14114871  0.62632148  0.88243617  1
  O  O423  1  0.63015703  0.12675477  0.38228023  1
  O  O424  1  0.62933279  0.12824480  0.87864257  1
  O  O425  1  0.63687813  0.61325997  0.39246161  1
  O  O426  1  0.63333594  0.63732131  0.86752897  1
