# generated using pymatgen
data_V85Zn86O256
_symmetry_space_group_name_H-M   'P 1'
_cell_length_a   16.94693790
_cell_length_b   16.93813437
_cell_length_c   16.94384535
_cell_angle_alpha   89.99661913
_cell_angle_beta   90.03014754
_cell_angle_gamma   89.93301772
_symmetry_Int_Tables_number   1
_chemical_formula_structural   V85Zn86O256
_chemical_formula_sum   'V85 Zn86 O256'
_cell_volume   4863.71852122
_cell_formula_units_Z   1
loop_
 _symmetry_equiv_pos_site_id
 _symmetry_equiv_pos_as_xyz
  1  'x, y, z'
loop_
 _atom_site_type_symbol
 _atom_site_label
 _atom_site_symmetry_multiplicity
 _atom_site_fract_x
 _atom_site_fract_y
 _atom_site_fract_z
 _atom_site_occupancy
  V  V0  1  0.12823085  0.25143520  0.36620941  1
  V  V1  1  0.86833374  0.61641421  0.24804492  1
  V  V2  1  0.24378438  0.75652359  0.00628833  1
  V  V3  1  0.49920004  0.48458257  -0.00109286  1
  V  V4  1  0.62065792  0.50193401  0.62536606  1
  V  V5  1  0.37152534  0.12719742  0.76597241  1
  V  V6  1  0.11970264  -0.00396689  0.12150109  1
  V  V7  1  0.48734710  0.62577986  0.62706402  1
  V  V8  1  0.48749836  0.50156291  0.49824815  1
  V  V9  1  0.73816826  0.25075904  0.00189829  1
  V  V10  1  0.63042023  0.50372583  0.12791891  1
  V  V11  1  -0.00774590  0.87839913  0.36974717  1
  V  V12  1  0.24617028  0.49350907  0.25068830  1
  V  V13  1  0.87525362  0.50312956  0.87528128  1
  V  V14  1  0.00000915  0.49988751  -0.00162595  1
  V  V15  1  0.74701612  0.50222740  0.75112992  1
  V  V16  1  0.60838127  0.37349185  0.75771305  1
  V  V17  1  0.50098941  0.00049496  0.51738429  1
  V  V18  1  0.25042310  0.74771126  0.49959790  1
  V  V19  1  0.62607869  0.75003603  0.88668632  1
  V  V20  1  0.11329030  0.12824555  0.00513660  1
  V  V21  1  0.37688846  0.87697731  -0.01205050  1
  V  V22  1  0.87934790  0.11749223  0.24918939  1
  V  V23  1  0.62852317  0.87429602  0.74804296  1
  V  V24  1  -0.00129362  0.74937962  0.24730867  1
  V  V25  1  0.87608552  0.37500804  0.49845673  1
  V  V26  1  0.36731216  0.00626139  0.37994418  1
  V  V27  1  0.25437192  0.37540138  0.12044664  1
  V  V28  1  0.75159846  0.87579881  0.62124119  1
  V  V29  1  0.37699651  0.48736372  0.88017382  1
  V  V30  1  0.12896619  0.37943177  0.74725382  1
  V  V31  1  0.75355840  -0.00441094  0.26139576  1
  V  V32  1  0.37471891  0.75585645  0.63477046  1
  V  V33  1  0.37957753  0.25288401  0.12534786  1
  V  V34  1  0.58614410  0.92815991  0.20438969  1
  V  V35  1  0.91706069  0.06722085  0.81319031  1
  V  V36  1  0.75038704  0.00666859  0.74392312  1
  V  V37  1  0.25056766  0.24742072  0.49499443  1
  V  V38  1  0.50037946  0.12891717  0.63681132  1
  V  V39  1  0.12525034  0.74863031  0.37354967  1
  V  V40  1  0.00311938  0.74219262  0.74086339  1
  V  V41  1  0.25304567  0.50345968  0.75169447  1
  V  V42  1  0.75075468  0.25029127  0.50220660  1
  V  V43  1  0.87935505  0.73941551  0.61566381  1
  V  V44  1  0.87680035  0.24797067  0.63057121  1
  V  V45  1  0.12327665  0.49245485  0.12801414  1
  V  V46  1  0.50453924  0.74930576  0.24792816  1
  V  V47  1  0.14062718  0.24799074  0.87352332  1
  V  V48  1  0.62233527  0.62786368  0.49836266  1
  V  V49  1  0.62515109  0.12338420  0.50852643  1
  V  V50  1  0.00218055  0.37536335  0.87464584  1
  V  V51  1  0.75027157  0.12408411  0.87521898  1
  V  V52  1  0.74872234  0.37583356  0.62865004  1
  V  V53  1  0.87176034  0.36580728  -0.00031222  1
  V  V54  1  0.25059064  0.87924449  0.62388699  1
  V  V55  1  0.24760759  0.37570889  0.62657362  1
  V  V56  1  0.62661591  0.25216767  0.37733493  1
  V  V57  1  0.12627462  0.12552891  0.49156345  1
  V  V58  1  0.25040945  0.00559695  0.76257582  1
  V  V59  1  0.37005755  0.12778208  0.25374226  1
  V  V60  1  0.50385303  0.87817566  0.37792690  1
  V  V61  1  0.37562957  0.87754903  0.50307731  1
  V  V62  1  -0.00037834  0.24810656  0.24171825  1
  V  V63  1  0.12129375  0.75119538  0.87357599  1
  V  V64  1  -0.00269707  0.24917827  0.75812908  1
  V  V65  1  0.26078415  0.62651145  0.87520443  1
  V  V66  1  0.75014594  0.88169653  0.11998158  1
  V  V67  1  0.50562738  0.74853840  0.75201510  1
  V  V68  1  0.12296882  0.62321052  -0.00203665  1
  V  V69  1  0.74531301  0.62817865  0.88633446  1
  V  V70  1  0.37360411  0.62317691  0.24977040  1
  V  V71  1  0.12690910  0.00147814  0.61982601  1
  V  V72  1  0.74538950  0.61944965  0.36913568  1
  V  V73  1  0.36874290  0.75727892  0.12690937  1
  V  V74  1  0.24649754  -0.00138860  0.24733715  1
  V  V75  1  0.50054731  0.62919589  0.11312776  1
  V  V76  1  0.37739519  0.24961247  0.63075709  1
  V  V77  1  -0.00108983  0.62493062  0.12261861  1
  V  V78  1  0.50514870  0.24961698  0.25018821  1
  V  V79  1  0.25485927  0.24199602  0.00200183  1
  V  V80  1  0.00303212  0.37572853  0.36850562  1
  V  V81  1  -0.00844509  0.00141328  0.49357865  1
  V  V82  1  0.00617264  0.50126892  0.50982794  1
  V  V83  1  0.86769259  0.75207447  0.12122010  1
  V  V84  1  -0.00188867  0.12471517  0.62787955  1
  Zn  Zn85  1  0.75609195  0.12089860  0.37910870  1
  Zn  Zn86  1  0.87034170  0.87697085  0.49143715  1
  Zn  Zn87  1  0.87192530  0.88430939  -0.00893582  1
  Zn  Zn88  1  0.24478389  0.62173406  0.37098720  1
  Zn  Zn89  1  0.37467020  0.37314073  0.49868511  1
  Zn  Zn90  1  0.86991400  0.49432383  0.36894798  1
  Zn  Zn91  1  0.50319316  0.10561292  0.12111778  1
  Zn  Zn92  1  0.74983604  0.75045432  0.49514319  1
  Zn  Zn93  1  0.75252578  0.37631154  0.13508461  1
  Zn  Zn94  1  0.62025161  0.10235398  0.00336322  1
  Zn  Zn95  1  0.87350678  0.24557782  0.12405497  1
  Zn  Zn96  1  0.61342367  0.24987767  0.87254688  1
  Zn  Zn97  1  0.44369966  0.02936623  0.92964459  1
  Zn  Zn98  1  0.12226641  0.87668404  0.74942047  1
  Zn  Zn99  1  0.11155078  0.62766253  0.51247637  1
  Zn  Zn100  1  0.13051656  0.87055290  0.24190170  1
  Zn  Zn101  1  0.37262141  0.49775226  0.37339875  1
  Zn  Zn102  1  0.87964680  0.61991207  0.74292398  1
  Zn  Zn103  1  0.49802649  0.37607872  0.37587147  1
  Zn  Zn104  1  0.63344010  0.38126400  0.25453246  1
  Zn  Zn105  1  0.62732711  0.75410665  0.37088725  1
  Zn  Zn106  1  -0.00826023  0.88396383  0.87160364  1
  Zn  Zn107  1  0.18893478  0.18283456  0.18603254  1
  Zn  Zn108  1  0.18950942  0.18827268  0.68569939  1
  Zn  Zn109  1  0.18525574  0.68139000  0.18693482  1
  Zn  Zn110  1  0.18517616  0.68464095  0.68721225  1
  Zn  Zn111  1  0.68662781  0.17786847  0.18317508  1
  Zn  Zn112  1  0.68617441  0.19072959  0.68982569  1
  Zn  Zn113  1  0.68485486  0.68915791  0.18150186  1
  Zn  Zn114  1  0.68888041  0.68631783  0.68302406  1
  Zn  Zn115  1  0.31352592  0.31672923  0.31241822  1
  Zn  Zn116  1  0.43123419  0.31235887  0.81180446  1
  Zn  Zn117  1  0.31359816  0.81666458  0.31385383  1
  Zn  Zn118  1  0.30560340  0.81408382  0.81066870  1
  Zn  Zn119  1  0.81193304  0.30870763  0.31017914  1
  Zn  Zn120  1  0.81062549  0.31151474  0.81720184  1
  Zn  Zn121  1  0.80805014  0.80817308  0.30663793  1
  Zn  Zn122  1  0.81212255  0.80841827  0.80296863  1
  Zn  Zn123  1  0.18624892  0.43406018  0.43637621  1
  Zn  Zn124  1  0.19198519  0.43369280  0.93785965  1
  Zn  Zn125  1  0.18426024  0.93407806  0.43318517  1
  Zn  Zn126  1  0.18129704  0.93479125  0.94068598  1
  Zn  Zn127  1  0.68467846  0.43962207  0.43848077  1
  Zn  Zn128  1  0.68364839  0.44151984  0.94160997  1
  Zn  Zn129  1  0.68393384  0.94013778  0.44036118  1
  Zn  Zn130  1  0.70353762  0.93470572  0.92586637  1
  Zn  Zn131  1  0.31124792  0.06261596  0.06796328  1
  Zn  Zn132  1  0.31306057  0.06788334  0.56580896  1
  Zn  Zn133  1  0.31417300  0.56518756  0.06109700  1
  Zn  Zn134  1  0.28334237  0.57805469  0.57746156  1
  Zn  Zn135  1  0.80917248  0.06356676  0.06489420  1
  Zn  Zn136  1  0.81371604  0.06382300  0.56604434  1
  Zn  Zn137  1  0.81482541  0.56278212  0.05996685  1
  Zn  Zn138  1  0.80966104  0.55954155  0.55643362  1
  Zn  Zn139  1  0.44119640  0.43637777  0.18740144  1
  Zn  Zn140  1  0.42694575  0.44505194  0.68411643  1
  Zn  Zn141  1  0.41634275  0.93306822  0.18763299  1
  Zn  Zn142  1  0.45291095  0.95308482  0.73378066  1
  Zn  Zn143  1  0.93668706  0.43309724  0.18603800  1
  Zn  Zn144  1  0.93651431  0.43542188  0.68831940  1
  Zn  Zn145  1  0.93806671  0.93944861  0.18469365  1
  Zn  Zn146  1  0.94002303  0.92657481  0.68056607  1
  Zn  Zn147  1  0.06117200  0.06403214  0.31013753  1
  Zn  Zn148  1  0.08319962  0.06762972  0.81640455  1
  Zn  Zn149  1  0.06020764  0.56182953  0.31480470  1
  Zn  Zn150  1  0.06599837  0.56510641  0.81053005  1
  Zn  Zn151  1  0.55571806  0.07123231  0.32461813  1
  Zn  Zn152  1  0.57417981  0.05620829  0.81959850  1
  Zn  Zn153  1  0.55910697  0.56429960  0.31068322  1
  Zn  Zn154  1  0.55993551  0.56536721  0.81606033  1
  Zn  Zn155  1  0.43862936  0.18746875  0.44033818  1
  Zn  Zn156  1  0.44796471  0.19572818  0.94999282  1
  Zn  Zn157  1  0.43338763  0.68909786  0.43668312  1
  Zn  Zn158  1  0.43786874  0.69733874  0.93733987  1
  Zn  Zn159  1  0.93806188  0.18762190  0.43235761  1
  Zn  Zn160  1  0.98316436  0.00902284  1.00222357  1
  Zn  Zn161  1  0.93582853  0.68329041  0.43265937  1
  Zn  Zn162  1  0.91355235  0.71860719  0.91598495  1
  Zn  Zn163  1  0.06402451  0.31387150  0.06097377  1
  Zn  Zn164  1  0.06299532  0.31262160  0.56222760  1
  Zn  Zn165  1  0.05416527  0.82021048  0.05722823  1
  Zn  Zn166  1  0.06146844  0.81592779  0.55826198  1
  Zn  Zn167  1  0.56510019  0.31380335  0.06842949  1
  Zn  Zn168  1  0.56071420  0.31464611  0.56575759  1
  Zn  Zn169  1  0.56325115  0.92340137  0.03853709  1
  Zn  Zn170  1  0.56431444  0.81281806  0.56576810  1
  O  O171  1  0.12726504  0.11829731  0.11224118  1
  O  O172  1  0.11853167  0.12062781  0.61531672  1
  O  O173  1  0.11880727  0.61418699  0.11743986  1
  O  O174  1  0.17341058  0.61347308  0.60463745  1
  O  O175  1  0.61504428  0.12670158  0.11558344  1
  O  O176  1  0.61530928  0.13400710  0.61692014  1
  O  O177  1  0.61305077  0.61698837  0.12704898  1
  O  O178  1  0.61450838  0.62066860  0.61683532  1
  O  O179  1  0.37849423  0.37933311  0.38099656  1
  O  O180  1  0.37142013  0.38834260  0.87578909  1
  O  O181  1  0.38462825  0.88359451  0.38229553  1
  O  O182  1  0.36902453  0.86724140  0.88828028  1
  O  O183  1  0.88298688  0.37210221  0.38380863  1
  O  O184  1  0.88209794  0.38255721  0.88050212  1
  O  O185  1  0.88841503  0.86582148  0.37247546  1
  O  O186  1  0.88381837  0.83359607  0.88477734  1
  O  O187  1  0.26118700  -0.00213983  0.37348098  1
  O  O188  1  0.24079978  -0.00269358  0.86051958  1
  O  O189  1  0.24922537  0.50034456  0.36545659  1
  O  O190  1  0.25795659  0.50659307  0.87422563  1
  O  O191  1  0.74904525  -0.00024644  0.36641319  1
  O  O192  1  0.75962226  0.00967465  0.85688343  1
  O  O193  1  0.75087794  0.51363421  0.38020480  1
  O  O194  1  0.75194526  0.50974773  0.86972557  1
  O  O195  1  0.24435681  0.49388070  0.12707499  1
  O  O196  1  0.26409251  0.48274136  0.63778820  1
  O  O197  1  0.23716048  1.00517642  0.13630483  1
  O  O198  1  0.23804591  0.99883549  0.62222265  1
  O  O199  1  0.73249793  0.50553445  0.11609753  1
  O  O200  1  0.74295932  0.49541741  0.63090452  1
  O  O201  1  0.74967121  0.98722741  0.13907841  1
  O  O202  1  0.75747462  0.98957368  0.63214854  1
  O  O203  1  -0.00554436  0.36609991  0.26135388  1
  O  O204  1  0.01071540  0.36950218  0.75283003  1
  O  O205  1  0.00355497  0.86693001  0.25268695  1
  O  O206  1  0.00250880  0.85966309  0.75140169  1
  O  O207  1  0.50496550  0.36111957  0.25300684  1
  O  O208  1  0.50482273  0.38186788  0.74633378  1
  O  O209  1  0.50044853  0.87269525  0.25659412  1
  O  O210  1  0.51595707  0.85831893  0.73498043  1
  O  O211  1  0.48984382  0.13534658  0.25198179  1
  O  O212  1  0.49326612  0.12181349  0.73916413  1
  O  O213  1  0.49053281  0.63268908  0.24273464  1
  O  O214  1  0.50425888  0.63570885  0.73875447  1
  O  O215  1  0.98875655  0.13198651  0.25281508  1
  O  O216  1  0.99456908  0.12851395  0.75348234  1
  O  O217  1  0.99358233  0.63195258  0.24368872  1
  O  O218  1  1.00200006  0.63544957  0.74512107  1
  O  O219  1  0.36868042  0.24653374  0.01743036  1
  O  O220  1  0.36524415  0.24762705  0.50842088  1
  O  O221  1  0.36241340  0.75449468  0.00730950  1
  O  O222  1  0.37196741  0.76028267  0.50854052  1
  O  O223  1  0.86517968  0.26323048  -0.00030562  1
  O  O224  1  0.87310318  0.25931235  0.50592933  1
  O  O225  1  0.87887172  0.74641799  0.02079477  1
  O  O226  1  0.87630624  0.75072243  0.50655931  1
  O  O227  1  0.12984472  0.24353913  0.49171495  1
  O  O228  1  0.13025548  0.24211323  0.99732009  1
  O  O229  1  0.13243593  0.74828600  0.49325215  1
  O  O230  1  0.12659261  0.74558991  0.99366067  1
  O  O231  1  0.63018859  0.24622785  0.49782541  1
  O  O232  1  0.63352225  0.25792573  0.99475239  1
  O  O233  1  0.62157181  0.73718515  0.49761901  1
  O  O234  1  0.62266114  0.75906464  0.98139135  1
  O  O235  1  0.49291179  0.25172619  0.13424603  1
  O  O236  1  0.48789472  0.24218082  0.61969555  1
  O  O237  1  0.48517719  0.74290077  0.13567795  1
  O  O238  1  0.49186951  0.74381712  0.62812182  1
  O  O239  1  1.00173224  0.25717037  0.13898308  1
  O  O240  1  0.99977000  0.24431226  0.63793380  1
  O  O241  1  0.99681461  0.74728370  0.13390065  1
  O  O242  1  0.98973881  0.75263860  0.62494003  1
  O  O243  1  0.00858677  0.25666929  0.36757009  1
  O  O244  1  0.01395344  0.25750331  0.86298473  1
  O  O245  1  0.00463624  0.75251250  0.36365598  1
  O  O246  1  0.01543761  0.73889029  0.86346017  1
  O  O247  1  0.50855489  0.25003722  0.37079790  1
  O  O248  1  0.50063054  0.25313419  0.87371440  1
  O  O249  1  0.49516786  0.76088951  0.36604666  1
  O  O250  1  0.51499611  0.74266870  0.86441196  1
  O  O251  1  0.24029893  0.13839810  0.50584454  1
  O  O252  1  0.24534265  0.13871723  1.00734702  1
  O  O253  1  0.26944858  0.64554290  0.48405359  1
  O  O254  1  0.24274655  0.63402013  0.99446901  1
  O  O255  1  0.74182141  0.12995449  0.50285236  1
  O  O256  1  0.74604855  0.13403805  0.99096416  1
  O  O257  1  0.73811528  0.62620528  0.49299321  1
  O  O258  1  0.75184957  0.62437534  0.98479473  1
  O  O259  1  0.24470607  0.36349266  0.01417474  1
  O  O260  1  0.24855150  0.36525322  0.50896119  1
  O  O261  1  0.25146883  0.86048369  -0.00385115  1
  O  O262  1  0.25351045  0.86690568  0.50295914  1
  O  O263  1  0.75576364  0.37018750  -0.00108231  1
  O  O264  1  0.75685953  0.37203141  0.50697289  1
  O  O265  1  0.75212220  0.87702144  0.01629640  1
  O  O266  1  0.75117046  0.87270500  0.50490344  1
  O  O267  1  0.13295435  0.50756338  0.23985498  1
  O  O268  1  0.13744974  0.48962839  0.75748962  1
  O  O269  1  0.13035233  1.00301055  0.23957749  1
  O  O270  1  0.13555829  1.00231287  0.73817397  1
  O  O271  1  0.61395625  0.50023368  0.23249160  1
  O  O272  1  0.62748163  0.49378793  0.74560648  1
  O  O273  1  0.62990920  1.00309532  0.26194307  1
  O  O274  1  0.63924331  0.98658928  0.74751267  1
  O  O275  1  0.36755789  0.00775664  0.25929466  1
  O  O276  1  0.35566797  0.01238791  0.73974497  1
  O  O277  1  0.36777193  0.50757257  0.24720927  1
  O  O278  1  0.36246341  0.49977233  0.76254660  1
  O  O279  1  0.87028336  0.00882073  0.24991104  1
  O  O280  1  0.87353509  0.00157496  0.74245251  1
  O  O281  1  0.88068637  0.51288205  0.24855855  1
  O  O282  1  0.86697166  0.50027783  0.75611937  1
  O  O283  1  0.11517205  0.36310942  0.37753736  1
  O  O284  1  0.12154395  0.36882588  0.86822220  1
  O  O285  1  0.11358912  0.86267375  0.37141826  1
  O  O286  1  0.12020046  0.86474989  0.87105022  1
  O  O287  1  0.62213035  0.36330035  0.37770022  1
  O  O288  1  0.62602590  0.38095221  0.85852784  1
  O  O289  1  0.60881913  0.87356937  0.38094487  1
  O  O290  1  0.64118030  0.85724883  0.85722943  1
  O  O291  1  0.38226093  0.12891061  0.13679535  1
  O  O292  1  0.38092088  0.13351180  0.63209454  1
  O  O293  1  0.37823200  0.63262603  0.13404474  1
  O  O294  1  0.38171370  0.63648110  0.62149287  1
  O  O295  1  0.86898994  0.12825211  0.14307162  1
  O  O296  1  0.88510452  0.13712434  0.62018018  1
  O  O297  1  0.87857266  0.62969542  0.13082160  1
  O  O298  1  0.86977537  0.63611110  0.62125360  1
  O  O299  1  0.25646618  0.25704809  0.12372570  1
  O  O300  1  0.25618764  0.25754975  0.61857634  1
  O  O301  1  0.25413035  0.74138803  0.11654501  1
  O  O302  1  0.25829787  0.75864277  0.61884315  1
  O  O303  1  0.75076096  0.25196494  0.11343656  1
  O  O304  1  0.75665699  0.25672269  0.62179991  1
  O  O305  1  0.75676610  0.76620200  0.13622316  1
  O  O306  1  0.76295785  0.75404941  0.62040211  1
  O  O307  1  0.24150588  0.25651449  0.38323715  1
  O  O308  1  0.24087930  0.25919144  0.88850754  1
  O  O309  1  0.24039711  0.75467051  0.37970113  1
  O  O310  1  0.23850576  0.74334138  0.87844609  1
  O  O311  1  0.74261195  0.24640239  0.38597442  1
  O  O312  1  0.74522205  0.24410672  0.88222463  1
  O  O313  1  0.74577338  0.73815747  0.37583562  1
  O  O314  1  0.74016047  0.73430084  0.86508434  1
  O  O315  1  0.01531171  0.12626384  -0.00112498  1
  O  O316  1  0.00708452  0.12002651  0.50352221  1
  O  O317  1  0.00567871  0.61669605  0.00664428  1
  O  O318  1  -0.00341928  0.60677628  0.49584814  1
  O  O319  1  0.49484810  0.10625286  0.00082157  1
  O  O320  1  0.50485080  0.11833027  0.51124145  1
  O  O321  1  0.49375908  0.62847966  0.01206372  1
  O  O322  1  0.50241970  0.62146852  0.50611559  1
  O  O323  1  0.49762099  0.38799835  0.50242669  1
  O  O324  1  0.49715811  0.38640544  1.00409408  1
  O  O325  1  0.49657298  0.88326743  0.49859477  1
  O  O326  1  0.47573679  0.86354332  1.00032841  1
  O  O327  1  0.99363027  0.37878095  0.49271082  1
  O  O328  1  0.99335353  0.37931954  0.99358005  1
  O  O329  1  0.99873517  0.88505682  0.48912949  1
  O  O330  1  0.99504839  0.88898576  0.99077766  1
  O  O331  1  0.49749370  0.50016693  0.38476247  1
  O  O332  1  0.49253871  0.50795905  0.89023058  1
  O  O333  1  0.48867310  0.99545232  0.38689188  1
  O  O334  1  0.49029331  0.98746301  0.83856067  1
  O  O335  1  0.99556257  0.48887805  0.37982489  1
  O  O336  1  0.99581597  0.49637639  0.87774685  1
  O  O337  1  1.00711397  0.99057350  0.38142158  1
  O  O338  1  0.99334536  1.00851990  0.86390570  1
  O  O339  1  0.01556707  0.00234493  0.12496682  1
  O  O340  1  0.01053197  0.00300665  0.61725897  1
  O  O341  1  0.00737552  0.50204812  0.12027549  1
  O  O342  1  -0.00224479  0.49186722  0.60887838  1
  O  O343  1  0.51203119  -0.02049871  0.13976378  1
  O  O344  1  0.49274751  0.00713216  0.62049941  1
  O  O345  1  0.50188790  0.50806426  0.11421497  1
  O  O346  1  0.49955708  0.51035044  0.61986499  1
  O  O347  1  0.25113132  0.38677541  0.23959695  1
  O  O348  1  0.23903857  0.38050978  0.74376071  1
  O  O349  1  0.24830005  0.89180459  0.25549837  1
  O  O350  1  0.24732267  0.88869950  0.74155509  1
  O  O351  1  0.74737350  0.37465605  0.24941951  1
  O  O352  1  0.74552073  0.38733428  0.74673858  1
  O  O353  1  0.74666073  0.88476614  0.24491191  1
  O  O354  1  0.74974527  0.88093991  0.73984918  1
  O  O355  1  0.26236882  0.11756955  0.25029640  1
  O  O356  1  0.25496006  0.11528325  0.74805498  1
  O  O357  1  0.25627531  0.61327879  0.24934557  1
  O  O358  1  0.24500426  0.61412394  0.76255079  1
  O  O359  1  0.75776282  0.11402683  0.25383323  1
  O  O360  1  0.74694597  0.11628724  0.75208215  1
  O  O361  1  0.75679357  0.62919661  0.25513034  1
  O  O362  1  0.74824593  0.61066092  0.75064754  1
  O  O363  1  0.37982983  0.11675072  0.36907599  1
  O  O364  1  0.37922193  0.12465251  0.86628988  1
  O  O365  1  0.37462149  0.62448144  0.35873521  1
  O  O366  1  0.36294534  0.62468751  0.88164905  1
  O  O367  1  0.87188146  0.13109813  0.35842204  1
  O  O368  1  0.86190110  0.13419320  0.86739679  1
  O  O369  1  0.86519361  0.62225005  0.36464168  1
  O  O370  1  0.86115914  0.62392803  0.86778088  1
  O  O371  1  0.13148872  0.38689760  0.12316328  1
  O  O372  1  0.13399836  0.36756681  0.63518347  1
  O  O373  1  0.12475279  0.89073686  0.12261742  1
  O  O374  1  0.13070993  0.88510366  0.62356226  1
  O  O375  1  0.62675953  0.39126576  0.12730431  1
  O  O376  1  0.62802739  0.38325542  0.63483351  1
  O  O377  1  0.63388525  0.87433456  0.12661358  1
  O  O378  1  0.64281406  0.86538916  0.63242070  1
  O  O379  1  0.11885432  0.23865053  0.26032585  1
  O  O380  1  0.12330858  0.25430866  0.75757303  1
  O  O381  1  0.11798882  0.74934694  0.25446781  1
  O  O382  1  0.12141056  0.75108804  0.75325603  1
  O  O383  1  0.61905653  0.24475338  0.26143296  1
  O  O384  1  0.62735086  0.27125844  0.74905852  1
  O  O385  1  0.60811193  0.74707742  0.25055559  1
  O  O386  1  0.61981574  0.75280876  0.74928053  1
  O  O387  1  0.37953587  0.24403378  0.24524086  1
  O  O388  1  0.37104636  0.24191606  0.73952470  1
  O  O389  1  0.37671570  0.74591697  0.24417720  1
  O  O390  1  0.38200617  0.75810504  0.74035757  1
  O  O391  1  0.88446701  0.24098736  0.24728252  1
  O  O392  1  0.88686272  0.26050859  0.74458428  1
  O  O393  1  0.88286015  0.74015424  0.24199458  1
  O  O394  1  0.88396648  0.74344135  0.73243923  1
  O  O395  1  0.38368354  0.50485470  0.50216614  1
  O  O396  1  0.38777634  0.50508735  0.99512482  1
  O  O397  1  0.37941645  0.99833674  0.49711281  1
  O  O398  1  0.36446043  0.98306405  1.00233065  1
  O  O399  1  0.88118138  0.48664699  0.49790231  1
  O  O400  1  0.88057366  0.49293391  0.99299033  1
  O  O401  1  0.88873833  1.00088445  0.50197710  1
  O  O402  1  0.87030585  1.00002654  0.99751683  1
  O  O403  1  0.12694629  0.01147172  0.00851979  1
  O  O404  1  0.11969619  0.00743688  0.50239038  1
  O  O405  1  0.12088148  0.50278539  0.00552781  1
  O  O406  1  0.10880025  0.49771496  0.49485550  1
  O  O407  1  0.62010950  -0.00853883  -0.02617654  1
  O  O408  1  0.61299452  0.01103338  0.49993530  1
  O  O409  1  0.60785113  0.49992050  0.00855583  1
  O  O410  1  0.61401555  0.51045223  0.50578578  1
  O  O411  1  0.36655692  0.36529897  0.13198722  1
  O  O412  1  0.36771039  0.36481984  0.62299603  1
  O  O413  1  0.36538171  0.86119280  0.11716332  1
  O  O414  1  0.36796774  0.87056734  0.61983692  1
  O  O415  1  0.87202174  0.37438740  0.11311138  1
  O  O416  1  0.87006657  0.36793009  0.61834881  1
  O  O417  1  0.86467011  0.86877598  0.12781010  1
  O  O418  1  0.86658066  0.86253857  0.61757432  1
  O  O419  1  0.12119073  0.13202455  0.38602878  1
  O  O420  1  0.13149603  0.13564472  0.89139995  1
  O  O421  1  0.12424773  0.63771435  0.37923167  1
  O  O422  1  0.13476597  0.62906529  0.88262334  1
  O  O423  1  0.62479795  0.13637865  0.39208064  1
  O  O424  1  0.63869132  0.13007859  0.87432187  1
  O  O425  1  0.62787156  0.62698067  0.38051285  1
  O  O426  1  0.63634753  0.63358395  0.87228774  1
