# generated using pymatgen
data_V85Zn86O256
_symmetry_space_group_name_H-M   'P 1'
_cell_length_a   16.92676317
_cell_length_b   16.91946761
_cell_length_c   16.92281063
_cell_angle_alpha   90.07913350
_cell_angle_beta   89.95601752
_cell_angle_gamma   90.01802290
_symmetry_Int_Tables_number   1
_chemical_formula_structural   V85Zn86O256
_chemical_formula_sum   'V85 Zn86 O256'
_cell_volume   4846.54826790
_cell_formula_units_Z   1
loop_
 _symmetry_equiv_pos_site_id
 _symmetry_equiv_pos_as_xyz
  1  'x, y, z'
loop_
 _atom_site_type_symbol
 _atom_site_label
 _atom_site_symmetry_multiplicity
 _atom_site_fract_x
 _atom_site_fract_y
 _atom_site_fract_z
 _atom_site_occupancy
  V  V0  1  0.13297136  0.62878695  0.50042506  1
  V  V1  1  0.12292816  0.25043289  0.87380472  1
  V  V2  1  0.12469329  0.12369694  -0.00102646  1
  V  V3  1  0.12199318  0.49905017  0.61599287  1
  V  V4  1  0.25009267  0.75166376  0.00597127  1
  V  V5  1  0.50026897  0.00485098  0.01083092  1
  V  V6  1  0.87432567  0.75411321  0.61518911  1
  V  V7  1  0.25019415  0.11889672  0.36799164  1
  V  V8  1  0.74802339  0.76171095  0.00149672  1
  V  V9  1  0.49747380  0.24871708  0.75178282  1
  V  V10  1  0.00077444  0.37830887  0.38006093  1
  V  V11  1  0.49041867  0.36827786  0.37874333  1
  V  V12  1  -0.00621988  0.24511208  0.25337265  1
  V  V13  1  0.13317687  0.75405006  0.37971723  1
  V  V14  1  0.54557894  0.69198705  0.19159285  1
  V  V15  1  0.36063467  0.24929709  0.12388845  1
  V  V16  1  0.62388002  0.25031735  0.87491014  1
  V  V17  1  -0.00963775  -0.00010209  0.50299141  1
  V  V18  1  0.63171482  0.24950722  0.37579296  1
  V  V19  1  0.49879714  0.51230312  0.01013049  1
  V  V20  1  0.49732489  0.87499589  0.86736805  1
  V  V21  1  0.37452871  0.25499037  0.61931680  1
  V  V22  1  0.87849321  0.50141184  0.38196948  1
  V  V23  1  0.50115737  -0.00185387  0.50089894  1
  V  V24  1  0.76081911  0.11440430  0.37431325  1
  V  V25  1  0.13938690  0.88054339  0.24996206  1
  V  V26  1  0.87125836  0.11842137  0.74609707  1
  V  V27  1  0.37344391  0.75047749  0.13022794  1
  V  V28  1  0.62370329  0.74845418  0.37408494  1
  V  V29  1  0.87322977  0.50005796  0.87438562  1
  V  V30  1  0.00198420  0.62372702  0.12578491  1
  V  V31  1  0.00337198  0.75283938  0.25140602  1
  V  V32  1  0.12475152  0.24877974  0.37551182  1
  V  V33  1  0.74755290  0.50339361  0.74481597  1
  V  V34  1  0.12766669  0.37448235  0.24328725  1
  V  V35  1  0.74753427  0.62559256  0.88608455  1
  V  V36  1  0.49905259  0.12439342  0.62481714  1
  V  V37  1  0.74844047  0.37612276  0.12374970  1
  V  V38  1  0.87159680  0.24876950  0.62252444  1
  V  V39  1  0.62054160  0.74930805  0.87449895  1
  V  V40  1  0.25481592  0.50213882  0.74944590  1
  V  V41  1  0.87621274  0.76003190  0.12345449  1
  V  V42  1  0.37044872  0.86555244  0.49913948  1
  V  V43  1  0.76199772  0.00011230  0.23885361  1
  V  V44  1  0.75022052  0.24822332  -0.00111554  1
  V  V45  1  0.13135195  0.00038328  0.62775793  1
  V  V46  1  0.50320662  0.87103919  0.37121483  1
  V  V47  1  0.37149385  -0.00276080  0.36987981  1
  V  V48  1  0.74672956  0.11582789  0.87003779  1
  V  V49  1  0.87538397  0.62661031  0.74860014  1
  V  V50  1  0.12339910  0.37719576  0.74647244  1
  V  V51  1  -0.00257514  0.24565358  0.74344477  1
  V  V52  1  0.37578591  0.62563001  0.25149184  1
  V  V53  1  0.25251311  0.49701442  0.24595173  1
  V  V54  1  0.88068655  0.62418622  0.25194025  1
  V  V55  1  0.62946867  0.88248344  0.75041989  1
  V  V56  1  -0.01114044  0.87960942  0.37805715  1
  V  V57  1  -0.00076039  0.50009804  -0.00116328  1
  V  V58  1  0.12643705  0.75125096  0.87263650  1
  V  V59  1  0.56506434  0.56025831  0.67081907  1
  V  V60  1  0.62168105  0.12287108  0.01323000  1
  V  V61  1  0.74115795  0.37637531  0.62182484  1
  V  V62  1  0.26126993  0.62259946  0.87350088  1
  V  V63  1  0.62938954  0.12737149  0.49889753  1
  V  V64  1  0.87424881  0.24478495  0.12622032  1
  V  V65  1  0.38864994  0.74514508  0.63242556  1
  V  V66  1  0.75516342  0.88431056  0.62168613  1
  V  V67  1  0.12701471  0.62505979  0.00019056  1
  V  V68  1  0.50115760  0.24117119  0.24072342  1
  V  V69  1  -0.00149791  0.11983123  0.12924134  1
  V  V70  1  0.14238672  -0.00185730  0.12894358  1
  V  V71  1  0.75067337  0.49739296  0.25264222  1
  V  V72  1  0.36797758  0.00050397  0.87061692  1
  V  V73  1  0.12355168  0.12169653  0.50282261  1
  V  V74  1  -0.00043569  0.62227258  0.61756832  1
  V  V75  1  0.87058874  0.37222588  0.50018836  1
  V  V76  1  0.37006852  0.87787794  0.00426171  1
  V  V77  1  0.36385251  0.12116184  0.74637250  1
  V  V78  1  0.62230821  0.62257469  0.50152089  1
  V  V79  1  0.62579407  0.88705234  0.23843893  1
  V  V80  1  0.49761086  0.49598786  0.50146692  1
  V  V81  1  0.25358753  0.25487631  0.49639802  1
  V  V82  1  0.25112624  0.86835249  0.62941015  1
  V  V83  1  0.00216139  0.75322275  0.74756370  1
  V  V84  1  0.48703255  0.37507773  0.88430184  1
  Zn  Zn85  1  0.87479474  0.37348173  -0.00283779  1
  Zn  Zn86  1  0.62910450  0.00460863  0.63148531  1
  Zn  Zn87  1  -0.00334237  0.37566758  0.87297523  1
  Zn  Zn88  1  0.87646147  -0.00316832  0.87330993  1
  Zn  Zn89  1  0.37601553  0.11481801  0.24069320  1
  Zn  Zn90  1  0.75239214  0.62604174  0.37881019  1
  Zn  Zn91  1  0.87570515  0.88124615  -0.00267383  1
  Zn  Zn92  1  0.62191248  0.37650257  0.25016296  1
  Zn  Zn93  1  0.13263377  0.49424280  0.11953947  1
  Zn  Zn94  1  0.62474384  0.51494022  0.12346533  1
  Zn  Zn95  1  0.25192694  0.37855424  0.61689990  1
  Zn  Zn96  1  0.75099570  0.75356409  0.49695830  1
  Zn  Zn97  1  0.37219817  0.49741713  0.37925554  1
  Zn  Zn98  1  0.38841758  0.62391892  0.74898124  1
  Zn  Zn99  1  0.24491410  0.12143237  0.87136993  1
  Zn  Zn100  1  0.62037504  0.37824162  0.74935728  1
  Zn  Zn101  1  0.24412003  0.25886587  0.00068313  1
  Zn  Zn102  1  0.36206919  0.38456997  0.01060726  1
  Zn  Zn103  1  0.13015476  0.88366619  0.75407309  1
  Zn  Zn104  1  0.25411938  0.62651774  0.37886612  1
  Zn  Zn105  1  -0.00100303  -0.00340831  -0.00294919  1
  Zn  Zn106  1  -0.00276905  0.87672351  0.87647096  1
  Zn  Zn107  1  0.18395046  0.18411440  0.19073170  1
  Zn  Zn108  1  0.18649690  0.18871204  0.68322138  1
  Zn  Zn109  1  0.18845060  0.68630568  0.18999620  1
  Zn  Zn110  1  0.19183712  0.68946872  0.68525181  1
  Zn  Zn111  1  0.69010209  0.18415724  0.19311206  1
  Zn  Zn112  1  0.68815003  0.19068183  0.68714938  1
  Zn  Zn113  1  0.70732249  0.69162091  0.19291896  1
  Zn  Zn114  1  0.69163195  0.69911528  0.69428767  1
  Zn  Zn115  1  0.31290524  0.30893061  0.30712707  1
  Zn  Zn116  1  0.30768346  0.31051681  0.80968646  1
  Zn  Zn117  1  0.31389117  0.80989639  0.31276658  1
  Zn  Zn118  1  0.31296471  0.81107685  0.81045613  1
  Zn  Zn119  1  0.81203760  0.31019607  0.31370434  1
  Zn  Zn120  1  0.80930052  0.31359695  0.81006760  1
  Zn  Zn121  1  0.80930455  0.81635341  0.30914799  1
  Zn  Zn122  1  0.81146856  0.81477142  0.80891127  1
  Zn  Zn123  1  0.18802030  0.43978466  0.43256300  1
  Zn  Zn124  1  0.18858139  0.43687601  0.93414200  1
  Zn  Zn125  1  0.18828051  0.93482463  0.44124684  1
  Zn  Zn126  1  0.18616838  0.93754375  0.94049555  1
  Zn  Zn127  1  0.68435331  0.43750293  0.43839001  1
  Zn  Zn128  1  0.68176865  0.43710486  0.94046275  1
  Zn  Zn129  1  0.68900652  0.93858580  0.43811431  1
  Zn  Zn130  1  0.68467877  0.93893134  0.94010688  1
  Zn  Zn131  1  0.31380426  0.07128741  0.05951955  1
  Zn  Zn132  1  0.31065668  0.06025437  0.55745334  1
  Zn  Zn133  1  0.31801822  0.56415272  0.06621990  1
  Zn  Zn134  1  0.31471040  0.56357311  0.56437306  1
  Zn  Zn135  1  0.81258717  0.06275878  0.06020691  1
  Zn  Zn136  1  0.81096779  0.06570561  0.56158832  1
  Zn  Zn137  1  0.81514650  0.56479330  0.06461630  1
  Zn  Zn138  1  0.80984176  0.56303113  0.56077296  1
  Zn  Zn139  1  0.43859230  0.43401972  0.18826366  1
  Zn  Zn140  1  0.43307145  0.43030016  0.69356815  1
  Zn  Zn141  1  0.43696029  0.93169116  0.18841249  1
  Zn  Zn142  1  0.43685082  0.93630938  0.68737130  1
  Zn  Zn143  1  0.93780068  0.43425071  0.18851843  1
  Zn  Zn144  1  0.93670612  0.43755649  0.68544022  1
  Zn  Zn145  1  0.94393299  0.93824792  0.19088622  1
  Zn  Zn146  1  0.94106235  0.93736915  0.68491651  1
  Zn  Zn147  1  0.06146534  0.05890888  0.31374860  1
  Zn  Zn148  1  0.05733721  0.06384079  0.80958342  1
  Zn  Zn149  1  0.06605744  0.56106228  0.31462104  1
  Zn  Zn150  1  0.06549455  0.56519848  0.81035155  1
  Zn  Zn151  1  0.56365551  0.06141338  0.31403261  1
  Zn  Zn152  1  0.55617081  0.06227997  0.81638628  1
  Zn  Zn153  1  0.56593688  0.55425100  0.31927736  1
  Zn  Zn154  1  0.56291191  0.55905419  0.83787867  1
  Zn  Zn155  1  0.43788645  0.18462239  0.43482800  1
  Zn  Zn156  1  0.43319603  0.18637633  0.94059843  1
  Zn  Zn157  1  0.44155772  0.68572926  0.43933300  1
  Zn  Zn158  1  0.43753785  0.68999490  0.93912766  1
  Zn  Zn159  1  0.93780039  0.18653143  0.44234964  1
  Zn  Zn160  1  0.93752069  0.18335114  0.93578424  1
  Zn  Zn161  1  0.94498025  0.68865052  0.43758728  1
  Zn  Zn162  1  0.93655915  0.69019233  0.93718903  1
  Zn  Zn163  1  0.05917188  0.31184160  0.06116760  1
  Zn  Zn164  1  0.05950417  0.31164066  0.56070192  1
  Zn  Zn165  1  0.06328833  0.81705542  0.06443434  1
  Zn  Zn166  1  0.06365119  0.81510034  0.56044334  1
  Zn  Zn167  1  0.56396222  0.31341682  0.06276084  1
  Zn  Zn168  1  0.56222332  0.31004758  0.55966496  1
  Zn  Zn169  1  0.56240696  0.81868238  0.05279555  1
  Zn  Zn170  1  0.56646255  0.81343331  0.56171517  1
  O  O171  1  0.11832089  0.11991508  0.11962954  1
  O  O172  1  0.13158596  0.11745922  0.61089001  1
  O  O173  1  0.11810424  0.62345221  0.11819724  1
  O  O174  1  0.12000045  0.62053149  0.61930331  1
  O  O175  1  0.62766785  0.13155607  0.11215167  1
  O  O176  1  0.62014628  0.12513460  0.61784109  1
  O  O177  1  0.61719102  0.63590957  0.14019010  1
  O  O178  1  0.62683844  0.63086102  0.62184712  1
  O  O179  1  0.38747750  0.37085566  0.37377273  1
  O  O180  1  0.38548406  0.36557199  0.87674104  1
  O  O181  1  0.38266998  0.87607992  0.38134602  1
  O  O182  1  0.37949313  0.87964440  0.88007398  1
  O  O183  1  0.87903305  0.37894411  0.38233468  1
  O  O184  1  0.87554245  0.38520018  0.87469653  1
  O  O185  1  0.89032071  0.86763877  0.37390267  1
  O  O186  1  0.87678456  0.87713842  0.87416413  1
  O  O187  1  0.25981532  0.00620580  0.38385951  1
  O  O188  1  0.26279875  0.00101919  0.88004097  1
  O  O189  1  0.25383739  0.50406828  0.36454666  1
  O  O190  1  0.23971170  0.51270841  0.86292816  1
  O  O191  1  0.74883765  0.00934720  0.36872398  1
  O  O192  1  0.74728540  0.01330868  0.87595159  1
  O  O193  1  0.75834232  0.49952487  0.36818738  1
  O  O194  1  0.75048419  0.50653591  0.86728242  1
  O  O195  1  0.24925859  0.50576832  0.13990273  1
  O  O196  1  0.24128402  0.49848710  0.62978886  1
  O  O197  1  0.24161784  1.00659661  0.12293279  1
  O  O198  1  0.24329892  0.98668823  0.61722759  1
  O  O199  1  0.74992480  0.49378573  0.13145606  1
  O  O200  1  0.75470167  0.49423194  0.63727418  1
  O  O201  1  0.74991101  1.00810250  0.13969957  1
  O  O202  1  0.74908669  0.98833808  0.62310563  1
  O  O203  1  0.00428315  0.36686572  0.26052620  1
  O  O204  1  0.00890046  0.36832015  0.74843173  1
  O  O205  1  0.00876906  0.87227166  0.26316918  1
  O  O206  1  0.00642144  0.86219102  0.74739030  1
  O  O207  1  0.50220277  0.36318854  0.26199915  1
  O  O208  1  0.50070315  0.36882306  0.76494488  1
  O  O209  1  0.51178512  0.88056872  0.26251425  1
  O  O210  1  0.50445815  0.87803126  0.76215507  1
  O  O211  1  0.49697592  0.13802495  0.25905534  1
  O  O212  1  0.49143292  0.13036324  0.74315021  1
  O  O213  1  0.49574176  0.62382304  0.25467014  1
  O  O214  1  0.50530166  0.60577370  0.74609521  1
  O  O215  1  1.00538504  0.13412764  0.24395603  1
  O  O216  1  0.99058315  0.13972201  0.74950409  1
  O  O217  1  0.99898451  0.63110969  0.24654362  1
  O  O218  1  0.99838509  0.63505235  0.73935462  1
  O  O219  1  0.37004715  0.24851739  0.01423467  1
  O  O220  1  0.36595601  0.24124756  0.50696521  1
  O  O221  1  0.36911514  0.75720183  0.00685439  1
  O  O222  1  0.38232198  0.76038696  0.50827659  1
  O  O223  1  0.86948654  0.25071551  0.00698074  1
  O  O224  1  0.87747374  0.26201089  0.50732778  1
  O  O225  1  0.86801633  0.75052717  0.00778924  1
  O  O226  1  0.87489266  0.74455885  0.51174081  1
  O  O227  1  0.12811478  0.24093836  0.49475947  1
  O  O228  1  0.12045262  0.24459562  0.98984838  1
  O  O229  1  0.12079822  0.74190411  0.49208876  1
  O  O230  1  0.13338238  0.74644253  0.99511712  1
  O  O231  1  0.62060139  0.23604136  0.49137554  1
  O  O232  1  0.62836169  0.24270659  0.99321165  1
  O  O233  1  0.62574652  0.74266808  0.49128818  1
  O  O234  1  0.63429689  0.75678930  0.98772778  1
  O  O235  1  0.50126819  0.25111351  0.13938244  1
  O  O236  1  0.49205361  0.24502722  0.62845426  1
  O  O237  1  0.49369068  0.75076751  0.12123738  1
  O  O238  1  0.48727675  0.75814398  0.62559245  1
  O  O239  1  0.99395713  0.24237551  0.13235974  1
  O  O240  1  0.98558182  0.25702580  0.63147081  1
  O  O241  1  0.99683555  0.74293896  0.13163701  1
  O  O242  1  0.99526527  0.74603807  0.62917927  1
  O  O243  1  0.00352694  0.25367313  0.36934296  1
  O  O244  1  0.00767729  0.25200764  0.86572743  1
  O  O245  1  0.00977523  0.76096118  0.37181330  1
  O  O246  1  0.00931082  0.74752883  0.86518581  1
  O  O247  1  0.50716895  0.25502842  0.37036179  1
  O  O248  1  0.50432860  0.25569177  0.87447784  1
  O  O249  1  0.51216279  0.75875478  0.37838173  1
  O  O250  1  0.50811575  0.76148521  0.88317997  1
  O  O251  1  0.24284572  0.13306402  0.49010727  1
  O  O252  1  0.23515548  0.13340806  0.99712230  1
  O  O253  1  0.23749695  0.62140726  0.49933031  1
  O  O254  1  0.24863887  0.63062426  0.99290220  1
  O  O255  1  0.74095849  0.11924624  0.48749618  1
  O  O256  1  0.74062672  0.13076649  0.99141817  1
  O  O257  1  0.73733477  0.62672325  0.49850292  1
  O  O258  1  0.75511819  0.63133181  0.98958404  1
  O  O259  1  0.24970355  0.37267985  -0.00135851  1
  O  O260  1  0.24309131  0.35955183  0.49637414  1
  O  O261  1  0.26229299  0.86707183  -0.00379317  1
  O  O262  1  0.26163667  0.87501775  0.50963143  1
  O  O263  1  0.75140285  0.36842162  0.00726738  1
  O  O264  1  0.75853064  0.38105890  0.50833442  1
  O  O265  1  0.75231796  0.86552503  -0.00186357  1
  O  O266  1  0.74364313  0.87219788  0.51594934  1
  O  O267  1  0.13248461  0.49107773  0.24941973  1
  O  O268  1  0.13000778  0.49431290  0.73945372  1
  O  O269  1  0.12379656  0.99257954  0.24245086  1
  O  O270  1  0.11937872  1.00245018  0.73226463  1
  O  O271  1  0.63651702  0.49751770  0.24673174  1
  O  O272  1  0.62785934  0.50383623  0.74541159  1
  O  O273  1  0.62965809  0.99068746  0.25086170  1
  O  O274  1  0.61816182  0.98831785  0.75074231  1
  O  O275  1  0.38104546  -0.00258651  0.26470456  1
  O  O276  1  0.38051750  0.00901426  0.75754662  1
  O  O277  1  0.37073773  0.50654680  0.25170537  1
  O  O278  1  0.35925163  0.50249274  0.74353174  1
  O  O279  1  0.86120545  -0.00797491  0.24974788  1
  O  O280  1  0.88182348  0.01568393  0.74581193  1
  O  O281  1  0.87128329  0.50209805  0.26023001  1
  O  O282  1  0.86728598  0.50608183  0.75483987  1
  O  O283  1  0.11611568  0.36979147  0.36870076  1
  O  O284  1  0.11940902  0.36884835  0.86270321  1
  O  O285  1  0.12044386  0.87000710  0.37067061  1
  O  O286  1  0.12798573  0.86244954  0.87267809  1
  O  O287  1  0.61909653  0.36424804  0.37342398  1
  O  O288  1  0.61599761  0.36229675  0.87562387  1
  O  O289  1  0.62017314  0.86859923  0.36782315  1
  O  O290  1  0.61774085  0.87257098  0.86997176  1
  O  O291  1  0.37575959  0.14035018  0.12714732  1
  O  O292  1  0.37875286  0.12971100  0.62865677  1
  O  O293  1  0.37695975  0.63736745  0.13808271  1
  O  O294  1  0.37395105  0.64140283  0.62600250  1
  O  O295  1  0.88263573  0.13710986  0.12239622  1
  O  O296  1  0.86615170  0.13776730  0.63156980  1
  O  O297  1  0.88403061  0.63201288  0.13221681  1
  O  O298  1  0.88214132  0.63019716  0.62813895  1
  O  O299  1  0.25798576  0.24928897  0.12969787  1
  O  O300  1  0.25666983  0.25084962  0.61438799  1
  O  O301  1  0.25637857  0.74485305  0.11323641  1
  O  O302  1  0.25967558  0.76284192  0.62424910  1
  O  O303  1  0.75799189  0.25386531  0.12356486  1
  O  O304  1  0.76174454  0.26320624  0.63129516  1
  O  O305  1  0.76295638  0.74653479  0.11343279  1
  O  O306  1  0.75987233  0.75927528  0.62301126  1
  O  O307  1  0.24498263  0.24244374  0.37871756  1
  O  O308  1  0.23262295  0.24652124  0.87014654  1
  O  O309  1  0.23742345  0.74796215  0.37414109  1
  O  O310  1  0.24558512  0.74394674  0.88299240  1
  O  O311  1  0.73724935  0.23885073  0.36560143  1
  O  O312  1  0.74055536  0.24591691  0.87925252  1
  O  O313  1  0.73794223  0.74949177  0.37368813  1
  O  O314  1  0.74584103  0.74331967  0.88207283  1
  O  O315  1  0.01042703  0.12666086  0.00965983  1
  O  O316  1  0.00936611  0.11035126  0.49254466  1
  O  O317  1  0.00395536  0.61722888  0.00398944  1
  O  O318  1  0.01006503  0.62667460  0.51226355  1
  O  O319  1  0.50543995  0.11225888  -0.00547189  1
  O  O320  1  0.50540656  0.11684000  0.50445250  1
  O  O321  1  0.49899511  0.61108568  -0.00508832  1
  O  O322  1  0.51287574  0.61587854  0.49964508  1
  O  O323  1  0.50471593  0.37887744  0.48768034  1
  O  O324  1  0.49476933  0.37291750  0.99176598  1
  O  O325  1  0.49736890  0.88135516  0.49093979  1
  O  O326  1  0.48969532  0.88609530  0.99106942  1
  O  O327  1  0.99171464  0.37193719  0.48714364  1
  O  O328  1  0.99785293  0.38839380  0.99771577  1
  O  O329  1  1.00478424  0.88505568  0.48745502  1
  O  O330  1  0.99696735  0.87576119  0.99646017  1
  O  O331  1  0.49810677  0.48413459  0.38134866  1
  O  O332  1  0.50011091  0.48195043  0.89013132  1
  O  O333  1  0.49532807  0.99344605  0.38494600  1
  O  O334  1  0.48713830  0.99333331  0.88304436  1
  O  O335  1  0.99121908  0.48983727  0.36948109  1
  O  O336  1  0.99375403  0.50308706  0.88070534  1
  O  O337  1  1.00280175  0.98791368  0.38491702  1
  O  O338  1  0.99846354  0.99671629  0.87628819  1
  O  O339  1  0.00491909  0.01286858  0.12687801  1
  O  O340  1  0.01220679  -0.01062691  0.60862676  1
  O  O341  1  -0.00096699  0.50604986  0.11709867  1
  O  O342  1  0.00865227  0.51046051  0.63115561  1
  O  O343  1  0.49225184  -0.00309823  0.10960191  1
  O  O344  1  0.50054559  0.00254826  0.61352830  1
  O  O345  1  0.50549567  0.49609796  0.11568040  1
  O  O346  1  0.50302877  0.48956655  0.62038103  1
  O  O347  1  0.23914984  0.38148279  0.25638602  1
  O  O348  1  0.23786485  0.38161096  0.74642597  1
  O  O349  1  0.23893806  0.87387053  0.25468207  1
  O  O350  1  0.24998045  0.87487419  0.73507529  1
  O  O351  1  0.75247020  0.38473538  0.24456114  1
  O  O352  1  0.74371000  0.38675600  0.74451161  1
  O  O353  1  0.73636302  0.88714345  0.25317095  1
  O  O354  1  0.74129354  0.87240198  0.73601020  1
  O  O355  1  0.25226253  0.12692253  0.26430327  1
  O  O356  1  0.26037425  0.12697427  0.74817738  1
  O  O357  1  0.25869916  0.61885123  0.25436939  1
  O  O358  1  0.24901017  0.61830767  0.75675154  1
  O  O359  1  0.74575376  0.11093397  0.26266808  1
  O  O360  1  0.75783057  0.13199567  0.75819012  1
  O  O361  1  0.76182664  0.61239631  0.25500468  1
  O  O362  1  0.75501873  0.62003516  0.75714182  1
  O  O363  1  0.36740489  0.11334686  0.37571776  1
  O  O364  1  0.37217189  0.11865039  0.86550560  1
  O  O365  1  0.37597342  0.62688696  0.36410882  1
  O  O366  1  0.36499099  0.63122378  0.86921308  1
  O  O367  1  0.85849687  0.13126730  0.37961303  1
  O  O368  1  0.86386158  0.12721901  0.86463137  1
  O  O369  1  0.87827139  0.61759388  0.37228079  1
  O  O370  1  0.86791474  0.62040441  0.86814060  1
  O  O371  1  0.11537640  0.37524713  0.13971535  1
  O  O372  1  0.12466983  0.38236854  0.62832531  1
  O  O373  1  0.12217588  0.88629722  0.13695150  1
  O  O374  1  0.13823697  0.87881392  0.62413839  1
  O  O375  1  0.64072823  0.37084732  0.12925170  1
  O  O376  1  0.63730024  0.36794824  0.62603306  1
  O  O377  1  0.61790917  0.87130175  0.14068894  1
  O  O378  1  0.63426289  0.87632903  0.63322466  1
  O  O379  1  0.11607888  0.25581402  0.25665349  1
  O  O380  1  0.11689166  0.25594743  0.74998440  1
  O  O381  1  0.12033524  0.75727011  0.25651179  1
  O  O382  1  0.11985672  0.74952373  0.75695068  1
  O  O383  1  0.61494743  0.24909713  0.25707856  1
  O  O384  1  0.61553709  0.25068881  0.75843910  1
  O  O385  1  0.61985592  0.75182978  0.25232283  1
  O  O386  1  0.62809237  0.76375717  0.76573919  1
  O  O387  1  0.38516217  0.24506789  0.24192694  1
  O  O388  1  0.37799492  0.24179124  0.74167661  1
  O  O389  1  0.37534999  0.74398455  0.24204158  1
  O  O390  1  0.37647460  0.74766327  0.73744572  1
  O  O391  1  0.88612439  0.25430004  0.24342696  1
  O  O392  1  0.88070665  0.24750540  0.74321888  1
  O  O393  1  0.88015740  0.74525159  0.24385208  1
  O  O394  1  0.88340751  0.74421997  0.73977712  1
  O  O395  1  0.39135316  0.50656426  0.49918752  1
  O  O396  1  0.39010650  0.49768600  1.00749800  1
  O  O397  1  0.38297904  0.98937293  0.49211015  1
  O  O398  1  0.38035270  0.99603187  0.99522219  1
  O  O399  1  0.87245160  0.49300525  0.48866704  1
  O  O400  1  0.88179211  0.50073396  0.99265394  1
  O  O401  1  0.89151943  1.00382833  0.50638673  1
  O  O402  1  0.87851244  1.00053300  0.99534475  1
  O  O403  1  0.12367183  0.00754472  0.00926124  1
  O  O404  1  0.12025525  0.00575294  0.50611070  1
  O  O405  1  0.11631647  0.50719443  -0.00033677  1
  O  O406  1  0.12668593  0.50541214  0.51010087  1
  O  O407  1  0.60918539  0.00629983  -0.00335288  1
  O  O408  1  0.61679439  0.00920493  0.50113755  1
  O  O409  1  0.60926859  0.49648030  0.00538466  1
  O  O410  1  0.61353560  0.50779405  0.49886763  1
  O  O411  1  0.38168906  0.35435837  0.12713081  1
  O  O412  1  0.37123570  0.35940145  0.62696994  1
  O  O413  1  0.37802025  0.86275910  0.11762215  1
  O  O414  1  0.36827056  0.86898063  0.61962278  1
  O  O415  1  0.86582252  0.36494365  0.12366610  1
  O  O416  1  0.86686650  0.37321264  0.61725567  1
  O  O417  1  0.88320660  0.86233007  0.12639030  1
  O  O418  1  0.86358658  0.86908557  0.62979196  1
  O  O419  1  0.13125127  0.12720010  0.38275045  1
  O  O420  1  0.12310885  0.13138314  0.88112398  1
  O  O421  1  0.12280945  0.63386897  0.38457276  1
  O  O422  1  0.13231205  0.63641826  0.88017455  1
  O  O423  1  0.63114175  0.12968793  0.38164714  1
  O  O424  1  0.62816284  0.13445389  0.87836561  1
  O  O425  1  0.62642570  0.63196860  0.38213426  1
  O  O426  1  0.63580534  0.63643479  0.87330180  1
