# generated using pymatgen
data_V85Zn86O256
_symmetry_space_group_name_H-M   'P 1'
_cell_length_a   16.93266394
_cell_length_b   16.93680393
_cell_length_c   16.93426103
_cell_angle_alpha   89.98961524
_cell_angle_beta   89.99327916
_cell_angle_gamma   90.08351263
_symmetry_Int_Tables_number   1
_chemical_formula_structural   V85Zn86O256
_chemical_formula_sum   'V85 Zn86 O256'
_cell_volume   4856.49032056
_cell_formula_units_Z   1
loop_
 _symmetry_equiv_pos_site_id
 _symmetry_equiv_pos_as_xyz
  1  'x, y, z'
loop_
 _atom_site_type_symbol
 _atom_site_label
 _atom_site_symmetry_multiplicity
 _atom_site_fract_x
 _atom_site_fract_y
 _atom_site_fract_z
 _atom_site_occupancy
  V  V0  1  0.74614467  0.25207566  -0.00608817  1
  V  V1  1  0.74721106  0.49639275  0.75117786  1
  V  V2  1  0.25669957  0.50461133  0.24794492  1
  V  V3  1  0.12328551  0.50731861  0.12447507  1
  V  V4  1  0.24964246  0.12673110  0.88242646  1
  V  V5  1  0.37607577  0.50598176  0.37090112  1
  V  V6  1  0.36884345  0.75649277  0.62952406  1
  V  V7  1  0.00008567  0.24098960  0.25093417  1
  V  V8  1  0.37121562  -0.00295400  0.87575497  1
  V  V9  1  -0.00048338  0.62437140  0.62497948  1
  V  V10  1  0.38163149  0.37030428  -0.00812339  1
  V  V11  1  0.24811628  0.61591810  0.87432184  1
  V  V12  1  0.50007479  -0.00010794  -0.00054283  1
  V  V13  1  0.50615195  0.50884322  -0.00844184  1
  V  V14  1  0.62874340  0.49578656  0.13521687  1
  V  V15  1  0.00003081  0.25087232  0.74976856  1
  V  V16  1  0.75294131  0.01102256  0.25255460  1
  V  V17  1  0.49859037  0.12563704  0.12514134  1
  V  V18  1  0.38136922  0.00047108  0.37698133  1
  V  V19  1  0.62336284  0.13029756  -0.00827831  1
  V  V20  1  0.24853304  0.75729098  0.50224920  1
  V  V21  1  0.61408176  -0.00294750  0.61560993  1
  V  V22  1  0.12506637  0.87379578  0.24830985  1
  V  V23  1  0.75065587  0.13803868  0.38816846  1
  V  V24  1  0.37611247  0.12612023  0.25005587  1
  V  V25  1  0.12659467  0.62541410  0.50027531  1
  V  V26  1  0.87293859  0.62578161  0.74916211  1
  V  V27  1  -0.00208640  0.74414669  0.24557281  1
  V  V28  1  0.75724973  0.61870248  0.36939909  1
  V  V29  1  0.87167877  0.37501914  0.00333748  1
  V  V30  1  0.12762920  0.87768569  0.73936106  1
  V  V31  1  0.37557837  0.88115338  0.50415441  1
  V  V32  1  0.50644402  0.87680576  0.87377425  1
  V  V33  1  -0.00243267  0.50980736  0.00349241  1
  V  V34  1  0.38406751  0.12730491  0.74791837  1
  V  V35  1  0.25027960  -0.00161616  0.24822627  1
  V  V36  1  0.00039037  0.38020013  0.37444010  1
  V  V37  1  -0.01041544  0.87325464  0.37636175  1
  V  V38  1  0.24526342  -0.00124789  0.73938757  1
  V  V39  1  0.87458437  0.37170205  0.49984208  1
  V  V40  1  -0.00193141  0.37551825  0.87644135  1
  V  V41  1  0.25331482  0.37054714  0.11808950  1
  V  V42  1  0.87281412  0.12241014  0.75202596  1
  V  V43  1  0.50368771  0.75524657  0.74992314  1
  V  V44  1  -0.00625585  0.87769661  0.88096932  1
  V  V45  1  0.75365833  0.87737101  0.12264592  1
  V  V46  1  0.49830464  0.49940620  0.50265806  1
  V  V47  1  0.74364124  -0.00463402  0.74692006  1
  V  V48  1  0.87401359  0.00540382  0.37545059  1
  V  V49  1  0.00615622  0.12081852  0.62779545  1
  V  V50  1  0.36907353  0.61734475  0.74928150  1
  V  V51  1  0.61164763  0.13411591  0.50178068  1
  V  V52  1  -0.00214279  -0.00607757  0.50526591  1
  V  V53  1  0.62610432  0.63517396  0.50178517  1
  V  V54  1  0.87546757  0.61257636  0.24737238  1
  V  V55  1  0.75057685  0.36838241  0.62363974  1
  V  V56  1  0.24864229  0.24993172  0.50526651  1
  V  V57  1  0.74546495  0.62382006  0.88068231  1
  V  V58  1  0.56883037  0.70444196  0.31542186  1
  V  V59  1  0.50632049  0.87958376  0.38012069  1
  V  V60  1  0.38212277  0.74198623  0.13806536  1
  V  V61  1  0.12790453  0.37496352  0.24961091  1
  V  V62  1  0.87675405  0.74612048  0.12163719  1
  V  V63  1  0.25059738  0.12596392  0.37657288  1
  V  V64  1  0.50351225  0.25353891  0.25020284  1
  V  V65  1  0.56670315  0.31009293  0.80963103  1
  V  V66  1  0.75132522  0.75553694  -0.00248992  1
  V  V67  1  0.12491021  0.75032571  0.37472528  1
  V  V68  1  0.62328004  0.87762752  0.25300587  1
  V  V69  1  -0.00001048  0.75102125  0.74937740  1
  V  V70  1  0.62554636  0.49769833  0.62921293  1
  V  V71  1  0.12847818  0.75237619  0.87716565  1
  V  V72  1  0.12826944  0.38181476  0.75161199  1
  V  V73  1  0.87345082  0.24157274  0.12783243  1
  V  V74  1  0.62395252  0.74822173  0.87655352  1
  V  V75  1  0.75662336  0.75547293  0.49208634  1
  V  V76  1  -0.00237762  0.50132806  0.49755215  1
  V  V77  1  0.38687372  0.24759546  0.62889206  1
  V  V78  1  0.12550210  0.11758803  0.50396311  1
  V  V79  1  0.12759903  0.25100584  0.88547039  1
  V  V80  1  0.49995280  0.62793380  0.62746262  1
  V  V81  1  0.75543352  0.87574891  0.62152188  1
  V  V82  1  0.62527779  0.00018488  0.12430195  1
  V  V83  1  0.50177270  0.37020562  0.37491669  1
  V  V84  1  0.25059508  0.38158413  0.62880605  1
  Zn  Zn85  1  0.74556178  0.37658034  0.14174867  1
  Zn  Zn86  1  0.87602815  0.75389657  0.61876531  1
  Zn  Zn87  1  0.12142410  0.00039983  0.12109117  1
  Zn  Zn88  1  0.12295123  0.12145724  0.00386110  1
  Zn  Zn89  1  0.37133608  0.24802371  0.11956372  1
  Zn  Zn90  1  0.12545516  0.25046403  0.37783715  1
  Zn  Zn91  1  0.37323818  0.37491224  0.50199857  1
  Zn  Zn92  1  0.66705441  0.31773245  0.30923623  1
  Zn  Zn93  1  0.25384681  0.87086732  0.12107920  1
  Zn  Zn94  1  0.87279494  0.24697408  0.62139572  1
  Zn  Zn95  1  0.87318016  0.50031537  0.87752264  1
  Zn  Zn96  1  0.37509356  0.86859116  0.00315714  1
  Zn  Zn97  1  0.37616006  0.49620443  0.87135648  1
  Zn  Zn98  1  0.00082595  0.12086703  0.12493577  1
  Zn  Zn99  1  -0.00775492  0.00162324  0.00674315  1
  Zn  Zn100  1  0.12463131  0.62777071  0.00306592  1
  Zn  Zn101  1  0.74494691  0.12647124  0.86973105  1
  Zn  Zn102  1  0.25549304  0.74874365  0.00220053  1
  Zn  Zn103  1  0.12947153  0.50320555  0.62899094  1
  Zn  Zn104  1  0.50437844  0.62630221  0.12532997  1
  Zn  Zn105  1  0.86633269  -0.00616712  0.88063355  1
  Zn  Zn106  1  0.25509399  0.62846788  0.37260170  1
  Zn  Zn107  1  0.18632382  0.18781879  0.18607862  1
  Zn  Zn108  1  0.18942061  0.18847937  0.69278483  1
  Zn  Zn109  1  0.19293854  0.68756146  0.18686201  1
  Zn  Zn110  1  0.18766468  0.68990207  0.68901627  1
  Zn  Zn111  1  0.68859545  0.18635819  0.18085864  1
  Zn  Zn112  1  0.68246499  0.18347060  0.68292388  1
  Zn  Zn113  1  0.69182765  0.67735350  0.17774217  1
  Zn  Zn114  1  0.68821685  0.69110754  0.68857945  1
  Zn  Zn115  1  0.31683486  0.31524245  0.31386307  1
  Zn  Zn116  1  0.31258679  0.31024203  0.81210493  1
  Zn  Zn117  1  0.31501267  0.81252031  0.31290973  1
  Zn  Zn118  1  0.31140781  0.81369486  0.81425070  1
  Zn  Zn119  1  0.82887249  0.31599200  0.31256790  1
  Zn  Zn120  1  0.81041312  0.31306258  0.81288504  1
  Zn  Zn121  1  0.80901427  0.80963010  0.30992009  1
  Zn  Zn122  1  0.80982126  0.81320553  0.80530558  1
  Zn  Zn123  1  0.18724483  0.43870146  0.43854184  1
  Zn  Zn124  1  0.18893159  0.43788618  0.93970991  1
  Zn  Zn125  1  0.18689934  0.93720241  0.43553885  1
  Zn  Zn126  1  0.18472798  0.93586447  0.94024358  1
  Zn  Zn127  1  0.68695036  0.44064824  0.44501123  1
  Zn  Zn128  1  0.68203496  0.43442133  0.93771580  1
  Zn  Zn129  1  0.68861316  0.94044331  0.44029025  1
  Zn  Zn130  1  0.68690089  0.93814219  0.93659676  1
  Zn  Zn131  1  0.31139055  0.06000989  0.06224589  1
  Zn  Zn132  1  0.31694872  0.06407957  0.56411730  1
  Zn  Zn133  1  0.31840095  0.56433719  0.06025238  1
  Zn  Zn134  1  0.31286987  0.56608691  0.56203996  1
  Zn  Zn135  1  0.81527458  0.06284673  0.05662092  1
  Zn  Zn136  1  0.81570578  0.06107179  0.56263564  1
  Zn  Zn137  1  0.80764713  0.56334282  0.06332559  1
  Zn  Zn138  1  0.81331831  0.56163523  0.55994020  1
  Zn  Zn139  1  0.44150948  0.43813439  0.18259448  1
  Zn  Zn140  1  0.43998253  0.43163541  0.69003971  1
  Zn  Zn141  1  0.43860364  0.93198196  0.18869245  1
  Zn  Zn142  1  0.43597112  0.93857068  0.69075222  1
  Zn  Zn143  1  0.93934995  0.43089161  0.18326994  1
  Zn  Zn144  1  0.93689180  0.43972597  0.68630978  1
  Zn  Zn145  1  0.93440578  0.93663335  0.18881204  1
  Zn  Zn146  1  0.93482226  0.93706927  0.69021974  1
  Zn  Zn147  1  0.06581507  0.06015306  0.31546664  1
  Zn  Zn148  1  0.06499247  0.06131170  0.81606520  1
  Zn  Zn149  1  0.06455943  0.56347593  0.31219325  1
  Zn  Zn150  1  0.06084989  0.56250737  0.81609296  1
  Zn  Zn151  1  0.56610995  0.06685167  0.31688371  1
  Zn  Zn152  1  0.56492689  0.06207298  0.80736771  1
  Zn  Zn153  1  0.57301177  0.54162834  0.31752755  1
  Zn  Zn154  1  0.56135568  0.56316266  0.81334083  1
  Zn  Zn155  1  0.43659663  0.19020809  0.43982114  1
  Zn  Zn156  1  0.43917091  0.19044571  0.93235116  1
  Zn  Zn157  1  0.43242241  0.68793903  0.44280896  1
  Zn  Zn158  1  0.43311954  0.68703408  0.93896969  1
  Zn  Zn159  1  0.93815840  0.18807539  0.43653688  1
  Zn  Zn160  1  0.93658045  0.18466117  0.93876166  1
  Zn  Zn161  1  0.93498566  0.68506907  0.43423833  1
  Zn  Zn162  1  0.93423554  0.69087666  0.93547759  1
  Zn  Zn163  1  0.05937024  0.31548485  0.06515676  1
  Zn  Zn164  1  0.06399009  0.31065281  0.56465601  1
  Zn  Zn165  1  0.06356483  0.81318551  0.06211979  1
  Zn  Zn166  1  0.06075099  0.81280396  0.56318305  1
  Zn  Zn167  1  0.55978404  0.31473718  0.06085757  1
  Zn  Zn168  1  0.56483189  0.31446935  0.56262850  1
  Zn  Zn169  1  0.56099509  0.80935005  0.06217828  1
  Zn  Zn170  1  0.56370025  0.81790567  0.56384540  1
  O  O171  1  0.12408516  0.12123619  0.12314669  1
  O  O172  1  0.11442083  0.12784247  0.62073693  1
  O  O173  1  0.12848340  0.61136561  0.12507030  1
  O  O174  1  0.11895145  0.62573293  0.61899296  1
  O  O175  1  0.61773719  0.11777934  0.11588054  1
  O  O176  1  0.63064181  0.11210020  0.60938596  1
  O  O177  1  0.62193301  0.60744711  0.12527085  1
  O  O178  1  0.62177359  0.61903592  0.61871792  1
  O  O179  1  0.38430139  0.38611664  0.38093280  1
  O  O180  1  0.36464181  0.37878273  0.88795736  1
  O  O181  1  0.38312315  0.88194831  0.38118256  1
  O  O182  1  0.38556090  0.88240422  0.87481167  1
  O  O183  1  0.89206035  0.37776788  0.38456589  1
  O  O184  1  0.88069338  0.37760802  0.88307068  1
  O  O185  1  0.88560962  0.87941722  0.37057870  1
  O  O186  1  0.89073176  0.87054289  0.86507288  1
  O  O187  1  0.25940154  0.00351043  0.36663673  1
  O  O188  1  0.25771644  0.00518915  0.86887789  1
  O  O189  1  0.25959929  0.49887574  0.36900065  1
  O  O190  1  0.24951360  0.51229696  0.87373333  1
  O  O191  1  0.75777367  0.00711209  0.37168580  1
  O  O192  1  0.74685758  0.00149901  0.86197659  1
  O  O193  1  0.73692818  0.52110199  0.37903832  1
  O  O194  1  0.74857463  0.50796433  0.86838154  1
  O  O195  1  0.24594313  0.49268693  0.13152493  1
  O  O196  1  0.25001996  0.48619060  0.61815634  1
  O  O197  1  0.25198655  0.99606983  0.13976856  1
  O  O198  1  0.25412649  1.00279601  0.64081982  1
  O  O199  1  0.73432024  0.49598225  0.11683080  1
  O  O200  1  0.74353509  0.49735592  0.63131601  1
  O  O201  1  0.74767069  0.99463312  0.13383510  1
  O  O202  1  0.74697816  0.99312515  0.62723452  1
  O  O203  1  0.00877630  0.37041093  0.25749165  1
  O  O204  1  0.00351085  0.36786338  0.75416692  1
  O  O205  1  0.00527941  0.86417983  0.25796609  1
  O  O206  1  0.00720159  0.86872424  0.75385963  1
  O  O207  1  0.49514171  0.36515927  0.25911422  1
  O  O208  1  0.51371802  0.37430798  0.74906990  1
  O  O209  1  0.51489537  0.87836783  0.26039893  1
  O  O210  1  0.49472785  0.86259697  0.75744478  1
  O  O211  1  0.49364107  0.12844696  0.24719135  1
  O  O212  1  0.48299362  0.11716653  0.75206374  1
  O  O213  1  0.51784994  0.63578245  0.26317266  1
  O  O214  1  0.49255713  0.63679611  0.74575859  1
  O  O215  1  1.00872106  0.13863539  0.25366834  1
  O  O216  1  0.99749011  0.12905403  0.74451260  1
  O  O217  1  0.99342814  0.63767568  0.25697752  1
  O  O218  1  0.99268414  0.62941780  0.74606339  1
  O  O219  1  0.37892834  0.26529609  0.00055112  1
  O  O220  1  0.36491195  0.24973434  0.51037260  1
  O  O221  1  0.37518957  0.75018544  0.01175922  1
  O  O222  1  0.36797196  0.75950139  0.50773747  1
  O  O223  1  0.86992382  0.25713826  0.00723014  1
  O  O224  1  0.88469457  0.26637511  0.50364438  1
  O  O225  1  0.86246234  0.74840748  0.00668197  1
  O  O226  1  0.86160219  0.74340647  0.50103600  1
  O  O227  1  0.13143253  0.23794643  0.50056292  1
  O  O228  1  0.12172947  0.25496312  0.98777413  1
  O  O229  1  0.13194027  0.74747370  0.49654171  1
  O  O230  1  0.12507922  0.74712217  0.98911788  1
  O  O231  1  0.62363731  0.23418887  0.50594546  1
  O  O232  1  0.63300418  0.24166775  1.00684641  1
  O  O233  1  0.63165106  0.73960443  0.50647101  1
  O  O234  1  0.63509757  0.75420085  0.98679015  1
  O  O235  1  0.49597177  0.24284454  0.13210416  1
  O  O236  1  0.48536875  0.25524072  0.62023026  1
  O  O237  1  0.49091180  0.74544043  0.12499266  1
  O  O238  1  0.49365374  0.74879198  0.63224066  1
  O  O239  1  0.99330962  0.25139505  0.13513166  1
  O  O240  1  0.99947211  0.24149396  0.63413721  1
  O  O241  1  0.98899240  0.75577743  0.13252121  1
  O  O242  1  0.99697408  0.74215234  0.63027874  1
  O  O243  1  0.00332893  0.25852001  0.36809144  1
  O  O244  1  0.00602557  0.25612424  0.86769437  1
  O  O245  1  0.00341260  0.75690159  0.37041400  1
  O  O246  1  0.00647202  0.75624682  0.86812389  1
  O  O247  1  0.49297533  0.25977001  0.36744485  1
  O  O248  1  0.50237931  0.25907624  0.87118404  1
  O  O249  1  0.50125370  0.75648131  0.37490329  1
  O  O250  1  0.50573255  0.75485299  0.87062545  1
  O  O251  1  0.24316365  0.12903179  0.49877792  1
  O  O252  1  0.24879772  0.12056960  0.98639691  1
  O  O253  1  0.24530421  0.63812845  0.49952972  1
  O  O254  1  0.24701133  0.62605968  0.98924503  1
  O  O255  1  0.74990292  0.12711597  0.49096039  1
  O  O256  1  0.73948028  0.13319332  0.99936838  1
  O  O257  1  0.74367343  0.63066896  0.49096011  1
  O  O258  1  0.75391371  0.63405230  0.98587758  1
  O  O259  1  0.26268580  0.38306461  0.00929131  1
  O  O260  1  0.24905204  0.36596196  0.50756661  1
  O  O261  1  0.25465470  0.87034776  0.00131240  1
  O  O262  1  0.25718421  0.86525760  0.49529746  1
  O  O263  1  0.76116709  0.36983793  -0.00204334  1
  O  O264  1  0.76314215  0.38455138  0.50896627  1
  O  O265  1  0.74505337  0.86855325  0.01027579  1
  O  O266  1  0.74705921  0.86479330  0.50413990  1
  O  O267  1  0.12929062  0.49054674  0.24411013  1
  O  O268  1  0.11784255  0.48575284  0.74944150  1
  O  O269  1  0.13425490  0.99026307  0.25347245  1
  O  O270  1  0.13755423  0.99399287  0.75321631  1
  O  O271  1  0.62462174  0.48961166  0.23557479  1
  O  O272  1  0.63421601  0.50997558  0.73913333  1
  O  O273  1  0.63153516  0.99489915  0.24530004  1
  O  O274  1  0.63680317  1.00965656  0.73322215  1
  O  O275  1  0.36993903  0.00396373  0.25835581  1
  O  O276  1  0.36543860  0.00345250  0.75851982  1
  O  O277  1  0.36852183  0.49394377  0.25807220  1
  O  O278  1  0.38156734  0.51398990  0.74819776  1
  O  O279  1  0.86585020  -0.00432548  0.26458587  1
  O  O280  1  0.86336973  0.00666072  0.75155787  1
  O  O281  1  0.88435894  0.51364383  0.23969677  1
  O  O282  1  0.86856476  0.51142823  0.75146093  1
  O  O283  1  0.11876523  0.37400876  0.36768279  1
  O  O284  1  0.12116489  0.36972445  0.86958634  1
  O  O285  1  0.11579076  0.87025796  0.36586990  1
  O  O286  1  0.11594220  0.86671720  0.86565508  1
  O  O287  1  0.60930950  0.37878307  0.38573744  1
  O  O288  1  0.63358740  0.36462953  0.86515640  1
  O  O289  1  0.61729874  0.88076040  0.36951721  1
  O  O290  1  0.61275464  0.86942813  0.87488875  1
  O  O291  1  0.38025870  0.12551942  0.13052324  1
  O  O292  1  0.37026682  0.13591539  0.63388025  1
  O  O293  1  0.38122051  0.63526437  0.12812232  1
  O  O294  1  0.38009509  0.63506226  0.63057095  1
  O  O295  1  0.87429941  0.13833319  0.12443728  1
  O  O296  1  0.88560803  0.12640384  0.63427348  1
  O  O297  1  0.86596816  0.63840081  0.13201936  1
  O  O298  1  0.88088290  0.62545766  0.63171344  1
  O  O299  1  0.25222828  0.26687169  0.13262922  1
  O  O300  1  0.25182460  0.25695076  0.61747835  1
  O  O301  1  0.26317573  0.74981565  0.12488257  1
  O  O302  1  0.26144907  0.74963168  0.61932200  1
  O  O303  1  0.75681240  0.25288379  0.11535662  1
  O  O304  1  0.75147058  0.26558189  0.63264270  1
  O  O305  1  0.75216912  0.75626078  0.11515130  1
  O  O306  1  0.74946783  0.75855291  0.61696273  1
  O  O307  1  0.25208664  0.24621130  0.38853574  1
  O  O308  1  0.23920265  0.23915233  0.86771332  1
  O  O309  1  0.24481164  0.74957120  0.38291235  1
  O  O310  1  0.24129457  0.74256743  0.87424011  1
  O  O311  1  0.75074584  0.23780270  0.36875952  1
  O  O312  1  0.75814773  0.24495288  0.88956861  1
  O  O313  1  0.75013108  0.73999202  0.38255804  1
  O  O314  1  0.74365272  0.74762618  0.87784335  1
  O  O315  1  0.00352452  0.12421988  0.00388792  1
  O  O316  1  0.00663326  0.11803223  0.50669396  1
  O  O317  1  -0.00056047  0.61303371  -0.00589850  1
  O  O318  1  0.00451170  0.61979515  0.50360920  1
  O  O319  1  0.50390749  0.12057548  0.00437788  1
  O  O320  1  0.51243400  0.12351129  0.49270130  1
  O  O321  1  0.49714830  0.61144860  0.00003985  1
  O  O322  1  0.50628098  0.62273393  0.50758872  1
  O  O323  1  0.49655321  0.38474447  0.49679336  1
  O  O324  1  0.48562873  0.38443528  1.00263913  1
  O  O325  1  0.49131563  0.87013612  0.48843172  1
  O  O326  1  0.49978192  0.88314009  0.99160129  1
  O  O327  1  1.00090907  0.38265191  0.49485392  1
  O  O328  1  0.98843147  0.38116524  0.99635307  1
  O  O329  1  1.00659902  0.88502849  0.49128539  1
  O  O330  1  1.00149405  0.87071587  0.98271247  1
  O  O331  1  0.49458238  0.49451459  0.38416065  1
  O  O332  1  0.49684932  0.50299608  0.88592277  1
  O  O333  1  0.48919183  0.99394696  0.37152715  1
  O  O334  1  0.49429313  0.99259345  0.87543900  1
  O  O335  1  1.00787519  0.49249808  0.38437491  1
  O  O336  1  0.99776445  0.49229335  0.88445848  1
  O  O337  1  0.99343781  0.99389755  0.38028117  1
  O  O338  1  0.99844326  0.98328736  0.86889044  1
  O  O339  1  0.00115727  0.00106357  0.12875199  1
  O  O340  1  -0.00506711  0.00603431  0.61545476  1
  O  O341  1  0.01119211  0.49228126  0.11510916  1
  O  O342  1  0.00425958  0.50850401  0.61832605  1
  O  O343  1  0.50407107  0.00526391  0.12063078  1
  O  O344  1  0.51531638  -0.00733896  0.62779531  1
  O  O345  1  0.50879818  0.50315147  0.11569365  1
  O  O346  1  0.50633114  0.50532205  0.61998093  1
  O  O347  1  0.24424993  0.38358475  0.24671025  1
  O  O348  1  0.24001795  0.36986077  0.74155809  1
  O  O349  1  0.24152226  0.88247614  0.25381781  1
  O  O350  1  0.24325951  0.88927088  0.75596683  1
  O  O351  1  0.74981243  0.36717818  0.25505529  1
  O  O352  1  0.75949109  0.39079156  0.74191211  1
  O  O353  1  0.73928385  0.88340701  0.24774579  1
  O  O354  1  0.74896226  0.88401441  0.73853325  1
  O  O355  1  0.25600172  0.11898070  0.25693725  1
  O  O356  1  0.25374469  0.11347137  0.75875335  1
  O  O357  1  0.24332792  0.60824276  0.25467453  1
  O  O358  1  0.25945014  0.62997739  0.75635004  1
  O  O359  1  0.74143157  0.11385386  0.25972973  1
  O  O360  1  0.75826446  0.11886699  0.74711079  1
  O  O361  1  0.75954241  0.63145238  0.26128508  1
  O  O362  1  0.75619138  0.61887470  0.75577999  1
  O  O363  1  0.37041945  0.11678781  0.37304291  1
  O  O364  1  0.36799325  0.11842270  0.86944073  1
  O  O365  1  0.37507105  0.61116624  0.38001600  1
  O  O366  1  0.36578853  0.62489083  0.86499338  1
  O  O367  1  0.86265875  0.11918503  0.37913336  1
  O  O368  1  0.87486923  0.12369609  0.85977719  1
  O  O369  1  0.86489767  0.62262767  0.36604960  1
  O  O370  1  0.86604198  0.62405990  0.86586655  1
  O  O371  1  0.13309022  0.38293104  0.13129151  1
  O  O372  1  0.13251626  0.37512010  0.63392433  1
  O  O373  1  0.12754831  0.87332248  0.13938842  1
  O  O374  1  0.12402743  0.86952339  0.63967286  1
  O  O375  1  0.62681445  0.38865700  0.11569767  1
  O  O376  1  0.63515689  0.39089888  0.61334658  1
  O  O377  1  0.63288144  0.87949843  0.13261732  1
  O  O378  1  0.63587915  0.88912075  0.61824963  1
  O  O379  1  0.12178359  0.26325476  0.25217301  1
  O  O380  1  0.11444262  0.25788944  0.75664662  1
  O  O381  1  0.11853782  0.75359567  0.25389381  1
  O  O382  1  0.12073202  0.75685371  0.75813181  1
  O  O383  1  0.60901536  0.23926660  0.24851835  1
  O  O384  1  0.61950729  0.24330486  0.75258523  1
  O  O385  1  0.63044698  0.75652486  0.25005386  1
  O  O386  1  0.61581827  0.74747300  0.76104188  1
  O  O387  1  0.38305371  0.24164382  0.24942705  1
  O  O388  1  0.36805775  0.24021069  0.73969619  1
  O  O389  1  0.37521437  0.75174806  0.23854282  1
  O  O390  1  0.37989451  0.74573407  0.74342463  1
  O  O391  1  0.88924564  0.25136463  0.24132955  1
  O  O392  1  0.88627500  0.24430698  0.74879534  1
  O  O393  1  0.88151592  0.74325832  0.24286780  1
  O  O394  1  0.87837712  0.73811629  0.74622903  1
  O  O395  1  0.38669236  0.50144529  0.49744700  1
  O  O396  1  0.38631800  0.49196420  0.99800720  1
  O  O397  1  0.36862509  0.98921522  0.49312959  1
  O  O398  1  0.38116480  1.00017022  0.98744911  1
  O  O399  1  0.89063089  0.49215113  0.50491819  1
  O  O400  1  0.88038727  0.49353721  1.00220120  1
  O  O401  1  0.88590030  1.00249636  0.48809789  1
  O  O402  1  0.87723722  0.99803136  0.99296319  1
  O  O403  1  0.11562516  0.00017167  0.00156847  1
  O  O404  1  0.11775127  0.01024611  0.49548658  1
  O  O405  1  0.11622034  0.49999466  0.00792384  1
  O  O406  1  0.11737343  0.50800069  0.50303295  1
  O  O407  1  0.61936435  0.00599212  0.00630119  1
  O  O408  1  0.62662116  0.00763609  0.51052190  1
  O  O409  1  0.60900658  0.49591972  0.00075931  1
  O  O410  1  0.61455556  0.51443637  0.50564405  1
  O  O411  1  0.36825789  0.37504265  0.11451529  1
  O  O412  1  0.36648337  0.36673884  0.62583622  1
  O  O413  1  0.37582386  0.86333958  0.12497655  1
  O  O414  1  0.38041277  0.86906531  0.61610776  1
  O  O415  1  0.87128433  0.36503015  0.11745186  1
  O  O416  1  0.86841579  0.37499873  0.61829767  1
  O  O417  1  0.85894680  0.86271548  0.13635130  1
  O  O418  1  0.86183349  0.87347384  0.62596303  1
  O  O419  1  0.13335940  0.12728316  0.38488117  1
  O  O420  1  0.13201525  0.13455173  0.87497296  1
  O  O421  1  0.12694475  0.63317602  0.38387311  1
  O  O422  1  0.13153275  0.63383248  0.87306895  1
  O  O423  1  0.63972279  0.11732070  0.39059797  1
  O  O424  1  0.62375044  0.11899042  0.88819711  1
  O  O425  1  0.62611915  0.63555821  0.37717076  1
  O  O426  1  0.63413281  0.63505697  0.87021501  1
