# generated using pymatgen
data_V85Zn86O256
_symmetry_space_group_name_H-M   'P 1'
_cell_length_a   16.94689734
_cell_length_b   16.95093993
_cell_length_c   16.94919822
_cell_angle_alpha   89.92350927
_cell_angle_beta   89.86497557
_cell_angle_gamma   90.05669921
_symmetry_Int_Tables_number   1
_chemical_formula_structural   V85Zn86O256
_chemical_formula_sum   'V85 Zn86 O256'
_cell_volume   4868.90538565
_cell_formula_units_Z   1
loop_
 _symmetry_equiv_pos_site_id
 _symmetry_equiv_pos_as_xyz
  1  'x, y, z'
loop_
 _atom_site_type_symbol
 _atom_site_label
 _atom_site_symmetry_multiplicity
 _atom_site_fract_x
 _atom_site_fract_y
 _atom_site_fract_z
 _atom_site_occupancy
  V  V0  1  0.75249450  0.37289573  0.61197484  1
  V  V1  1  0.62503234  0.37323297  0.75272045  1
  V  V2  1  0.87554374  0.87886990  0.49819944  1
  V  V3  1  0.50366596  0.37582127  0.37649747  1
  V  V4  1  0.37936832  0.62463866  0.24851743  1
  V  V5  1  0.87145587  0.25144746  0.61079783  1
  V  V6  1  0.50499158  0.62630165  0.10734939  1
  V  V7  1  0.75327170  0.12478621  0.38032626  1
  V  V8  1  0.75134909  0.50308525  0.75179526  1
  V  V9  1  0.51277156  0.87190167  0.86976859  1
  V  V10  1  0.63319914  0.25170475  0.37835470  1
  V  V11  1  0.88131262  0.00424096  0.87169061  1
  V  V12  1  0.12068998  0.62364258  -0.00486202  1
  V  V13  1  0.31841346  0.81138196  0.67048053  1
  V  V14  1  0.37787749  0.49480015  0.87607948  1
  V  V15  1  0.74567904  0.87145915  0.62709018  1
  V  V16  1  0.37210728  0.12336766  0.75011413  1
  V  V17  1  0.49933650  0.47636993  -0.00233710  1
  V  V18  1  0.62464514  0.24677607  0.88072264  1
  V  V19  1  0.86982085  0.49669840  0.88008196  1
  V  V20  1  0.37874697  0.11894831  0.24709372  1
  V  V21  1  0.00057048  0.62381441  0.12506727  1
  V  V22  1  0.00801482  0.87766339  0.37156295  1
  V  V23  1  0.25973015  0.75971563  0.50003708  1
  V  V24  1  0.25136750  0.12353115  0.87681177  1
  V  V25  1  0.62611010  0.88141163  0.24762702  1
  V  V26  1  0.49903849  0.25425406  0.75505554  1
  V  V27  1  0.49912888  0.12709704  0.62308256  1
  V  V28  1  0.37554019  0.74975703  0.12326404  1
  V  V29  1  0.62285309  0.50070162  0.62679430  1
  V  V30  1  0.62841400  0.12891945  0.50151364  1
  V  V31  1  0.12149236  0.49961177  0.62527945  1
  V  V32  1  0.37445258  0.37363572  0.49659704  1
  V  V33  1  -0.00434359  0.25021675  0.75054807  1
  V  V34  1  0.24630534  0.74877762  0.00230291  1
  V  V35  1  0.24763484  0.24585624  0.49981759  1
  V  V36  1  0.24931953  -0.00292343  0.25663462  1
  V  V37  1  0.00835243  0.12616071  0.62249096  1
  V  V38  1  0.12638314  0.25001335  0.87592391  1
  V  V39  1  0.37183462  -0.00155221  0.87445860  1
  V  V40  1  -0.00298457  0.37399618  0.38274508  1
  V  V41  1  0.48706257  -0.00132676  0.49720176  1
  V  V42  1  0.48250213  0.62990873  0.62875239  1
  V  V43  1  0.00450693  -0.00247574  -0.00463563  1
  V  V44  1  0.48632130  0.87904544  0.37823538  1
  V  V45  1  0.50322489  0.24740881  0.24841827  1
  V  V46  1  0.75964956  0.25901689  -0.00801546  1
  V  V47  1  0.69258415  0.06575781  0.93054402  1
  V  V48  1  0.50329367  0.75042370  0.24915736  1
  V  V49  1  0.00353719  0.25015842  0.24779181  1
  V  V50  1  0.12235355  0.62641182  0.49903941  1
  V  V51  1  0.25355711  0.51144536  0.75078067  1
  V  V52  1  0.74828078  0.62919919  0.37581395  1
  V  V53  1  0.74723369  0.00393766  0.74918033  1
  V  V54  1  0.25513370  0.26337834  0.00689629  1
  V  V55  1  0.12600987  0.37557968  0.75043559  1
  V  V56  1  0.37810349  0.87875593  0.00238965  1
  V  V57  1  0.11596969  0.76356038  0.87608857  1
  V  V58  1  0.01106999  0.00400648  0.50001919  1
  V  V59  1  0.51517463  0.11682423  0.11927205  1
  V  V60  1  -0.00373665  0.49085060  0.00040202  1
  V  V61  1  0.87579157  0.12571361  0.24833611  1
  V  V62  1  0.50585961  0.75258888  0.74551975  1
  V  V63  1  0.62266944  0.63077490  0.50724505  1
  V  V64  1  0.25835943  0.12221754  0.37906603  1
  V  V65  1  0.24931691  0.62344090  0.37530681  1
  V  V66  1  0.87617109  0.62559387  0.25582967  1
  V  V67  1  0.62401229  0.75559138  0.37562983  1
  V  V68  1  0.87791946  0.74967451  0.62531062  1
  V  V69  1  0.63056394  0.37702502  0.24677562  1
  V  V70  1  0.24671178  0.87589240  0.13097685  1
  V  V71  1  0.25112672  0.49830550  0.24377298  1
  V  V72  1  0.12921780  0.49286137  0.12292123  1
  V  V73  1  0.75089528  0.50451203  0.24864689  1
  V  V74  1  0.25074876  0.37378698  0.62497531  1
  V  V75  1  0.87480783  0.87604720  -0.00453489  1
  V  V76  1  0.12435091  -0.00234860  0.12909183  1
  V  V77  1  0.13124080  0.24492356  0.37563967  1
  V  V78  1  0.86893309  0.75224436  0.12514621  1
  V  V79  1  0.49841891  0.50160435  0.50152860  1
  V  V80  1  0.00863094  0.75474495  0.24969788  1
  V  V81  1  0.62505920  -0.00296806  0.62580836  1
  V  V82  1  0.00082547  0.76084431  0.75683103  1
  V  V83  1  0.13296413  -0.01345631  0.63955378  1
  V  V84  1  0.74847732  0.88462147  0.12329731  1
  Zn  Zn85  1  0.87658231  0.00042168  0.37437644  1
  Zn  Zn86  1  0.88165209  0.25455203  0.11600259  1
  Zn  Zn87  1  0.12780050  0.12490354  0.00289801  1
  Zn  Zn88  1  0.51481182  0.00156758  -0.00086717  1
  Zn  Zn89  1  0.75753537  0.37664718  0.11901216  1
  Zn  Zn90  1  0.37722157  0.49937307  0.37312811  1
  Zn  Zn91  1  -0.00095975  0.62636063  0.62602846  1
  Zn  Zn92  1  -0.00863797  0.49691555  0.50484820  1
  Zn  Zn93  1  0.62972161  0.50393802  0.11470851  1
  Zn  Zn94  1  0.70776671  0.64431207  0.90857190  1
  Zn  Zn95  1  0.86934910  0.49084292  0.38327530  1
  Zn  Zn96  1  -0.00726357  0.37012289  0.88065550  1
  Zn  Zn97  1  0.12693508  0.75379617  0.37376073  1
  Zn  Zn98  1  0.00199810  0.12463686  0.12407070  1
  Zn  Zn99  1  0.87713496  0.62425651  0.75230017  1
  Zn  Zn100  1  0.74878596  0.75378703  0.50137011  1
  Zn  Zn101  1  0.74709386  0.00474070  0.24881240  1
  Zn  Zn102  1  0.25365390  0.62771123  0.87303211  1
  Zn  Zn103  1  0.86942819  0.12963068  0.75161114  1
  Zn  Zn104  1  0.38298759  0.25721040  0.11444987  1
  Zn  Zn105  1  0.37482718  0.25070401  0.62599401  1
  Zn  Zn106  1  0.12862738  0.37298312  0.24952369  1
  Zn  Zn107  1  0.18963865  0.18319428  0.18820367  1
  Zn  Zn108  1  0.18790898  0.18445841  0.68885945  1
  Zn  Zn109  1  0.18677172  0.68234132  0.18509599  1
  Zn  Zn110  1  0.17786780  0.69017714  0.68734963  1
  Zn  Zn111  1  0.69231302  0.18933389  0.18447992  1
  Zn  Zn112  1  0.68841763  0.18821298  0.68711461  1
  Zn  Zn113  1  0.68694226  0.68869804  0.07838804  1
  Zn  Zn114  1  0.66697556  0.67282487  0.72259328  1
  Zn  Zn115  1  0.33202632  0.32491729  0.28263417  1
  Zn  Zn116  1  0.31188894  0.31400388  0.81493375  1
  Zn  Zn117  1  0.31072171  0.80952077  0.31215856  1
  Zn  Zn118  1  0.31141574  0.80999550  0.82771786  1
  Zn  Zn119  1  0.81555200  0.31054150  0.30987415  1
  Zn  Zn120  1  0.81065271  0.31616611  0.81101716  1
  Zn  Zn121  1  0.81375463  0.81379478  0.31102116  1
  Zn  Zn122  1  0.81571813  0.82153717  0.80483078  1
  Zn  Zn123  1  0.18453852  0.43610450  0.43511472  1
  Zn  Zn124  1  0.18817690  0.43723487  0.93418859  1
  Zn  Zn125  1  0.18690906  0.93945630  0.44070212  1
  Zn  Zn126  1  0.19109826  0.93890438  0.94021277  1
  Zn  Zn127  1  0.68685450  0.44291040  0.43749432  1
  Zn  Zn128  1  0.68269038  0.43561901  0.93333203  1
  Zn  Zn129  1  0.68515705  0.94153463  0.43916935  1
  Zn  Zn130  1  0.69594924  0.81631426  0.93665826  1
  Zn  Zn131  1  0.31595767  0.06594604  0.06422711  1
  Zn  Zn132  1  0.30862882  0.06182592  0.56660597  1
  Zn  Zn133  1  0.31593327  0.56072459  0.05710806  1
  Zn  Zn134  1  0.30691542  0.56005885  0.55881095  1
  Zn  Zn135  1  0.81855486  0.06383577  0.06510795  1
  Zn  Zn136  1  0.81609280  0.06434822  0.56388742  1
  Zn  Zn137  1  0.81929399  0.55890555  0.06482914  1
  Zn  Zn138  1  0.81020345  0.56263855  0.56099305  1
  Zn  Zn139  1  0.44097582  0.43734632  0.18171352  1
  Zn  Zn140  1  0.43451404  0.43781156  0.68925064  1
  Zn  Zn141  1  0.43915268  0.94052641  0.18886835  1
  Zn  Zn142  1  0.43889004  0.94301601  0.68948124  1
  Zn  Zn143  1  0.93745160  0.43389287  0.18999990  1
  Zn  Zn144  1  0.93542039  0.43256924  0.68877948  1
  Zn  Zn145  1  0.93776269  0.93896575  0.18788732  1
  Zn  Zn146  1  0.93876941  0.93870240  0.68596281  1
  Zn  Zn147  1  0.06776759  0.06431648  0.31338467  1
  Zn  Zn148  1  0.06206045  0.06441406  0.81123204  1
  Zn  Zn149  1  0.06281562  0.56125848  0.31261567  1
  Zn  Zn150  1  0.05457258  0.56749077  0.81360184  1
  Zn  Zn151  1  0.56247738  0.06131220  0.31511834  1
  Zn  Zn152  1  0.55571501  0.05908255  0.80742033  1
  Zn  Zn153  1  0.56527720  0.56468914  0.31145130  1
  Zn  Zn154  1  0.55458246  0.56251376  0.81634862  1
  Zn  Zn155  1  0.43695422  0.18734511  0.43397247  1
  Zn  Zn156  1  0.43865579  0.18872764  0.94016514  1
  Zn  Zn157  1  0.43777872  0.68797417  0.43655384  1
  Zn  Zn158  1  0.43468560  0.68680330  0.92856222  1
  Zn  Zn159  1  0.94130108  0.18642106  0.43609521  1
  Zn  Zn160  1  0.93946533  0.17992634  0.93594080  1
  Zn  Zn161  1  0.93920158  0.69017176  0.43884797  1
  Zn  Zn162  1  0.87560316  0.70322805  0.92166532  1
  Zn  Zn163  1  0.06890812  0.31156040  0.06361334  1
  Zn  Zn164  1  0.06484065  0.30948363  0.56192008  1
  Zn  Zn165  1  0.05845919  0.81443406  0.06258148  1
  Zn  Zn166  1  0.06403949  0.81260495  0.56123205  1
  Zn  Zn167  1  0.57143896  0.30635406  0.06682046  1
  Zn  Zn168  1  0.56317601  0.31146826  0.56481193  1
  Zn  Zn169  1  0.56227054  0.81603161  0.06172681  1
  Zn  Zn170  1  0.55498072  0.81435153  0.56435667  1
  O  O171  1  0.12696490  0.10972814  0.12376877  1
  O  O172  1  0.11159636  0.12341761  0.62821070  1
  O  O173  1  0.11989627  0.61712904  0.11545392  1
  O  O174  1  0.12375864  0.61607310  0.61630396  1
  O  O175  1  0.61381479  0.12299239  0.13078398  1
  O  O176  1  0.62080047  0.12181475  0.61692346  1
  O  O177  1  0.60872213  0.62040171  0.13152642  1
  O  O178  1  0.61471628  0.62050813  0.62321123  1
  O  O179  1  0.38603178  0.37649720  0.37764931  1
  O  O180  1  0.36734931  0.39361595  0.87372467  1
  O  O181  1  0.38752779  0.87141275  0.36896487  1
  O  O182  1  0.37806984  0.88305485  0.88510815  1
  O  O183  1  0.89281993  0.37127322  0.37094523  1
  O  O184  1  0.87749692  0.38920323  0.86940056  1
  O  O185  1  0.88326718  0.87801110  0.38228952  1
  O  O186  1  0.87103025  0.89031954  0.88527737  1
  O  O187  1  0.24359742  0.00763725  0.36773517  1
  O  O188  1  0.26235962  0.00672293  0.87834152  1
  O  O189  1  0.25058769  0.51275187  0.37046731  1
  O  O190  1  0.25441458  0.50336679  0.86657088  1
  O  O191  1  0.75222096  0.01279921  0.37319066  1
  O  O192  1  0.75292839  0.00531875  0.86682049  1
  O  O193  1  0.74904374  0.50932938  0.36632784  1
  O  O194  1  0.75360310  0.49774230  0.86567188  1
  O  O195  1  0.24377022  0.50872825  0.13290943  1
  O  O196  1  0.23974639  0.49502904  0.63125811  1
  O  O197  1  0.24626173  0.99305200  0.13131949  1
  O  O198  1  0.23124478  1.00558740  0.62428738  1
  O  O199  1  0.74981332  0.49940256  0.13859086  1
  O  O200  1  0.74209334  0.49035448  0.62870719  1
  O  O201  1  0.75681657  0.98870704  0.12943558  1
  O  O202  1  0.74461293  0.99291705  0.62745051  1
  O  O203  1  0.00591799  0.36258594  0.25975322  1
  O  O204  1  0.00799575  0.36281576  0.75051525  1
  O  O205  1  -0.00583240  0.86682933  0.25880905  1
  O  O206  1  -0.00534400  0.86027320  0.74845793  1
  O  O207  1  0.51731062  0.37308823  0.25774557  1
  O  O208  1  0.50723248  0.36138641  0.74241651  1
  O  O209  1  0.50619495  0.87131053  0.25526361  1
  O  O210  1  0.49391552  0.87183607  0.76313519  1
  O  O211  1  0.49665199  0.12303825  0.24207705  1
  O  O212  1  0.49262541  0.13393280  0.74381158  1
  O  O213  1  0.49241494  0.62970682  0.24582793  1
  O  O214  1  0.49625440  0.64347292  0.74319347  1
  O  O215  1  0.99634668  0.13504089  0.25259741  1
  O  O216  1  0.99768529  0.13765080  0.74273607  1
  O  O217  1  0.99363830  0.63069623  0.24711754  1
  O  O218  1  0.99555819  0.63598391  0.74345788  1
  O  O219  1  0.36093112  0.25072127  -0.00138358  1
  O  O220  1  0.36719251  0.25821045  0.49887869  1
  O  O221  1  0.36959466  0.76104804  0.00215998  1
  O  O222  1  0.35849999  0.74386030  0.49724599  1
  O  O223  1  0.86309641  0.24515245  -0.00592581  1
  O  O224  1  0.87847027  0.24874623  0.51248291  1
  O  O225  1  0.88977978  0.76391813  0.01392057  1
  O  O226  1  0.87531947  0.76329859  0.50571160  1
  O  O227  1  0.13960668  0.25305069  0.49302134  1
  O  O228  1  0.13409340  0.24637383  0.99177039  1
  O  O229  1  0.13402624  0.74109277  0.49867461  1
  O  O230  1  0.12309366  0.74216978  0.99652071  1
  O  O231  1  0.62046977  0.23771617  0.49328241  1
  O  O232  1  0.63305070  0.25157738  0.98508213  1
  O  O233  1  0.62288908  0.74704362  0.49393802  1
  O  O234  1  0.63017895  0.75085432  1.00151639  1
  O  O235  1  0.50344192  0.23753320  0.13162153  1
  O  O236  1  0.49799273  0.24275276  0.63337257  1
  O  O237  1  0.49337003  0.74389571  0.12916047  1
  O  O238  1  0.49313113  0.74517775  0.63347735  1
  O  O239  1  1.00501450  0.24630612  0.13407159  1
  O  O240  1  0.99224258  0.24653831  0.62960090  1
  O  O241  1  0.99385813  0.74593249  0.13359158  1
  O  O242  1  0.99355806  0.75115401  0.63194084  1
  O  O243  1  0.01008020  0.25508171  0.37096926  1
  O  O244  1  0.00761483  0.24890194  0.86866937  1
  O  O245  1  0.00194623  0.75901668  0.36709532  1
  O  O246  1  -0.00038205  0.74761619  0.86243378  1
  O  O247  1  0.51460227  0.25317108  0.36994263  1
  O  O248  1  0.51061829  0.24170187  0.86637565  1
  O  O249  1  0.50592607  0.75750676  0.37142071  1
  O  O250  1  0.49003976  0.76330884  0.86070369  1
  O  O251  1  0.25708145  0.13494659  0.49242186  1
  O  O252  1  0.25070818  0.12893332  0.98780545  1
  O  O253  1  0.24110238  0.62930706  0.49210753  1
  O  O254  1  0.23986955  0.63299280  1.00339260  1
  O  O255  1  0.74235690  0.12130819  0.49265680  1
  O  O256  1  0.74831389  0.12552891  0.99353292  1
  O  O257  1  0.73816574  0.63060187  0.49509179  1
  O  O258  1  0.75285534  0.62748250  1.00736919  1
  O  O259  1  0.24562798  0.36197499  0.00026189  1
  O  O260  1  0.25644254  0.36986953  0.50314879  1
  O  O261  1  0.25784086  0.87042602  0.01240329  1
  O  O262  1  0.24883091  0.85836391  0.49199985  1
  O  O263  1  0.74867611  0.36245096  -0.00279893  1
  O  O264  1  0.74091032  0.37614595  0.51276241  1
  O  O265  1  0.76562125  0.87687171  0.00994784  1
  O  O266  1  0.75880202  0.87729892  0.50566848  1
  O  O267  1  0.13399712  0.50546661  0.23911497  1
  O  O268  1  0.12948295  0.49521925  0.74490516  1
  O  O269  1  0.13903417  1.00234978  0.24330478  1
  O  O270  1  0.11947068  1.00024257  0.73872607  1
  O  O271  1  0.63393988  0.49370219  0.24971095  1
  O  O272  1  0.62773988  0.48902380  0.74548652  1
  O  O273  1  0.62680753  0.98555255  0.25714744  1
  O  O274  1  0.62930445  1.00513402  0.73419744  1
  O  O275  1  0.36398479  0.00865315  0.24643898  1
  O  O276  1  0.38054815  0.01457850  0.75986150  1
  O  O277  1  0.37052791  0.51286180  0.24909685  1
  O  O278  1  0.36563048  0.49807158  0.75932280  1
  O  O279  1  0.87707125  0.01482727  0.25305340  1
  O  O280  1  0.86848986  0.00060619  0.75620919  1
  O  O281  1  0.87030007  0.50891489  0.25772693  1
  O  O282  1  0.86645525  0.49785355  0.75432721  1
  O  O283  1  0.11837859  0.36221547  0.37307775  1
  O  O284  1  0.12459796  0.36271010  0.86879485  1
  O  O285  1  0.11211001  0.87390001  0.37821942  1
  O  O286  1  0.12570559  0.86225662  0.88583704  1
  O  O287  1  0.62343600  0.36749777  0.37297668  1
  O  O288  1  0.62745091  0.36298013  0.85976764  1
  O  O289  1  0.62109410  0.86747588  0.37233397  1
  O  O290  1  0.61076015  0.87520948  0.87584674  1
  O  O291  1  0.38306110  0.13090638  0.13427238  1
  O  O292  1  0.37871775  0.12781135  0.63529735  1
  O  O293  1  0.38318208  0.63058129  0.12997482  1
  O  O294  1  0.38420940  0.61636065  0.62084155  1
  O  O295  1  0.87976189  0.13254913  0.13416062  1
  O  O296  1  0.88381467  0.13700862  0.62717796  1
  O  O297  1  0.88081812  0.63268391  0.13766019  1
  O  O298  1  0.87475726  0.64268268  0.61892910  1
  O  O299  1  0.24852308  0.24291510  0.10837958  1
  O  O300  1  0.25095606  0.25398418  0.61698522  1
  O  O301  1  0.25457530  0.75683833  0.12308802  1
  O  O302  1  0.25108639  0.74729030  0.61402623  1
  O  O303  1  0.74724560  0.24726074  0.10155794  1
  O  O304  1  0.76410121  0.25525187  0.62826246  1
  O  O305  1  0.76531378  0.76078293  0.13075109  1
  O  O306  1  0.75644899  0.76457749  0.62589198  1
  O  O307  1  0.24659323  0.24309783  0.38084470  1
  O  O308  1  0.24425619  0.24473831  0.88347690  1
  O  O309  1  0.24754303  0.73983690  0.38102996  1
  O  O310  1  0.23717031  0.74616426  0.88519136  1
  O  O311  1  0.74029518  0.24193823  0.37231452  1
  O  O312  1  0.74420476  0.24915806  0.88346419  1
  O  O313  1  0.74095145  0.74745650  0.37680586  1
  O  O314  1  0.77169144  0.74879676  0.88028012  1
  O  O315  1  0.00482483  0.11241630  0.00337089  1
  O  O316  1  -0.00406942  0.11543788  0.50811425  1
  O  O317  1  0.00887253  0.61014559  0.01019396  1
  O  O318  1  0.01256125  0.62484324  0.50095671  1
  O  O319  1  0.49874218  0.12250412  0.01449549  1
  O  O320  1  0.50658392  0.12086069  0.50372199  1
  O  O321  1  0.49599914  0.62579215  0.00617371  1
  O  O322  1  0.50442247  0.62250270  0.50731226  1
  O  O323  1  0.49489549  0.37922803  0.49639582  1
  O  O324  1  0.49808369  0.37829037  1.00826920  1
  O  O325  1  0.50322469  0.88601438  0.48997435  1
  O  O326  1  0.49342019  0.87867045  0.98976532  1
  O  O327  1  1.00587478  0.37327976  0.48596346  1
  O  O328  1  1.00935112  0.38665585  1.00010318  1
  O  O329  1  0.99392432  0.88189429  0.49275991  1
  O  O330  1  0.98978745  0.88943424  1.00746245  1
  O  O331  1  0.50208917  0.49544368  0.38368062  1
  O  O332  1  0.49066541  0.49789693  0.88535268  1
  O  O333  1  0.50387089  0.99142032  0.38521514  1
  O  O334  1  0.49135552  0.98939053  0.87694510  1
  O  O335  1  1.00503829  0.48159379  0.37360607  1
  O  O336  1  0.99483245  0.49569280  0.88486646  1
  O  O337  1  1.00123450  0.99615309  0.38209957  1
  O  O338  1  0.99474392  1.00258528  0.88265873  1
  O  O339  1  0.01017273  0.00062670  0.12093481  1
  O  O340  1  0.00473884  0.00874592  0.61913601  1
  O  O341  1  0.00756675  0.50359407  0.12234690  1
  O  O342  1  0.01112807  0.49826760  0.62587084  1
  O  O343  1  0.49944651  0.01138191  0.12018682  1
  O  O344  1  0.50851587  0.00704133  0.61944064  1
  O  O345  1  0.49848892  0.50592284  0.10962975  1
  O  O346  1  0.50418902  0.50611119  0.62183576  1
  O  O347  1  0.24397916  0.39656613  0.26460966  1
  O  O348  1  0.24355424  0.38050143  0.74276311  1
  O  O349  1  0.25552917  0.88103070  0.23977477  1
  O  O350  1  0.26067737  0.86047782  0.73540507  1
  O  O351  1  0.74105102  0.38300745  0.25774596  1
  O  O352  1  0.74186348  0.38233029  0.74019624  1
  O  O353  1  0.74372378  0.87780612  0.24384753  1
  O  O354  1  0.75200765  0.89006543  0.73839282  1
  O  O355  1  0.25936442  0.11725946  0.25667660  1
  O  O356  1  0.26036885  0.13435047  0.76460453  1
  O  O357  1  0.25765090  0.62064203  0.25646833  1
  O  O358  1  0.24271855  0.61376235  0.74872166  1
  O  O359  1  0.75866135  0.12651022  0.25751900  1
  O  O360  1  0.75268559  0.10965903  0.73947749  1
  O  O361  1  0.76014400  0.61735808  0.25819414  1
  O  O362  1  0.75929472  0.60581225  0.73251829  1
  O  O363  1  0.36446506  0.12144938  0.37038013  1
  O  O364  1  0.37141863  0.11785388  0.87180277  1
  O  O365  1  0.36859439  0.62344966  0.36598131  1
  O  O366  1  0.36857610  0.60774465  0.87991051  1
  O  O367  1  0.86747353  0.12544203  0.37099038  1
  O  O368  1  0.87589764  0.11051965  0.87025195  1
  O  O369  1  0.87058409  0.63184591  0.36529597  1
  O  O370  1  0.87726448  0.60474350  0.86963590  1
  O  O371  1  0.12586432  0.38919814  0.12906122  1
  O  O372  1  0.13043091  0.38095544  0.62894479  1
  O  O373  1  0.13501202  0.88510393  0.12084627  1
  O  O374  1  0.12088285  0.88769427  0.62466405  1
  O  O375  1  0.63391812  0.37890083  0.13439354  1
  O  O376  1  0.63132668  0.37632687  0.63403590  1
  O  O377  1  0.63588268  0.87040687  0.13541927  1
  O  O378  1  0.63356519  0.88685069  0.61368864  1
  O  O379  1  0.12189161  0.24997358  0.25652847  1
  O  O380  1  0.11939134  0.25442041  0.75678686  1
  O  O381  1  0.11231356  0.74400589  0.24993877  1
  O  O382  1  0.11122019  0.74735549  0.76096177  1
  O  O383  1  0.62445895  0.25725398  0.25695639  1
  O  O384  1  0.62021712  0.25278198  0.75713037  1
  O  O385  1  0.61583809  0.76237524  0.26235731  1
  O  O386  1  0.60381547  0.76815552  0.73602859  1
  O  O387  1  0.39058102  0.22751915  0.26566851  1
  O  O388  1  0.38298491  0.24297754  0.75334332  1
  O  O389  1  0.38001274  0.74002299  0.24467746  1
  O  O390  1  0.37811205  0.76005885  0.73982584  1
  O  O391  1  0.88624744  0.23831913  0.25360988  1
  O  O392  1  0.88299661  0.25000761  0.74545591  1
  O  O393  1  0.88420592  0.74441573  0.24410421  1
  O  O394  1  0.88361021  0.74939590  0.74161752  1
  O  O395  1  0.37922565  0.49046108  0.49655114  1
  O  O396  1  0.38808539  0.49759789  0.99251079  1
  O  O397  1  0.38839860  1.00776842  0.50506546  1
  O  O398  1  0.37566167  0.98965300  0.99541988  1
  O  O399  1  0.87910932  0.50618660  0.49430601  1
  O  O400  1  0.88534512  0.49807288  0.99455571  1
  O  O401  1  0.88481506  0.99013269  0.50158057  1
  O  O402  1  0.88360957  0.99643817  0.99367077  1
  O  O403  1  0.11987016  0.00036215  0.00713147  1
  O  O404  1  0.11373820  -0.00161465  0.50851669  1
  O  O405  1  0.12283005  0.50572575  0.00477136  1
  O  O406  1  0.12403938  0.50651042  0.50894044  1
  O  O407  1  0.63424538  0.00730808  -0.01511892  1
  O  O408  1  0.61857560  0.01239469  0.50758370  1
  O  O409  1  0.60635005  0.49449048  -0.00321684  1
  O  O410  1  0.61753878  0.50931256  0.50692639  1
  O  O411  1  0.37237025  0.35230204  0.17365139  1
  O  O412  1  0.36789334  0.37315331  0.61647054  1
  O  O413  1  0.37118708  0.87025180  0.11968563  1
  O  O414  1  0.37469023  0.87832043  0.62078735  1
  O  O415  1  0.86821571  0.36483598  0.13787627  1
  O  O416  1  0.86773797  0.36108564  0.62667866  1
  O  O417  1  0.86963162  0.87041622  0.12180645  1
  O  O418  1  0.86982721  0.86864436  0.61743155  1
  O  O419  1  0.13839732  0.13713769  0.37104546  1
  O  O420  1  0.13374350  0.13472725  0.87404766  1
  O  O421  1  0.13234923  0.62651290  0.38116474  1
  O  O422  1  0.12375077  0.63003868  0.88747508  1
  O  O423  1  0.63250933  0.13131091  0.38119701  1
  O  O424  1  0.62902795  0.12609894  0.87190833  1
  O  O425  1  0.62606730  0.63869440  0.38188884  1
  O  O426  1  0.63213879  0.63929250  0.83136841  1
