# generated using pymatgen
data_V85Zn86O256
_symmetry_space_group_name_H-M   'P 1'
_cell_length_a   16.92079937
_cell_length_b   16.91835584
_cell_length_c   16.92940372
_cell_angle_alpha   89.98258514
_cell_angle_beta   89.96566262
_cell_angle_gamma   89.98746575
_symmetry_Int_Tables_number   1
_chemical_formula_structural   V85Zn86O256
_chemical_formula_sum   'V85 Zn86 O256'
_cell_volume   4846.41482847
_cell_formula_units_Z   1
loop_
 _symmetry_equiv_pos_site_id
 _symmetry_equiv_pos_as_xyz
  1  'x, y, z'
loop_
 _atom_site_type_symbol
 _atom_site_label
 _atom_site_symmetry_multiplicity
 _atom_site_fract_x
 _atom_site_fract_y
 _atom_site_fract_z
 _atom_site_occupancy
  V  V0  1  -0.00161319  0.13040961  0.62964778  1
  V  V1  1  0.74487020  0.74299362  0.50319545  1
  V  V2  1  0.86980192  0.49707975  0.87659879  1
  V  V3  1  -0.00335339  0.00171440  -0.00070534  1
  V  V4  1  0.50413783  0.25167126  0.75052427  1
  V  V5  1  0.00201614  0.75512363  0.74547701  1
  V  V6  1  0.62147179  0.74890775  0.37766542  1
  V  V7  1  0.24997533  0.87446635  0.12496826  1
  V  V8  1  0.12208044  0.24951474  0.87163837  1
  V  V9  1  0.75006911  0.37924952  0.12982982  1
  V  V10  1  0.49549688  0.00508005  0.49289305  1
  V  V11  1  0.87098096  0.62357850  0.25238118  1
  V  V12  1  0.74011833  0.00284159  0.24993161  1
  V  V13  1  0.62476165  0.51278412  0.12502177  1
  V  V14  1  0.25095375  0.38173365  0.63260852  1
  V  V15  1  0.25515813  -0.00084096  0.25642133  1
  V  V16  1  0.87009826  0.75196685  0.12173681  1
  V  V17  1  0.25683211  0.74623373  0.50604310  1
  V  V18  1  0.37791775  0.86824042  0.49861529  1
  V  V19  1  0.74742571  0.12924067  0.38028692  1
  V  V20  1  0.12373055  0.49378257  0.12523126  1
  V  V21  1  -0.00335499  0.88051790  0.86899394  1
  V  V22  1  0.12414321  0.75798807  0.87048345  1
  V  V23  1  0.50246808  0.00293779  0.01659388  1
  V  V24  1  0.24767800  0.75113779  -0.00309767  1
  V  V25  1  0.74459965  0.62030301  0.37594138  1
  V  V26  1  0.62439319  0.11900975  0.01432912  1
  V  V27  1  0.74836134  0.26191740  0.51098624  1
  V  V28  1  0.87526216  0.87473491  0.49773965  1
  V  V29  1  0.87640055  0.12510188  0.25243355  1
  V  V30  1  -0.00217299  0.62441177  0.12430428  1
  V  V31  1  0.24603795  -0.00668358  0.74682259  1
  V  V32  1  0.74848487  0.49737296  0.73574492  1
  V  V33  1  0.24735476  0.50237107  0.25295580  1
  V  V34  1  0.00209280  0.62422877  0.62432085  1
  V  V35  1  0.75212982  0.10952330  0.88002306  1
  V  V36  1  0.12850389  0.25684280  0.37458213  1
  V  V37  1  0.25335964  0.25194255  0.50489143  1
  V  V38  1  0.12483510  0.87535189  0.25230536  1
  V  V39  1  0.25029605  0.37340943  0.12938862  1
  V  V40  1  0.43098117  0.45622844  0.43249914  1
  V  V41  1  0.12453275  0.00305783  0.12634343  1
  V  V42  1  -0.00655295  0.36918176  0.87423952  1
  V  V43  1  0.62453836  0.38003268  0.25326595  1
  V  V44  1  0.36788158  0.62379959  0.25705338  1
  V  V45  1  0.38454766  0.24826019  0.12519655  1
  V  V46  1  0.87431685  0.49841748  0.37294868  1
  V  V47  1  0.74337144  0.87925812  0.12709721  1
  V  V48  1  0.50125327  0.74364541  0.24503684  1
  V  V49  1  0.87302365  0.87602872  -0.00196374  1
  V  V50  1  0.24774259  0.62010738  0.86766367  1
  V  V51  1  -0.00023870  0.75087148  0.25266005  1
  V  V52  1  0.37538014  0.62525852  0.73974865  1
  V  V53  1  0.37465110  0.87673253  -0.00034386  1
  V  V54  1  0.00678986  0.25189538  0.25043970  1
  V  V55  1  0.37911592  0.12597656  0.75033491  1
  V  V56  1  0.25551728  0.12346853  0.37635281  1
  V  V57  1  0.12716286  0.38223065  0.75519835  1
  V  V58  1  0.75154319  -0.00201974  0.75165504  1
  V  V59  1  0.50142730  0.87330831  0.87042199  1
  V  V60  1  0.50811100  0.37757124  0.87791783  1
  V  V61  1  0.75355294  0.25425200  0.00033805  1
  V  V62  1  0.50508197  0.51863299  0.00271417  1
  V  V63  1  0.25022565  0.12719255  0.87685844  1
  V  V64  1  0.37320777  0.49944553  0.87070536  1
  V  V65  1  0.74688948  0.63110408  0.88722152  1
  V  V66  1  0.49990770  0.74446707  0.73626088  1
  V  V67  1  0.37928958  0.25473098  0.62320295  1
  V  V68  1  -0.00839638  0.49448026  0.00010206  1
  V  V69  1  0.37778560  0.73996839  0.11988192  1
  V  V70  1  0.74842993  0.87397001  0.62458110  1
  V  V71  1  0.13786166  0.62155032  0.49658418  1
  V  V72  1  0.37870582  0.37622313  0.00240395  1
  V  V73  1  0.13294992  0.74572268  0.37472394  1
  V  V74  1  0.00516818  0.37557851  0.37341947  1
  V  V75  1  0.37917107  0.00215863  0.87439411  1
  V  V76  1  0.87699042  0.25705089  0.12389404  1
  V  V77  1  0.12403287  0.12090981  0.50301888  1
  V  V78  1  0.12202455  0.62558866  -0.00249719  1
  V  V79  1  0.38374713  0.12127563  0.24824107  1
  V  V80  1  0.00796817  0.49908079  0.49996745  1
  V  V81  1  0.62829510  0.24829662  0.87725697  1
  V  V82  1  0.59492952  0.50890368  0.59986452  1
  V  V83  1  0.87652579  0.12993332  0.75581266  1
  V  V84  1  0.50074816  0.25490422  0.25831456  1
  Zn  Zn85  1  0.87465274  0.62510679  0.75097270  1
  Zn  Zn86  1  0.00100248  0.12737125  0.12481315  1
  Zn  Zn87  1  0.87466623  0.74847198  0.62512113  1
  Zn  Zn88  1  0.62451099  0.12927255  0.50271470  1
  Zn  Zn89  1  0.49510956  0.87526287  0.37251965  1
  Zn  Zn90  1  0.62265220  0.00222841  0.62273326  1
  Zn  Zn91  1  0.87465545  0.37819911  0.50719327  1
  Zn  Zn92  1  0.87666547  0.25870310  0.63287815  1
  Zn  Zn93  1  0.62091255  0.73793716  0.88402290  1
  Zn  Zn94  1  0.12386776  0.12727505  0.00035637  1
  Zn  Zn95  1  0.50366797  0.12522915  0.62484318  1
  Zn  Zn96  1  0.63285327  0.37451448  0.73301229  1
  Zn  Zn97  1  0.25114131  0.25009970  0.00180992  1
  Zn  Zn98  1  0.13096047  0.50248377  0.63230705  1
  Zn  Zn99  1  0.00043240  0.87788304  0.37716716  1
  Zn  Zn100  1  0.62556132  0.87019088  0.74617714  1
  Zn  Zn101  1  0.11757132  -0.00688767  0.63170023  1
  Zn  Zn102  1  0.62377981  0.25841622  0.37944989  1
  Zn  Zn103  1  0.87557437  -0.00141274  0.37519572  1
  Zn  Zn104  1  -0.00170585  -0.00074026  0.50046713  1
  Zn  Zn105  1  0.24935157  0.86953397  0.62622164  1
  Zn  Zn106  1  0.61914791  0.87816070  0.24842952  1
  Zn  Zn107  1  0.19166788  0.18736646  0.18861422  1
  Zn  Zn108  1  0.18638598  0.18702774  0.69090211  1
  Zn  Zn109  1  0.18594787  0.68664441  0.18357015  1
  Zn  Zn110  1  0.18607925  0.68768256  0.68681099  1
  Zn  Zn111  1  0.68811924  0.19085496  0.19051576  1
  Zn  Zn112  1  0.68646167  0.18424383  0.68822202  1
  Zn  Zn113  1  0.69077235  0.68967506  0.18960668  1
  Zn  Zn114  1  0.68371537  0.67959454  0.69204098  1
  Zn  Zn115  1  0.31653904  0.31754588  0.31468723  1
  Zn  Zn116  1  0.31413316  0.31267895  0.81288297  1
  Zn  Zn117  1  0.31498522  0.80985123  0.31647160  1
  Zn  Zn118  1  0.31741452  0.81027635  0.80993314  1
  Zn  Zn119  1  0.81270544  0.31332234  0.31475646  1
  Zn  Zn120  1  0.81105060  0.31348626  0.81300246  1
  Zn  Zn121  1  0.80938780  0.81171598  0.31370225  1
  Zn  Zn122  1  0.81622810  0.81094205  0.81159592  1
  Zn  Zn123  1  0.22217977  0.45096800  0.45323921  1
  Zn  Zn124  1  0.18774790  0.43616327  0.94153060  1
  Zn  Zn125  1  0.18964272  0.93398958  0.43938364  1
  Zn  Zn126  1  0.18564991  0.94000285  0.93563522  1
  Zn  Zn127  1  0.68236536  0.44156434  0.44135382  1
  Zn  Zn128  1  0.68869776  0.43839414  0.94254739  1
  Zn  Zn129  1  0.68418996  0.93699361  0.43683189  1
  Zn  Zn130  1  0.66816606  0.90668937  0.95694202  1
  Zn  Zn131  1  0.31361068  0.06340482  0.06475790  1
  Zn  Zn132  1  0.32038918  0.06253128  0.56292301  1
  Zn  Zn133  1  0.31058292  0.56058861  0.05738328  1
  Zn  Zn134  1  0.34700516  0.56536089  0.54357783  1
  Zn  Zn135  1  0.81358492  0.06343219  0.06650400  1
  Zn  Zn136  1  0.81278455  0.06398044  0.56538804  1
  Zn  Zn137  1  0.80979355  0.56172625  0.06301234  1
  Zn  Zn138  1  0.81817017  0.56246232  0.55912396  1
  Zn  Zn139  1  0.44166482  0.44343624  0.19546242  1
  Zn  Zn140  1  0.43967741  0.43625130  0.68884263  1
  Zn  Zn141  1  0.43459892  0.93016453  0.19040614  1
  Zn  Zn142  1  0.43543442  0.93458082  0.67984958  1
  Zn  Zn143  1  0.93849926  0.43526443  0.19179420  1
  Zn  Zn144  1  0.93923211  0.43735126  0.69090522  1
  Zn  Zn145  1  0.93580434  0.93908510  0.18928308  1
  Zn  Zn146  1  0.93283302  0.94267376  0.68527576  1
  Zn  Zn147  1  0.06324557  0.06344766  0.31750092  1
  Zn  Zn148  1  0.06137047  0.06348911  0.81302916  1
  Zn  Zn149  1  0.06618159  0.56225649  0.31199119  1
  Zn  Zn150  1  0.05924821  0.56273458  0.81275221  1
  Zn  Zn151  1  0.56313050  0.06520896  0.31742946  1
  Zn  Zn152  1  0.56839853  0.06152317  0.81395647  1
  Zn  Zn153  1  0.56099763  0.56455605  0.30921803  1
  Zn  Zn154  1  0.56671104  0.56341988  0.80911483  1
  Zn  Zn155  1  0.43484382  0.19079708  0.43641085  1
  Zn  Zn156  1  0.44199300  0.18707419  0.94092249  1
  Zn  Zn157  1  0.44080280  0.67349916  0.43725524  1
  Zn  Zn158  1  0.43435459  0.68913742  0.93022055  1
  Zn  Zn159  1  0.93498748  0.18934435  0.44152535  1
  Zn  Zn160  1  0.93540393  0.18589327  0.93813252  1
  Zn  Zn161  1  0.94022640  0.68910611  0.43945706  1
  Zn  Zn162  1  0.93366425  0.68812575  0.93589194  1
  Zn  Zn163  1  0.06462444  0.31225420  0.05780220  1
  Zn  Zn164  1  0.06373171  0.31246100  0.56432596  1
  Zn  Zn165  1  0.05918588  0.81427909  0.06236233  1
  Zn  Zn166  1  0.06847013  0.81527563  0.56313025  1
  Zn  Zn167  1  0.56531480  0.31352764  0.06500018  1
  Zn  Zn168  1  0.55692159  0.32768208  0.55442105  1
  Zn  Zn169  1  0.56130927  0.80614287  0.05955939  1
  Zn  Zn170  1  0.56392978  0.81263771  0.56007899  1
  O  O171  1  0.12677924  0.11390387  0.12396094  1
  O  O172  1  0.11968088  0.12112778  0.61972315  1
  O  O173  1  0.11604285  0.62010043  0.11566948  1
  O  O174  1  0.11837959  0.62334843  0.61689623  1
  O  O175  1  0.63271259  0.12616312  0.11350904  1
  O  O176  1  0.62109250  0.12220406  0.62035988  1
  O  O177  1  0.63478352  0.61200854  0.12687720  1
  O  O178  1  0.62896328  0.60059662  0.63132705  1
  O  O179  1  0.38014150  0.38782178  0.37087026  1
  O  O180  1  0.38212223  0.38173638  0.88127425  1
  O  O181  1  0.37640949  0.87298779  0.38979065  1
  O  O182  1  0.38119026  0.88385118  0.87864033  1
  O  O183  1  0.88457528  0.38354885  0.37667960  1
  O  O184  1  0.88236076  0.38197706  0.87500512  1
  O  O185  1  0.87557006  0.87445919  0.38383669  1
  O  O186  1  0.88468173  0.87027732  0.88546722  1
  O  O187  1  0.24447103  0.00794391  0.36411403  1
  O  O188  1  0.25974133  0.00468814  0.86786410  1
  O  O189  1  0.22657710  0.49825805  0.34960610  1
  O  O190  1  0.25959529  0.50868467  0.88378666  1
  O  O191  1  0.75219512  0.00929777  0.36902753  1
  O  O192  1  0.74440116  0.00787514  0.87154158  1
  O  O193  1  0.76053182  0.51106617  0.38251319  1
  O  O194  1  0.76087475  0.50505005  0.88027061  1
  O  O195  1  0.24110610  0.49375011  0.12505467  1
  O  O196  1  0.24962935  0.48220077  0.62538524  1
  O  O197  1  0.24328645  0.99478672  0.13258427  1
  O  O198  1  0.25436680  1.00741729  0.64268075  1
  O  O199  1  0.73965873  0.48998509  0.11815754  1
  O  O200  1  0.75946310  0.50073010  0.63630645  1
  O  O201  1  0.75741561  0.99246071  0.13807392  1
  O  O202  1  0.74869702  0.99028140  0.63156862  1
  O  O203  1  0.00069826  0.36697632  0.26352241  1
  O  O204  1  0.00957511  0.37928959  0.76729445  1
  O  O205  1  0.00714531  0.86817679  0.25012080  1
  O  O206  1  -0.00734867  0.87075886  0.75843775  1
  O  O207  1  0.51083650  0.36443354  0.24053046  1
  O  O208  1  0.50382253  0.37042143  0.76461101  1
  O  O209  1  0.49800858  0.85994932  0.25410536  1
  O  O210  1  0.49373266  0.86215252  0.75258025  1
  O  O211  1  0.48831051  0.12949159  0.25466596  1
  O  O212  1  0.49596619  0.13345037  0.75256715  1
  O  O213  1  0.48344966  0.63560794  0.24782237  1
  O  O214  1  0.49154709  0.63641180  0.75776796  1
  O  O215  1  0.99305590  0.13275052  0.24962638  1
  O  O216  1  0.98874496  0.11838440  0.74500730  1
  O  O217  1  0.99114929  0.63032563  0.24429827  1
  O  O218  1  1.00083008  0.63274754  0.74110410  1
  O  O219  1  0.37520000  0.25530501  0.00824685  1
  O  O220  1  0.36600810  0.24702807  0.51047760  1
  O  O221  1  0.36907060  0.75608383  0.00234840  1
  O  O222  1  0.37006798  0.75495716  0.49434540  1
  O  O223  1  0.86658055  0.24408473  0.01252844  1
  O  O224  1  0.86031711  0.25318821  0.50135709  1
  O  O225  1  0.88303210  0.76097072  0.01146516  1
  O  O226  1  0.86659692  0.75872348  0.50101366  1
  O  O227  1  0.13067308  0.23694159  0.49380939  1
  O  O228  1  0.13105724  0.24743006  0.98888369  1
  O  O229  1  0.13212680  0.74181214  0.49152930  1
  O  O230  1  0.12653327  0.74565771  0.99264911  1
  O  O231  1  0.63419864  0.25505738  0.49876269  1
  O  O232  1  0.63241517  0.24108658  0.99738761  1
  O  O233  1  0.63223514  0.74868426  0.49137342  1
  O  O234  1  0.63557504  0.79511078  0.98034953  1
  O  O235  1  0.48922275  0.25164377  0.13196543  1
  O  O236  1  0.49437287  0.25519185  0.62975946  1
  O  O237  1  0.48995843  0.75438277  0.13025408  1
  O  O238  1  0.50429742  0.74910501  0.63727151  1
  O  O239  1  0.99610385  0.25213728  0.13231286  1
  O  O240  1  1.00195838  0.23455465  0.62233900  1
  O  O241  1  0.99237687  0.74586415  0.13320903  1
  O  O242  1  1.00268836  0.74423132  0.63143030  1
  O  O243  1  0.00682823  0.25453901  0.37029142  1
  O  O244  1  0.00750912  0.25838862  0.88286543  1
  O  O245  1  0.00979030  0.75073600  0.36644933  1
  O  O246  1  0.00586894  0.75811496  0.86850456  1
  O  O247  1  0.50260893  0.24822205  0.36297167  1
  O  O248  1  0.50825523  0.25706609  0.87268407  1
  O  O249  1  0.50709654  0.74308821  0.36921259  1
  O  O250  1  0.50058307  0.76055687  0.86958446  1
  O  O251  1  0.24735930  0.13083229  0.49498594  1
  O  O252  1  0.24918411  0.12214675  0.98701192  1
  O  O253  1  0.24293906  0.62821637  0.50268326  1
  O  O254  1  0.24346654  0.63160483  0.98886601  1
  O  O255  1  0.75022623  0.13452224  0.49384159  1
  O  O256  1  0.74647827  0.12944078  0.99593881  1
  O  O257  1  0.75806021  0.63601423  0.49139030  1
  O  O258  1  0.75711356  0.62831426  0.98667569  1
  O  O259  1  0.26050626  0.37560356  0.01101572  1
  O  O260  1  0.23206949  0.35430897  0.51700271  1
  O  O261  1  0.25470655  0.87187753  0.00271217  1
  O  O262  1  0.26104556  0.86448156  0.49694647  1
  O  O263  1  0.74593952  0.36077595  0.01098062  1
  O  O264  1  0.75221214  0.36478448  0.49473394  1
  O  O265  1  0.76850563  0.89123910  0.01191046  1
  O  O266  1  0.75341598  0.86431568  0.50548021  1
  O  O267  1  0.12701022  0.50820114  0.23012238  1
  O  O268  1  0.12529886  0.48783121  0.75454381  1
  O  O269  1  0.13245384  0.99735362  0.24380863  1
  O  O270  1  0.14327402  1.00411389  0.75398463  1
  O  O271  1  0.62080394  0.49456878  0.23370098  1
  O  O272  1  0.64193053  0.49578888  0.75388225  1
  O  O273  1  0.63580860  1.00019306  0.25384362  1
  O  O274  1  0.63903239  1.00037158  0.74523398  1
  O  O275  1  0.36523550  0.00688981  0.24411933  1
  O  O276  1  0.37068181  0.00675879  0.75688914  1
  O  O277  1  0.36405288  0.51628921  0.23796989  1
  O  O278  1  0.38195696  0.50589472  0.76594876  1
  O  O279  1  0.86870209  0.01175684  0.25181610  1
  O  O280  1  0.85966352  0.01073698  0.74752299  1
  O  O281  1  0.88229077  0.50874142  0.26316261  1
  O  O282  1  0.86765444  0.50220833  0.76039407  1
  O  O283  1  0.12219665  0.35977911  0.37844114  1
  O  O284  1  0.12119002  0.36901448  0.87260146  1
  O  O285  1  0.12359107  0.86609042  0.36885083  1
  O  O286  1  0.11649972  0.86420561  0.87980906  1
  O  O287  1  0.63531081  0.37828803  0.35704698  1
  O  O288  1  0.61969714  0.36655645  0.88045706  1
  O  O289  1  0.62370938  0.86021942  0.37021945  1
  O  O290  1  0.60381752  0.89327251  0.86005906  1
  O  O291  1  0.36744620  0.13573187  0.13624858  1
  O  O292  1  0.37965044  0.13713378  0.63312444  1
  O  O293  1  0.36880346  0.63743745  0.12284414  1
  O  O294  1  0.36082556  0.61836874  0.64205150  1
  O  O295  1  0.87565066  0.13771553  0.13768318  1
  O  O296  1  0.88115825  0.12950387  0.63458380  1
  O  O297  1  0.87716294  0.63100134  0.13219471  1
  O  O298  1  0.89079762  0.62735567  0.62397385  1
  O  O299  1  0.25925840  0.25773393  0.12526873  1
  O  O300  1  0.25793339  0.25029439  0.62169908  1
  O  O301  1  0.25326001  0.75606121  0.11563587  1
  O  O302  1  0.24629248  0.74815948  0.60977497  1
  O  O303  1  0.75870964  0.25605025  0.12067486  1
  O  O304  1  0.74994646  0.24955639  0.61329835  1
  O  O305  1  0.76379539  0.75988854  0.13283863  1
  O  O306  1  0.74863997  0.75198028  0.61945384  1
  O  O307  1  0.24616724  0.24618129  0.38190505  1
  O  O308  1  0.24602819  0.24164037  0.87776954  1
  O  O309  1  0.23826759  0.75119172  0.38217362  1
  O  O310  1  0.24155959  0.74671829  0.87768621  1
  O  O311  1  0.74856767  0.24410856  0.38325750  1
  O  O312  1  0.74603607  0.24430327  0.88551193  1
  O  O313  1  0.74309891  0.74140183  0.38203447  1
  O  O314  1  0.75180657  0.73298414  0.86635201  1
  O  O315  1  0.00276541  0.11623408  0.00337279  1
  O  O316  1  0.00791835  0.12392221  0.50610841  1
  O  O317  1  0.00181749  0.61756020  0.00506259  1
  O  O318  1  0.01089504  0.61998938  0.50574246  1
  O  O319  1  0.51096868  0.11464860  -0.00242981  1
  O  O320  1  0.49829625  0.11514720  0.49802341  1
  O  O321  1  0.49875168  0.61783505  -0.00587440  1
  O  O322  1  0.44181659  0.56988626  0.47805628  1
  O  O323  1  0.48675878  0.39401710  0.49123064  1
  O  O324  1  0.49609469  0.37764687  0.99136727  1
  O  O325  1  0.49163520  0.87964145  0.49801205  1
  O  O326  1  0.49061540  0.88495943  0.99046399  1
  O  O327  1  1.00592244  0.38039664  0.48762100  1
  O  O328  1  1.00549522  0.38511389  0.98840234  1
  O  O329  1  0.98823153  0.87340111  0.49996631  1
  O  O330  1  0.99261066  0.88184057  0.99400360  1
  O  O331  1  0.48984953  0.49260893  0.35426445  1
  O  O332  1  0.49776404  0.49391126  0.88266909  1
  O  O333  1  0.50281264  0.99588773  0.38759241  1
  O  O334  1  0.48749106  0.99868537  0.87581718  1
  O  O335  1  0.99911238  0.49230534  0.37782928  1
  O  O336  1  0.98902561  0.49619105  0.88201514  1
  O  O337  1  0.99548334  0.99778040  0.38034657  1
  O  O338  1  1.00722517  0.98855970  0.88370901  1
  O  O339  1  0.00930928  0.00140172  0.12071763  1
  O  O340  1  0.00014016  0.01194911  0.62107953  1
  O  O341  1  0.00350068  0.50071331  0.11801431  1
  O  O342  1  0.00745775  0.50822426  0.61967622  1
  O  O343  1  0.49343153  -0.00534869  0.11549796  1
  O  O344  1  0.50046400  0.00143451  0.61159486  1
  O  O345  1  0.51341323  0.49902920  0.11602442  1
  O  O346  1  0.49594457  0.50959673  0.62452604  1
  O  O347  1  0.25646087  0.38384742  0.23559748  1
  O  O348  1  0.24046930  0.36860615  0.74518366  1
  O  O349  1  0.24641552  0.88180319  0.24694868  1
  O  O350  1  0.25863122  0.88995907  0.75034679  1
  O  O351  1  0.74432296  0.36880530  0.23708580  1
  O  O352  1  0.74989656  0.39172866  0.75624675  1
  O  O353  1  0.75107623  0.88565179  0.24459379  1
  O  O354  1  0.75137384  0.87999029  0.74335443  1
  O  O355  1  0.25786726  0.11815876  0.25756924  1
  O  O356  1  0.25781224  0.11897448  0.76199431  1
  O  O357  1  0.25858571  0.61755478  0.23710248  1
  O  O358  1  0.25368957  0.63101560  0.76299329  1
  O  O359  1  0.75620779  0.12195273  0.25740977  1
  O  O360  1  0.75452777  0.11879821  0.76045312  1
  O  O361  1  0.76404520  0.62966675  0.25964710  1
  O  O362  1  0.75456428  0.61041920  0.75941772  1
  O  O363  1  0.36184592  0.13027462  0.36643942  1
  O  O364  1  0.36999729  0.11986881  0.87233579  1
  O  O365  1  0.36068189  0.63544918  0.35355999  1
  O  O366  1  0.36491761  0.61777827  0.86987262  1
  O  O367  1  0.86634055  0.12806810  0.36592737  1
  O  O368  1  0.86453205  0.12561034  0.87017753  1
  O  O369  1  0.87131669  0.62050184  0.36922293  1
  O  O370  1  0.86849394  0.61578521  0.87369808  1
  O  O371  1  0.13501260  0.38246923  0.11873971  1
  O  O372  1  0.12983769  0.37256983  0.63970955  1
  O  O373  1  0.12948475  0.88373049  0.13059996  1
  O  O374  1  0.13635854  0.88297386  0.61857442  1
  O  O375  1  0.63393434  0.38008032  0.13214626  1
  O  O376  1  0.61558992  0.40193729  0.62139705  1
  O  O377  1  0.64049562  0.87053608  0.12915287  1
  O  O378  1  0.63739107  0.87517865  0.62644868  1
  O  O379  1  0.11460900  0.24256651  0.25751147  1
  O  O380  1  0.12829141  0.25748149  0.76528036  1
  O  O381  1  0.12108465  0.75295282  0.25481272  1
  O  O382  1  0.11389230  0.74783334  0.75853424  1
  O  O383  1  0.61649720  0.25810667  0.24982773  1
  O  O384  1  0.62240182  0.25559570  0.75725161  1
  O  O385  1  0.61507627  0.74916993  0.25469634  1
  O  O386  1  0.61168967  0.74871889  0.75698536  1
  O  O387  1  0.38179824  0.24426094  0.24480583  1
  O  O388  1  0.38379273  0.24403437  0.74734222  1
  O  O389  1  0.37586511  0.74306803  0.23871060  1
  O  O390  1  0.38718626  0.73915042  0.75366208  1
  O  O391  1  0.88669351  0.24571968  0.24661342  1
  O  O392  1  0.86735242  0.23513574  0.75083275  1
  O  O393  1  0.88170511  0.74364311  0.24601102  1
  O  O394  1  0.88952888  0.74614682  0.74722197  1
  O  O395  1  0.33113287  0.47265181  0.48293213  1
  O  O396  1  0.38555565  0.49622432  0.99264995  1
  O  O397  1  0.38722147  0.99175419  0.49914983  1
  O  O398  1  0.37996226  0.99787620  0.99293659  1
  O  O399  1  0.88866652  0.50134910  0.48727047  1
  O  O400  1  0.88515825  0.50154625  0.99636520  1
  O  O401  1  0.87042256  0.98576820  0.49947944  1
  O  O402  1  0.89043248  0.99493428  1.00863279  1
  O  O403  1  0.11607053  -0.00058383  0.00901006  1
  O  O404  1  0.12818636  0.01347995  0.49811121  1
  O  O405  1  0.11537676  0.50566930  0.00650476  1
  O  O406  1  0.12555935  0.50674322  0.50115416  1
  O  O407  1  0.61327828  0.00513469  -0.00259136  1
  O  O408  1  0.61071446  -0.00041756  0.50062612  1
  O  O409  1  0.61668011  0.49562781  0.01328525  1
  O  O410  1  0.61602872  0.51030320  0.50048678  1
  O  O411  1  0.37182850  0.36969731  0.12103795  1
  O  O412  1  0.36604538  0.36155154  0.63786050  1
  O  O413  1  0.36681973  0.86492393  0.11873602  1
  O  O414  1  0.36689409  0.87710515  0.60628425  1
  O  O415  1  0.86900205  0.36523406  0.13149917  1
  O  O416  1  0.88968077  0.37026315  0.61946727  1
  O  O417  1  0.87186587  0.86794244  0.12082485  1
  O  O418  1  0.86353826  0.87127168  0.61841064  1
  O  O419  1  0.13683164  0.13365224  0.38056902  1
  O  O420  1  0.13271875  0.13166093  0.87548418  1
  O  O421  1  0.12042665  0.63340596  0.38442176  1
  O  O422  1  0.12872817  0.63301243  0.87860052  1
  O  O423  1  0.63698517  0.13151835  0.37842277  1
  O  O424  1  0.63444589  0.13199527  0.88334245  1
  O  O425  1  0.63668931  0.63283211  0.36511081  1
  O  O426  1  0.64124268  0.62134348  0.87796813  1
