# generated using pymatgen
data_V85Zn86O256
_symmetry_space_group_name_H-M   'P 1'
_cell_length_a   16.98290761
_cell_length_b   16.96849433
_cell_length_c   16.96388334
_cell_angle_alpha   90.05391334
_cell_angle_beta   89.98750252
_cell_angle_gamma   89.97551954
_symmetry_Int_Tables_number   1
_chemical_formula_structural   V85Zn86O256
_chemical_formula_sum   'V85 Zn86 O256'
_cell_volume   4888.55369158
_cell_formula_units_Z   1
loop_
 _symmetry_equiv_pos_site_id
 _symmetry_equiv_pos_as_xyz
  1  'x, y, z'
loop_
 _atom_site_type_symbol
 _atom_site_label
 _atom_site_symmetry_multiplicity
 _atom_site_fract_x
 _atom_site_fract_y
 _atom_site_fract_z
 _atom_site_occupancy
  V  V0  1  0.75147947  0.49176057  0.75148033  1
  V  V1  1  -0.00253653  0.37285892  0.37374059  1
  V  V2  1  -0.06655304  0.43309926  -0.06619683  1
  V  V3  1  0.00229569  0.63154999  0.63155330  1
  V  V4  1  0.49726776  0.00215706  0.49554406  1
  V  V5  1  0.26391865  0.11743225  0.36337970  1
  V  V6  1  0.50182882  0.37421130  0.37584971  1
  V  V7  1  0.75288547  0.62416978  0.87249376  1
  V  V8  1  0.75474168  0.74073047  0.49843491  1
  V  V9  1  0.12494006  0.86702582  0.24833695  1
  V  V10  1  0.62521385  0.49758157  0.12298898  1
  V  V11  1  0.86983691  0.63494723  0.74196231  1
  V  V12  1  0.13466677  0.12510691  -0.00442712  1
  V  V13  1  0.49485929  0.12517267  0.13056498  1
  V  V14  1  0.37587907  0.37655145  0.50076803  1
  V  V15  1  0.24899130  0.49853055  0.24571026  1
  V  V16  1  0.00487232  0.86063771  0.37375907  1
  V  V17  1  0.62090753  0.75412046  0.87379643  1
  V  V18  1  0.74880023  0.75169894  0.00106368  1
  V  V19  1  0.75155201  0.00174656  0.75399626  1
  V  V20  1  0.87575093  0.24767977  0.62668713  1
  V  V21  1  0.36839142  0.87630153  -0.00430250  1
  V  V22  1  0.62119108  0.49651099  0.63032669  1
  V  V23  1  0.13520611  0.00114817  0.62725092  1
  V  V24  1  0.36105418  0.00269795  0.87011103  1
  V  V25  1  0.49830857  0.51056106  0.50316944  1
  V  V26  1  0.62621415  0.24815151  0.37564212  1
  V  V27  1  0.13305435  0.88002528  0.75440682  1
  V  V28  1  0.38008437  0.75019066  0.62722438  1
  V  V29  1  0.51182709  0.25314947  0.75250884  1
  V  V30  1  0.29760112  0.93489358  0.18129358  1
  V  V31  1  0.36516515  0.12349246  0.75387476  1
  V  V32  1  0.12044498  0.37202611  0.24585065  1
  V  V33  1  0.49205216  0.49395275  -0.00120667  1
  V  V34  1  0.00380833  0.50092661  0.50868489  1
  V  V35  1  0.87574811  0.12590267  0.75718598  1
  V  V36  1  0.62733546  -0.00188340  0.62353693  1
  V  V37  1  0.62533753  0.36991303  0.24750076  1
  V  V38  1  0.37296749  0.87851366  0.50007591  1
  V  V39  1  0.49999240  0.00390914  -0.00489109  1
  V  V40  1  0.87829027  -0.00147556  0.37240919  1
  V  V41  1  0.11839610  0.75361042  0.87588391  1
  V  V42  1  -0.00678661  0.76294224  0.74992312  1
  V  V43  1  0.75079587  0.24969100  0.50015983  1
  V  V44  1  0.50081983  0.62493881  0.12285843  1
  V  V45  1  0.75571094  0.36817916  0.11658822  1
  V  V46  1  0.24890102  0.25127056  0.49783368  1
  V  V47  1  0.26284351  0.25433100  -0.01038104  1
  V  V48  1  0.63143510  0.87294111  0.25073865  1
  V  V49  1  0.75488600  0.00048047  0.24891308  1
  V  V50  1  0.62666289  0.74397842  0.37581103  1
  V  V51  1  0.88405144  0.62276130  0.24959502  1
  V  V52  1  0.51512363  0.37300747  0.87249149  1
  V  V53  1  0.37578239  0.25072226  0.62699950  1
  V  V54  1  0.24293312  0.74488635  0.00156508  1
  V  V55  1  0.12542935  0.24720730  0.87109434  1
  V  V56  1  0.12509185  0.38337725  0.75295118  1
  V  V57  1  0.67201667  0.17238783  0.94356756  1
  V  V58  1  0.87782731  0.88082915  -0.00489951  1
  V  V59  1  0.38120717  0.62030112  0.74641755  1
  V  V60  1  0.75244129  0.86811686  0.62359477  1
  V  V61  1  0.37304271  0.25315927  0.13335319  1
  V  V62  1  0.37357632  0.49979810  0.37189124  1
  V  V63  1  0.75404921  0.87580543  0.12443155  1
  V  V64  1  0.24575825  0.62397659  0.86721767  1
  V  V65  1  0.62511257  0.62425866  -0.00186429  1
  V  V66  1  0.36853093  0.49217853  0.87285429  1
  V  V67  1  0.87488032  0.37552542  0.50624707  1
  V  V68  1  0.00213325  0.12501394  0.62366809  1
  V  V69  1  0.62764107  0.12544068  0.49952947  1
  V  V70  1  0.12309835  0.24850389  0.37150110  1
  V  V71  1  0.37141352  0.74601991  0.12325273  1
  V  V72  1  0.74753989  0.50574523  0.25673604  1
  V  V73  1  0.50056092  0.12636306  0.62665480  1
  V  V74  1  0.12352712  -0.00065722  0.13178815  1
  V  V75  1  0.49938450  0.87633763  0.37538608  1
  V  V76  1  0.00137600  -0.00137333  0.49809112  1
  V  V77  1  0.25058865  0.38310925  0.62960794  1
  V  V78  1  0.00601242  0.13547052  0.13031877  1
  V  V79  1  0.88027859  0.13611564  0.24937617  1
  V  V80  1  0.00342866  0.00116902  -0.00816419  1
  V  V81  1  0.11347093  0.49978125  0.11288826  1
  V  V82  1  0.87658894  0.86916769  0.50180941  1
  V  V83  1  0.63097399  0.00823960  0.11811062  1
  V  V84  1  0.62374041  0.62415526  0.50245915  1
  Zn  Zn85  1  0.50199780  0.75116141  0.74643470  1
  Zn  Zn86  1  0.49538936  0.24059302  0.25540016  1
  Zn  Zn87  1  0.87891886  -0.00000026  0.87264008  1
  Zn  Zn88  1  0.88279546  0.74190098  0.12127502  1
  Zn  Zn89  1  0.11960159  0.64311877  0.49416204  1
  Zn  Zn90  1  0.00826678  0.73979811  0.24092557  1
  Zn  Zn91  1  0.62347105  0.87419041  0.74935070  1
  Zn  Zn92  1  0.37552532  0.62210954  0.24651414  1
  Zn  Zn93  1  0.88407804  0.25696245  0.11646767  1
  Zn  Zn94  1  0.23470056  0.63025387  0.37411538  1
  Zn  Zn95  1  0.49815641  0.87643614  0.87119149  1
  Zn  Zn96  1  0.25367814  0.37803539  0.11787425  1
  Zn  Zn97  1  0.75362208  0.12466057  0.37354910  1
  Zn  Zn98  1  0.50321714  0.74671353  0.24749092  1
  Zn  Zn99  1  0.04538873  0.65093129  0.06086922  1
  Zn  Zn100  1  0.13196437  0.51032279  0.63198286  1
  Zn  Zn101  1  0.25364426  0.87715200  0.62852329  1
  Zn  Zn102  1  0.12776366  0.12297126  0.49608194  1
  Zn  Zn103  1  0.74528245  0.37106983  0.63114564  1
  Zn  Zn104  1  -0.00132461  0.25490355  0.75553162  1
  Zn  Zn105  1  0.24654421  0.74695508  0.49731258  1
  Zn  Zn106  1  0.87005048  0.50394453  0.38161607  1
  Zn  Zn107  1  0.19176140  0.18905946  0.18684305  1
  Zn  Zn108  1  0.18726220  0.19133984  0.68431820  1
  Zn  Zn109  1  0.18970243  0.68116145  0.18827532  1
  Zn  Zn110  1  0.18979834  0.69365949  0.68639445  1
  Zn  Zn111  1  0.68918305  0.18626536  0.18537907  1
  Zn  Zn112  1  0.69146420  0.18632115  0.69065608  1
  Zn  Zn113  1  0.68984145  0.68655383  0.18574150  1
  Zn  Zn114  1  0.68250156  0.68621633  0.68408105  1
  Zn  Zn115  1  0.30811927  0.31465617  0.31186354  1
  Zn  Zn116  1  0.31367462  0.31036471  0.81001178  1
  Zn  Zn117  1  0.31783499  0.80892283  0.31487608  1
  Zn  Zn118  1  0.31105148  0.80969941  0.81274370  1
  Zn  Zn119  1  0.81103317  0.31541612  0.31288046  1
  Zn  Zn120  1  0.80584361  0.29390934  0.94118691  1
  Zn  Zn121  1  0.81629950  0.80518728  0.31428920  1
  Zn  Zn122  1  0.80857421  0.81479548  0.81402726  1
  Zn  Zn123  1  0.18511358  0.44260700  0.43720270  1
  Zn  Zn124  1  0.18846556  0.43443564  0.93404835  1
  Zn  Zn125  1  0.18536048  0.93660095  0.43489785  1
  Zn  Zn126  1  0.18693937  0.93409469  0.94048845  1
  Zn  Zn127  1  0.68658391  0.43578382  0.43985761  1
  Zn  Zn128  1  0.68999583  0.44077353  0.93695574  1
  Zn  Zn129  1  0.68976667  0.93507628  0.43669231  1
  Zn  Zn130  1  0.68892889  0.94381059  0.93818419  1
  Zn  Zn131  1  0.31816331  0.07191762  0.05744268  1
  Zn  Zn132  1  0.31377456  0.06705975  0.55816885  1
  Zn  Zn133  1  0.30774998  0.56332053  0.05792517  1
  Zn  Zn134  1  0.31063092  0.56820068  0.56086849  1
  Zn  Zn135  1  0.82885725  0.10162231  0.03826134  1
  Zn  Zn136  1  0.81402679  0.06021147  0.56245640  1
  Zn  Zn137  1  0.81686453  0.55654285  0.06218331  1
  Zn  Zn138  1  0.81391554  0.56156516  0.56958500  1
  Zn  Zn139  1  0.43796731  0.43162568  0.18539822  1
  Zn  Zn140  1  0.43890276  0.43862200  0.68963432  1
  Zn  Zn141  1  0.45765493  0.93337462  0.18493884  1
  Zn  Zn142  1  0.43964823  0.93767812  0.68850552  1
  Zn  Zn143  1  0.93656178  0.43890230  0.18694967  1
  Zn  Zn144  1  0.95868132  0.46375331  0.73470866  1
  Zn  Zn145  1  0.94114585  0.93953500  0.18465090  1
  Zn  Zn146  1  0.93880231  0.93950040  0.68425835  1
  Zn  Zn147  1  0.06500076  0.06021755  0.31177172  1
  Zn  Zn148  1  0.06677622  0.06665173  0.81084841  1
  Zn  Zn149  1  0.06108687  0.55365260  0.31418374  1
  Zn  Zn150  1  0.03891485  0.57986935  0.86762162  1
  Zn  Zn151  1  0.56580147  0.06116013  0.31027158  1
  Zn  Zn152  1  0.55633007  0.05875928  0.80835400  1
  Zn  Zn153  1  0.56142451  0.56281840  0.31367569  1
  Zn  Zn154  1  0.56267057  0.56176842  0.81318116  1
  Zn  Zn155  1  0.43646056  0.18735429  0.43729864  1
  Zn  Zn156  1  0.44701505  0.18480627  0.93495673  1
  Zn  Zn157  1  0.41433219  0.69913371  0.42413526  1
  Zn  Zn158  1  0.43499813  0.68430129  0.93586191  1
  Zn  Zn159  1  0.93984098  0.18736372  0.43716789  1
  Zn  Zn160  1  0.94935975  0.18947866  0.93941486  1
  Zn  Zn161  1  0.93642092  0.68053895  0.43423066  1
  Zn  Zn162  1  0.92944916  0.69716297  0.93137357  1
  Zn  Zn163  1  0.06646968  0.31624557  0.05443063  1
  Zn  Zn164  1  0.06420850  0.31449198  0.56513159  1
  Zn  Zn165  1  0.06163914  0.82043461  0.06443228  1
  Zn  Zn166  1  0.06644981  0.81219737  0.56685357  1
  Zn  Zn167  1  0.55941634  0.31053288  0.05879976  1
  Zn  Zn168  1  0.56195346  0.31597222  0.56421163  1
  Zn  Zn169  1  0.56142428  0.81617305  0.05989414  1
  Zn  Zn170  1  0.56032825  0.81114781  0.56316852  1
  O  O171  1  0.12305232  0.11965816  0.12155064  1
  O  O172  1  0.11878125  0.11983047  0.62199743  1
  O  O173  1  0.12732454  0.60656318  0.12616953  1
  O  O174  1  0.11638008  0.62635740  0.62662238  1
  O  O175  1  0.61928875  0.11160913  0.13115796  1
  O  O176  1  0.62176104  0.11755363  0.61825985  1
  O  O177  1  0.62087992  0.61826592  0.11757667  1
  O  O178  1  0.62502578  0.61612515  0.61023475  1
  O  O179  1  0.38140449  0.38170571  0.37839598  1
  O  O180  1  0.37542691  0.38996810  0.86782800  1
  O  O181  1  0.39287994  0.87440283  0.38089537  1
  O  O182  1  0.37510136  0.88147242  0.88100752  1
  O  O183  1  0.88128185  0.37330861  0.38708449  1
  O  O184  1  0.87442725  0.36572940  0.88610817  1
  O  O185  1  0.88227735  0.87868311  0.38193126  1
  O  O186  1  0.86741633  0.88023727  0.89067910  1
  O  O187  1  0.24362267  0.02056215  0.38214161  1
  O  O188  1  0.26218811  -0.00115993  0.88096415  1
  O  O189  1  0.26012945  0.49577324  0.36630948  1
  O  O190  1  0.25753174  0.51108190  0.88232056  1
  O  O191  1  0.76057644  -0.00078847  0.36883303  1
  O  O192  1  0.75066977  -0.00450809  0.85674790  1
  O  O193  1  0.75023982  0.49083864  0.36011914  1
  O  O194  1  0.73971472  0.51133519  0.86065958  1
  O  O195  1  0.24715932  0.49665185  0.13063591  1
  O  O196  1  0.25061576  0.48622171  0.61891457  1
  O  O197  1  0.24488595  0.99999143  0.12044283  1
  O  O198  1  0.23793850  1.00169462  0.61762733  1
  O  O199  1  0.74343354  0.48734153  0.13309819  1
  O  O200  1  0.74122932  0.49978207  0.63545072  1
  O  O201  1  0.74389524  0.98857619  0.13053980  1
  O  O202  1  0.74457647  0.98931949  0.62715648  1
  O  O203  1  0.00667288  0.38101142  0.26149426  1
  O  O204  1  0.02109748  0.36786774  0.73538241  1
  O  O205  1  0.00809781  0.87064188  0.25532279  1
  O  O206  1  0.00654783  0.86690462  0.74273304  1
  O  O207  1  0.51381345  0.37423846  0.25499092  1
  O  O208  1  0.49633202  0.36836965  0.76275771  1
  O  O209  1  0.51301032  0.87061471  0.25877868  1
  O  O210  1  0.50537890  0.87186781  0.75344314  1
  O  O211  1  0.50250411  0.12245746  0.23673508  1
  O  O212  1  0.49292168  0.13257388  0.74164040  1
  O  O213  1  0.50071476  0.62440783  0.23581032  1
  O  O214  1  0.48424774  0.62830477  0.75767744  1
  O  O215  1  0.99420685  0.12092403  0.24144717  1
  O  O216  1  0.99421794  0.12685534  0.73886138  1
  O  O217  1  0.98696427  0.61804607  0.24906555  1
  O  O218  1  0.98671918  0.63612331  0.74854191  1
  O  O219  1  0.36475176  0.24064940  0.00375872  1
  O  O220  1  0.36973207  0.25753425  0.50552803  1
  O  O221  1  0.37080408  0.75735700  0.00723955  1
  O  O222  1  0.38273555  0.76458629  0.51263799  1
  O  O223  1  0.86410058  0.21751896  0.00751842  1
  O  O224  1  0.86985310  0.25278996  0.50663636  1
  O  O225  1  0.86624177  0.76239591  0.00229448  1
  O  O226  1  0.86547261  0.75616335  0.49163732  1
  O  O227  1  0.13418237  0.25213226  0.49104732  1
  O  O228  1  0.13669454  0.24353648  0.99198614  1
  O  O229  1  0.13249563  0.75880850  0.49723014  1
  O  O230  1  0.13063651  0.75373959  0.99347981  1
  O  O231  1  0.63072924  0.24624127  0.49646016  1
  O  O232  1  0.62539129  0.23512194  1.00925572  1
  O  O233  1  0.62909417  0.74195655  0.49560346  1
  O  O234  1  0.63044461  0.74573169  0.99496752  1
  O  O235  1  0.48931816  0.24245018  0.12614836  1
  O  O236  1  0.49337156  0.24786018  0.63033474  1
  O  O237  1  0.49337203  0.74244706  0.12098046  1
  O  O238  1  0.48702478  0.75239319  0.62770297  1
  O  O239  1  1.00388825  0.23929524  0.11846059  1
  O  O240  1  0.99448125  0.23674717  0.61857828  1
  O  O241  1  1.00143214  0.74043253  0.12090214  1
  O  O242  1  1.00204536  0.74101227  0.63557336  1
  O  O243  1  0.00889327  0.26357529  0.38304056  1
  O  O244  1  0.01937397  0.24767202  0.87291194  1
  O  O245  1  -0.00490367  0.75911477  0.36912874  1
  O  O246  1  0.00815087  0.75311979  0.86322379  1
  O  O247  1  0.50689810  0.25573215  0.37433532  1
  O  O248  1  0.49403003  0.26589383  0.86859126  1
  O  O249  1  0.50952294  0.75720642  0.37384755  1
  O  O250  1  0.51210542  0.75110760  0.88010134  1
  O  O251  1  0.24930160  0.13989775  0.49341737  1
  O  O252  1  0.24077722  0.13719502  1.00466606  1
  O  O253  1  0.24130369  0.62472706  0.49612054  1
  O  O254  1  0.25652282  0.63830420  0.98486015  1
  O  O255  1  0.74531353  0.13091328  0.49822111  1
  O  O256  1  0.72661672  0.09948307  0.99462980  1
  O  O257  1  0.74481152  0.63487408  0.50493663  1
  O  O258  1  0.74565324  0.62848782  0.99163567  1
  O  O259  1  0.24899442  0.35726576  0.00020970  1
  O  O260  1  0.25588899  0.36748213  0.50309688  1
  O  O261  1  0.26111909  0.86234883  -0.00259211  1
  O  O262  1  0.26751888  0.88022750  0.49443240  1
  O  O263  1  0.74546774  0.37381072  0.01251519  1
  O  O264  1  0.75788570  0.36793302  0.50232460  1
  O  O265  1  0.75534648  0.87482240  0.00869816  1
  O  O266  1  0.75748006  0.86595039  0.50424556  1
  O  O267  1  0.13135620  0.48852213  0.24191564  1
  O  O268  1  0.12719690  0.48323324  0.74994197  1
  O  O269  1  0.12365201  0.99194345  0.23804381  1
  O  O270  1  0.11813991  0.99204993  0.74055339  1
  O  O271  1  0.63254445  0.49289255  0.24588008  1
  O  O272  1  0.63522827  0.51109133  0.73970022  1
  O  O273  1  0.63538801  0.99263505  0.24313490  1
  O  O274  1  0.63188003  1.00131296  0.73700925  1
  O  O275  1  0.36388144  -0.01227762  0.23103338  1
  O  O276  1  0.37953967  0.01408246  0.75501993  1
  O  O277  1  0.36721094  0.49360862  0.25416934  1
  O  O278  1  0.37668781  0.51289554  0.75551890  1
  O  O279  1  0.87245784  0.00461532  0.25559796  1
  O  O280  1  0.86965716  0.00604160  0.74949372  1
  O  O281  1  0.86277058  0.50511562  0.25172456  1
  O  O282  1  0.85692401  0.51622766  0.74480123  1
  O  O283  1  0.11853355  0.36854425  0.36868374  1
  O  O284  1  0.13568072  0.36540081  0.85905573  1
  O  O285  1  0.11505306  0.88237906  0.36189566  1
  O  O286  1  0.12806578  0.86522393  0.86899354  1
  O  O287  1  0.62156930  0.36713179  0.36860003  1
  O  O288  1  0.61315884  0.38003134  0.87316024  1
  O  O289  1  0.61802100  0.86721598  0.37299935  1
  O  O290  1  0.62470281  0.86683516  0.87462703  1
  O  O291  1  0.38241686  0.13821693  0.12525028  1
  O  O292  1  0.38156284  0.13013972  0.63169719  1
  O  O293  1  0.38243213  0.63145540  0.12210606  1
  O  O294  1  0.37067713  0.63103241  0.63951834  1
  O  O295  1  0.88951655  0.12349421  0.13513794  1
  O  O296  1  0.88414888  0.12844616  0.62662488  1
  O  O297  1  0.86350475  0.62333879  0.14240967  1
  O  O298  1  0.87975304  0.63013400  0.63591406  1
  O  O299  1  0.26203131  0.25106324  0.11598531  1
  O  O300  1  0.25650129  0.25708229  0.61459503  1
  O  O301  1  0.25914391  0.73977106  0.11462493  1
  O  O302  1  0.26565043  0.75627249  0.62247051  1
  O  O303  1  0.75058621  0.26635544  0.13152595  1
  O  O304  1  0.75844331  0.25065022  0.61895630  1
  O  O305  1  0.74964993  0.76150883  0.11882378  1
  O  O306  1  0.74318770  0.76206506  0.61535891  1
  O  O307  1  0.24285619  0.24641302  0.38085327  1
  O  O308  1  0.24829513  0.24929125  0.88526157  1
  O  O309  1  0.29619071  0.72893197  0.38770449  1
  O  O310  1  0.24256169  0.74419037  0.88165647  1
  O  O311  1  0.74376753  0.24846944  0.38197420  1
  O  O312  1  0.73326655  0.22863274  0.88484035  1
  O  O313  1  0.73576865  0.75586314  0.38529223  1
  O  O314  1  0.73821288  0.74574365  0.88105488  1
  O  O315  1  0.01686779  0.11885107  0.00847840  1
  O  O316  1  0.00292093  0.11656484  0.50497382  1
  O  O317  1  -0.00268075  0.61756708  -0.03092281  1
  O  O318  1  -0.00289902  0.61767489  0.51164961  1
  O  O319  1  0.49112867  0.11045462  0.01228860  1
  O  O320  1  0.50618977  0.11918561  0.50511643  1
  O  O321  1  0.50499152  0.61646583  0.00460536  1
  O  O322  1  0.50448349  0.61301476  0.49428840  1
  O  O323  1  0.49352021  0.38230352  0.49428002  1
  O  O324  1  0.50208854  0.38224888  0.98655365  1
  O  O325  1  0.49553328  0.88386620  0.49448123  1
  O  O326  1  0.48374105  0.88438684  1.00239884  1
  O  O327  1  0.99200117  0.38039886  0.49979145  1
  O  O328  1  0.99538859  0.37943348  0.99402442  1
  O  O329  1  0.99286449  0.87774746  0.49333934  1
  O  O330  1  0.98953952  0.88907499  1.00715466  1
  O  O331  1  0.49836738  0.48946102  0.38170398  1
  O  O332  1  0.49429995  0.49034147  0.87930255  1
  O  O333  1  0.51135899  0.99245088  0.38655072  1
  O  O334  1  0.48912841  0.99688417  0.88289252  1
  O  O335  1  0.99447479  0.48661675  0.38862544  1
  O  O336  1  0.98432918  0.48299544  0.85254916  1
  O  O337  1  0.99413667  0.99192807  0.37957792  1
  O  O338  1  1.00475899  1.00475995  0.88873272  1
  O  O339  1  0.01021333  0.00988398  0.11731233  1
  O  O340  1  0.00586979  0.00975052  0.61762478  1
  O  O341  1  0.01381848  0.49608782  0.12481026  1
  O  O342  1  0.00020270  0.51544255  0.62773022  1
  O  O343  1  0.50921771  0.00629432  0.11735389  1
  O  O344  1  0.51077118  0.00458848  0.61731791  1
  O  O345  1  0.50343448  0.50218617  0.11578607  1
  O  O346  1  0.50700600  0.49588614  0.61543546  1
  O  O347  1  0.24140279  0.38409895  0.24607856  1
  O  O348  1  0.24185629  0.36625481  0.73810713  1
  O  O349  1  0.24712952  0.87568875  0.25096177  1
  O  O350  1  0.23714638  0.87344631  0.74925385  1
  O  O351  1  0.73996354  0.38190649  0.24409524  1
  O  O352  1  0.75342515  0.39382743  0.75040564  1
  O  O353  1  0.75100357  0.87786748  0.24377130  1
  O  O354  1  0.74882497  0.88140081  0.73837916  1
  O  O355  1  0.24781426  0.12878098  0.26454008  1
  O  O356  1  0.26708300  0.13078160  0.74312566  1
  O  O357  1  0.25481478  0.61056054  0.25367774  1
  O  O358  1  0.26176315  0.63250229  0.76113334  1
  O  O359  1  0.76039282  0.11670055  0.24972656  1
  O  O360  1  0.76372674  0.11300483  0.73804028  1
  O  O361  1  0.74770204  0.60798220  0.24823133  1
  O  O362  1  0.75331302  0.62649385  0.75405591  1
  O  O363  1  0.36390119  0.12771433  0.37516315  1
  O  O364  1  0.38011212  0.11910990  0.86105846  1
  O  O365  1  0.39122126  0.60268047  0.36562583  1
  O  O366  1  0.36885088  0.61826527  0.86509022  1
  O  O367  1  0.87780182  0.11768774  0.36674505  1
  O  O368  1  0.88577984  0.12361684  0.85911407  1
  O  O369  1  0.87206091  0.62017682  0.35799407  1
  O  O370  1  0.85649576  0.63620093  0.86173476  1
  O  O371  1  0.12783098  0.38076212  0.13121823  1
  O  O372  1  0.13694579  0.37300847  0.63362508  1
  O  O373  1  0.12535646  0.88649709  0.13402150  1
  O  O374  1  0.12815162  0.88583678  0.63469992  1
  O  O375  1  0.62937477  0.37804179  0.13150550  1
  O  O376  1  0.62870130  0.39108804  0.61895528  1
  O  O377  1  0.63240181  0.88129234  0.13066309  1
  O  O378  1  0.63352188  0.88295452  0.62202234  1
  O  O379  1  0.13060639  0.26340508  0.25619121  1
  O  O380  1  0.12552597  0.25324945  0.75714038  1
  O  O381  1  0.12724616  0.76165309  0.24265794  1
  O  O382  1  0.11753130  0.76173708  0.75547837  1
  O  O383  1  0.62354359  0.25564855  0.25605460  1
  O  O384  1  0.61081006  0.24757751  0.74059707  1
  O  O385  1  0.62736839  0.75338427  0.25875820  1
  O  O386  1  0.62272020  0.75007928  0.75921438  1
  O  O387  1  0.37592363  0.25495175  0.23748648  1
  O  O388  1  0.38320783  0.24006056  0.74587717  1
  O  O389  1  0.38028571  0.74979706  0.23276910  1
  O  O390  1  0.37776094  0.74105780  0.74592946  1
  O  O391  1  0.87161226  0.23811718  0.24912725  1
  O  O392  1  0.88015886  0.24084082  0.73307834  1
  O  O393  1  0.87671294  0.73436935  0.24600496  1
  O  O394  1  0.88204419  0.74999207  0.75360604  1
  O  O395  1  0.38158464  0.49588358  0.49316294  1
  O  O396  1  0.38632315  0.50610403  0.99000878  1
  O  O397  1  0.39024901  0.99590180  0.50677808  1
  O  O398  1  0.37779573  0.99412569  0.99331192  1
  O  O399  1  0.88228083  0.49198196  0.50363237  1
  O  O400  1  0.87152621  0.49376440  0.98731485  1
  O  O401  1  0.88028374  0.99142532  0.49174270  1
  O  O402  1  0.88658098  1.00165814  0.99682873  1
  O  O403  1  0.12349350  0.00534002  0.00909880  1
  O  O404  1  0.11673037  -0.00061151  0.50807155  1
  O  O405  1  0.13010748  0.49218609  0.01402230  1
  O  O406  1  0.10878498  0.49194056  0.50964755  1
  O  O407  1  0.61071349  -0.01317868  0.00965360  1
  O  O408  1  0.62198336  0.00369113  0.50801736  1
  O  O409  1  0.61516494  0.50471620  0.00391025  1
  O  O410  1  0.61905687  0.50646330  0.50377931  1
  O  O411  1  0.37677608  0.35788084  0.12057319  1
  O  O412  1  0.36929805  0.37020864  0.62207002  1
  O  O413  1  0.36642842  0.87391407  0.12251218  1
  O  O414  1  0.37406206  0.87218039  0.61815314  1
  O  O415  1  0.86026203  0.37273141  0.13043728  1
  O  O416  1  0.87315823  0.36293140  0.61331552  1
  O  O417  1  0.86724318  0.87629267  0.11649501  1
  O  O418  1  0.86809738  0.87989906  0.60969982  1
  O  O419  1  0.12425674  0.13975251  0.37449981  1
  O  O420  1  0.12836355  0.13130462  0.88394330  1
  O  O421  1  0.12287096  0.61352059  0.38201528  1
  O  O422  1  0.13428683  0.64125803  0.86429951  1
  O  O423  1  0.62753765  0.13199643  0.38072754  1
  O  O424  1  0.60331022  0.12764800  0.88293432  1
  O  O425  1  0.62076878  0.63250154  0.38710860  1
  O  O426  1  0.63136961  0.63238488  0.88019897  1
