# generated using pymatgen
data_V85Zn86O256
_symmetry_space_group_name_H-M   'P 1'
_cell_length_a   16.93539272
_cell_length_b   16.94041583
_cell_length_c   16.93756203
_cell_angle_alpha   90.00902650
_cell_angle_beta   89.94565265
_cell_angle_gamma   90.00310743
_symmetry_Int_Tables_number   1
_chemical_formula_structural   V85Zn86O256
_chemical_formula_sum   'V85 Zn86 O256'
_cell_volume   4859.25887060
_cell_formula_units_Z   1
loop_
 _symmetry_equiv_pos_site_id
 _symmetry_equiv_pos_as_xyz
  1  'x, y, z'
loop_
 _atom_site_type_symbol
 _atom_site_label
 _atom_site_symmetry_multiplicity
 _atom_site_fract_x
 _atom_site_fract_y
 _atom_site_fract_z
 _atom_site_occupancy
  V  V0  1  0.13100053  0.37813762  0.75038061  1
  V  V1  1  0.24476836  0.13111708  0.87488959  1
  V  V2  1  0.49918183  0.50418026  0.50106376  1
  V  V3  1  0.00281739  0.36890793  0.87668296  1
  V  V4  1  0.37424272  0.12726596  0.74926852  1
  V  V5  1  0.25517212  0.74890360  0.00072977  1
  V  V6  1  0.87632690  0.49922885  0.87617149  1
  V  V7  1  0.87659532  0.00082380  0.87742392  1
  V  V8  1  0.00178193  0.12277304  0.61693078  1
  V  V9  1  0.37379624  0.37423871  0.50087277  1
  V  V10  1  0.75428466  0.49874429  0.74940466  1
  V  V11  1  0.62338745  0.74765141  0.87218254  1
  V  V12  1  0.87938384  0.49144189  0.37957775  1
  V  V13  1  0.49094125  0.63414649  0.11845664  1
  V  V14  1  0.48473185  0.49893189  0.00321453  1
  V  V15  1  0.87336395  0.75311107  0.12593222  1
  V  V16  1  0.25259985  0.87484530  0.13083801  1
  V  V17  1  0.62344925  0.62965269  0.49881753  1
  V  V18  1  0.25136946  0.62807262  0.37320869  1
  V  V19  1  0.12421081  0.62435956  0.00157752  1
  V  V20  1  -0.00048635  0.62444128  0.62410296  1
  V  V21  1  0.50965782  0.12057175  0.12463190  1
  V  V22  1  0.62482122  0.00150481  0.62251451  1
  V  V23  1  0.00152738  0.00004736  0.00350307  1
  V  V24  1  0.75157463  0.00285865  0.75159666  1
  V  V25  1  0.24869716  0.62063573  0.86292601  1
  V  V26  1  0.87469230  0.62863709  0.25277527  1
  V  V27  1  0.62381779  0.50392416  0.62417693  1
  V  V28  1  0.12685861  0.12553977  0.48577828  1
  V  V29  1  0.87695329  0.12759054  0.75022868  1
  V  V30  1  0.86626695  0.11746195  0.25621274  1
  V  V31  1  0.12628173  0.75092561  0.87591827  1
  V  V32  1  0.13054952  0.00052779  0.13257241  1
  V  V33  1  0.00858184  0.24805437  0.75085910  1
  V  V34  1  0.37383216  0.25069102  0.12230570  1
  V  V35  1  0.49991384  0.74916719  0.26239792  1
  V  V36  1  0.87130112  0.37423215  0.00703502  1
  V  V37  1  0.62359831  0.87136707  0.74976996  1
  V  V38  1  0.87889363  0.25401778  0.61936258  1
  V  V39  1  0.12277412  0.49746897  0.12739264  1
  V  V40  1  -0.00458565  0.88235684  0.39315363  1
  V  V41  1  0.12414138  0.13081950  -0.00005739  1
  V  V42  1  0.00012904  0.49024290  0.49857161  1
  V  V43  1  0.49484432  0.37476977  0.88180091  1
  V  V44  1  0.12812449  0.87692695  0.74982950  1
  V  V45  1  0.51247159  0.00452677  0.00373502  1
  V  V46  1  0.49883807  0.24693722  0.25111363  1
  V  V47  1  0.00065131  0.75890420  0.25210698  1
  V  V48  1  0.75034448  0.74764618  0.00087586  1
  V  V49  1  0.44122984  0.68391905  0.69374988  1
  V  V50  1  0.11744100  0.36891872  0.26161616  1
  V  V51  1  0.37563908  0.00289684  0.87795525  1
  V  V52  1  0.24900414  0.00364876  0.74891972  1
  V  V53  1  0.50307856  0.87918455  0.87561541  1
  V  V54  1  0.87800761  0.24949774  0.12979905  1
  V  V55  1  0.62481102  0.24941380  0.87897824  1
  V  V56  1  0.25146625  0.49865122  0.25016850  1
  V  V57  1  0.36117648  0.11606047  0.25933442  1
  V  V58  1  0.37527768  0.87346167  0.00258024  1
  V  V59  1  0.62293759  0.62005021  0.00065601  1
  V  V60  1  0.85719787  -0.00699975  0.39127198  1
  V  V61  1  0.12441417  -0.00056025  0.61693693  1
  V  V62  1  0.75091207  0.75350158  0.49679030  1
  V  V63  1  0.12412110  0.62873530  0.49893363  1
  V  V64  1  0.74777774  0.62805213  0.37398844  1
  V  V65  1  0.74453282  0.25085644  0.00923643  1
  V  V66  1  0.74953726  0.49394078  0.24341000  1
  V  V67  1  0.75531059  0.37557295  0.61505300  1
  V  V68  1  0.87577454  0.75144610  0.62188911  1
  V  V69  1  0.62567855  0.37526739  0.75060021  1
  V  V70  1  0.49950878  0.12767264  0.62036742  1
  V  V71  1  -0.00004257  0.75135757  0.75019399  1
  V  V72  1  0.61905570  0.87355619  0.25617090  1
  V  V73  1  0.49942467  0.25127105  0.75021012  1
  V  V74  1  0.73956450  0.88444086  0.12331324  1
  V  V75  1  0.63204679  0.13055096  0.49237032  1
  V  V76  1  0.36794287  -0.01797463  0.38327953  1
  V  V77  1  0.13487861  0.50042725  0.63018571  1
  V  V78  1  0.75596408  0.87586315  0.62355219  1
  V  V79  1  0.24944494  0.25637743  -0.00060315  1
  V  V80  1  0.26559227  0.75501437  0.50424023  1
  V  V81  1  0.36723733  0.49708915  0.85937852  1
  V  V82  1  0.74417364  0.12735334  0.88138697  1
  V  V83  1  0.24636809  0.24720711  0.48673620  1
  V  V84  1  0.50462572  0.37534618  0.37286941  1
  Zn  Zn85  1  0.37729258  0.50254784  0.37239705  1
  Zn  Zn86  1  0.37077040  0.24992604  0.62290669  1
  Zn  Zn87  1  0.48920464  -0.01687804  0.49728671  1
  Zn  Zn88  1  0.63028373  0.36949474  0.24236649  1
  Zn  Zn89  1  0.75109610  0.62391020  0.87486915  1
  Zn  Zn90  1  0.63235742  0.24507914  0.36859026  1
  Zn  Zn91  1  0.24918280  0.37484835  0.62528702  1
  Zn  Zn92  1  -0.00041312  0.87509165  0.87640797  1
  Zn  Zn93  1  -0.00098195  0.49915733  0.00337641  1
  Zn  Zn94  1  0.12782129  0.87928472  0.25417160  1
  Zn  Zn95  1  0.37134830  0.63005251  0.24302034  1
  Zn  Zn96  1  0.87540225  0.62612700  0.75206142  1
  Zn  Zn97  1  -0.00064968  0.12434911  0.13075099  1
  Zn  Zn98  1  0.26942271  0.88231035  0.60960544  1
  Zn  Zn99  1  0.62349696  0.49553258  0.12382578  1
  Zn  Zn100  1  0.75806102  0.25269966  0.49006828  1
  Zn  Zn101  1  0.25314876  0.37553959  0.12379341  1
  Zn  Zn102  1  -0.00139406  0.24552118  0.26537937  1
  Zn  Zn103  1  0.87557129  0.87549232  0.00127800  1
  Zn  Zn104  1  0.00033584  0.62731099  0.12766895  1
  Zn  Zn105  1  0.73766732  0.00373189  0.25781745  1
  Zn  Zn106  1  0.12527777  0.75657785  0.37563262  1
  Zn  Zn107  1  0.18627022  0.18896384  0.18723401  1
  Zn  Zn108  1  0.18690312  0.19256406  0.67823973  1
  Zn  Zn109  1  0.18607491  0.69072472  0.18640294  1
  Zn  Zn110  1  0.18908402  0.69082062  0.68366280  1
  Zn  Zn111  1  0.68810945  0.18723013  0.18821532  1
  Zn  Zn112  1  0.68905679  0.18972495  0.68700028  1
  Zn  Zn113  1  0.68355527  0.68620897  0.18599217  1
  Zn  Zn114  1  0.68598084  0.68519591  0.68729840  1
  Zn  Zn115  1  0.31645162  0.31540602  0.31038633  1
  Zn  Zn116  1  0.31304252  0.31183563  0.81470958  1
  Zn  Zn117  1  0.31651288  0.80772480  0.31114357  1
  Zn  Zn118  1  0.33715809  0.82947994  0.77253170  1
  Zn  Zn119  1  0.81686681  0.31050249  0.31555388  1
  Zn  Zn120  1  0.81528898  0.31275437  0.81206195  1
  Zn  Zn121  1  0.80869240  0.81843653  0.31291152  1
  Zn  Zn122  1  0.81119812  0.81339473  0.81216211  1
  Zn  Zn123  1  0.19054300  0.44242469  0.43934742  1
  Zn  Zn124  1  0.18493419  0.43777496  0.93658177  1
  Zn  Zn125  1  0.18964896  0.94008119  0.43150662  1
  Zn  Zn126  1  0.18773889  0.93931411  0.93837059  1
  Zn  Zn127  1  0.68810553  0.43820109  0.43204929  1
  Zn  Zn128  1  0.68696816  0.43521652  0.93964411  1
  Zn  Zn129  1  0.65424478  0.91894064  0.44956775  1
  Zn  Zn130  1  0.69041876  0.93700776  0.93928321  1
  Zn  Zn131  1  0.31528933  0.06419913  0.06594099  1
  Zn  Zn132  1  0.31094787  0.06392021  0.55688738  1
  Zn  Zn133  1  0.30999821  0.56175114  0.06044319  1
  Zn  Zn134  1  0.31661646  0.56851770  0.56455330  1
  Zn  Zn135  1  0.81191878  0.06607553  0.06409224  1
  Zn  Zn136  1  0.81075216  0.06564081  0.56245436  1
  Zn  Zn137  1  0.81463221  0.56562848  0.06290769  1
  Zn  Zn138  1  0.81447193  0.56431258  0.56076953  1
  Zn  Zn139  1  0.43746422  0.43599240  0.18545337  1
  Zn  Zn140  1  0.43970140  0.43915894  0.68537311  1
  Zn  Zn141  1  0.43646771  0.93781407  0.19031616  1
  Zn  Zn142  1  0.44101695  0.94128298  0.68510008  1
  Zn  Zn143  1  0.93715083  0.43839798  0.18942370  1
  Zn  Zn144  1  0.94322575  0.43525256  0.68524157  1
  Zn  Zn145  1  0.93263996  0.93960038  0.18959532  1
  Zn  Zn146  1  0.94003521  0.93881058  0.68618848  1
  Zn  Zn147  1  0.05086323  0.05787623  0.31178547  1
  Zn  Zn148  1  0.06344747  0.06323960  0.81276024  1
  Zn  Zn149  1  0.06238924  0.56558121  0.31201371  1
  Zn  Zn150  1  0.06049616  0.56200600  0.81288862  1
  Zn  Zn151  1  0.55305419  0.05474931  0.31370890  1
  Zn  Zn152  1  0.56297686  0.06308998  0.81090203  1
  Zn  Zn153  1  0.56360737  0.56633752  0.31190277  1
  Zn  Zn154  1  0.56139645  0.55975692  0.81496373  1
  Zn  Zn155  1  0.43809434  0.18593980  0.43593771  1
  Zn  Zn156  1  0.43567940  0.18724691  0.94130818  1
  Zn  Zn157  1  0.43653838  0.68548442  0.43725597  1
  Zn  Zn158  1  0.41815452  0.70452395  0.89167669  1
  Zn  Zn159  1  0.93139068  0.17546521  0.43558200  1
  Zn  Zn160  1  0.93613458  0.18747042  0.93956481  1
  Zn  Zn161  1  0.93671730  0.68899858  0.43708753  1
  Zn  Zn162  1  0.93897937  0.68648945  0.93806442  1
  Zn  Zn163  1  0.06081832  0.31318900  0.06680347  1
  Zn  Zn164  1  0.06012626  0.30860867  0.43847679  1
  Zn  Zn165  1  0.06318605  0.81496810  0.06387010  1
  Zn  Zn166  1  0.06837231  0.81292440  0.56436880  1
  Zn  Zn167  1  0.56297909  0.31401777  0.06627518  1
  Zn  Zn168  1  0.56286080  0.31462752  0.56261899  1
  Zn  Zn169  1  0.56243005  0.81103369  0.05936944  1
  Zn  Zn170  1  0.55398324  0.80846638  0.56641129  1
  O  O171  1  0.12323978  0.11770465  0.11823056  1
  O  O172  1  0.11839871  0.11818418  0.61873962  1
  O  O173  1  0.12486073  0.61510048  0.11960009  1
  O  O174  1  0.11924112  0.62080510  0.61868926  1
  O  O175  1  0.60859467  0.12685227  0.12733710  1
  O  O176  1  0.61804619  0.11982314  0.62394927  1
  O  O177  1  0.61523684  0.61837952  0.11565657  1
  O  O178  1  0.63436429  0.60981601  0.61653179  1
  O  O179  1  0.38622745  0.37847257  0.38479565  1
  O  O180  1  0.38071814  0.38593804  0.87329693  1
  O  O181  1  0.37702616  0.88324656  0.37023797  1
  O  O182  1  0.38326993  0.88465822  0.87652701  1
  O  O183  1  0.87702276  0.39326900  0.37211673  1
  O  O184  1  0.88329300  0.38053852  0.88178015  1
  O  O185  1  0.88372053  0.88295280  0.37359832  1
  O  O186  1  0.87414128  0.88920444  0.87654574  1
  O  O187  1  0.26680063  -0.00011448  0.37446257  1
  O  O188  1  0.25528290  0.01154050  0.87161224  1
  O  O189  1  0.25145929  0.50931094  0.36707871  1
  O  O190  1  0.25986160  0.50281603  0.87814736  1
  O  O191  1  0.75605081  -0.01907900  0.37789280  1
  O  O192  1  0.75602096  0.00861148  0.87396646  1
  O  O193  1  0.76146557  0.50774136  0.36969914  1
  O  O194  1  0.76062023  0.49663914  0.86808256  1
  O  O195  1  0.24262673  0.49774393  0.13187499  1
  O  O196  1  0.23796839  0.50013507  0.61792489  1
  O  O197  1  0.24144491  0.98918340  0.11554639  1
  O  O198  1  0.24356182  0.99943828  0.63226002  1
  O  O199  1  0.75298099  0.50738858  0.14127856  1
  O  O200  1  0.74884281  0.49366294  0.63108708  1
  O  O201  1  0.75202881  0.98577940  0.12388957  1
  O  O202  1  0.74624902  0.99374974  0.63082939  1
  O  O203  1  0.01536851  0.37717369  0.24983520  1
  O  O204  1  0.00648813  0.36679193  0.75707427  1
  O  O205  1  -0.00130311  0.86638715  0.25258791  1
  O  O206  1  0.01092063  0.87063821  0.75158572  1
  O  O207  1  0.49689954  0.36625698  0.25820184  1
  O  O208  1  0.50446859  0.37132434  0.75979387  1
  O  O209  1  0.50916561  0.86195281  0.24098583  1
  O  O210  1  0.51842111  0.88789361  0.75942157  1
  O  O211  1  0.49349636  0.12954987  0.24038977  1
  O  O212  1  0.49613060  0.13032676  0.74064926  1
  O  O213  1  0.50149115  0.63320956  0.23650481  1
  O  O214  1  0.50188452  0.61678467  0.73921879  1
  O  O215  1  0.98305405  0.12531613  0.24899877  1
  O  O216  1  0.99682411  0.13200899  0.74694766  1
  O  O217  1  0.99289845  0.63965341  0.25177233  1
  O  O218  1  0.99962028  0.63400355  0.74294908  1
  O  O219  1  0.36270702  0.24356146  0.00960100  1
  O  O220  1  0.36784162  0.25726881  0.49976208  1
  O  O221  1  0.36669691  0.76179819  -0.01518679  1
  O  O222  1  0.36497331  0.75030250  0.49832515  1
  O  O223  1  0.86848021  0.25606635  0.00762143  1
  O  O224  1  0.87408517  0.24099361  0.51655620  1
  O  O225  1  0.87034031  0.75143976  0.00752546  1
  O  O226  1  0.86619623  0.74564749  0.51396918  1
  O  O227  1  0.13763919  0.24249420  0.49597786  1
  O  O228  1  0.12930823  0.23724827  1.00753421  1
  O  O229  1  0.12580548  0.73751022  0.49743218  1
  O  O230  1  0.12900558  0.74314495  0.99582217  1
  O  O231  1  0.62405617  0.23798438  0.50187057  1
  O  O232  1  0.63515949  0.25563780  0.99303363  1
  O  O233  1  0.63498036  0.73356481  0.51141479  1
  O  O234  1  0.62983691  0.73797951  0.99409185  1
  O  O235  1  0.49291649  0.23970864  0.12879215  1
  O  O236  1  0.49816687  0.24443864  0.63169451  1
  O  O237  1  0.49929774  0.73535523  0.11950756  1
  O  O238  1  0.50151143  0.74773503  0.64198978  1
  O  O239  1  0.98731204  0.24701969  0.12734257  1
  O  O240  1  0.99166407  0.23826563  0.63707818  1
  O  O241  1  0.99097478  0.75216622  0.13205059  1
  O  O242  1  0.99311748  0.74745606  0.62917089  1
  O  O243  1  -0.01008228  0.24987258  0.37785177  1
  O  O244  1  -0.00770109  0.25772351  0.86586640  1
  O  O245  1  -0.00276054  0.76304169  0.36965927  1
  O  O246  1  0.00595421  0.75176205  0.86821139  1
  O  O247  1  0.50323238  0.25662603  0.36686012  1
  O  O248  1  0.50261599  0.25671176  0.87336923  1
  O  O249  1  0.50485382  0.73924426  0.36062886  1
  O  O250  1  0.51748215  0.76149184  0.88203057  1
  O  O251  1  0.24249018  0.13910390  0.50175062  1
  O  O252  1  0.24277509  0.13120497  0.99381223  1
  O  O253  1  0.24516645  0.63381620  0.49288859  1
  O  O254  1  0.23992330  0.62982417  0.99639884  1
  O  O255  1  0.73503357  0.13355820  0.50887538  1
  O  O256  1  0.75389059  0.13562886  0.99116412  1
  O  O257  1  0.74560506  0.63143788  0.49348338  1
  O  O258  1  0.74053971  0.62799469  0.99811028  1
  O  O259  1  0.24054490  0.35965344  0.00008151  1
  O  O260  1  0.25788138  0.36877392  0.49876940  1
  O  O261  1  0.25719151  0.86760074  0.00232223  1
  O  O262  1  0.24380192  0.85860262  0.49741822  1
  O  O263  1  0.76236993  0.36552255  -0.00653789  1
  O  O264  1  0.74632154  0.37671743  0.51248007  1
  O  O265  1  0.75156743  0.86865322  0.01002313  1
  O  O266  1  0.74042823  0.86128189  0.51061316  1
  O  O267  1  0.13202889  0.49483266  0.24591037  1
  O  O268  1  0.11793790  0.49247547  0.74153203  1
  O  O269  1  0.11886800  0.99923092  0.23600044  1
  O  O270  1  0.12877139  0.99552579  0.74251508  1
  O  O271  1  0.64222349  0.50330144  0.25240624  1
  O  O272  1  0.63276928  0.49487604  0.74362108  1
  O  O273  1  0.62021981  0.98178177  0.25314488  1
  O  O274  1  0.63278120  0.99791178  0.74056488  1
  O  O275  1  0.37737464  0.01065592  0.25776000  1
  O  O276  1  0.37076048  0.01088092  0.75902102  1
  O  O277  1  0.36186504  0.50155646  0.24912989  1
  O  O278  1  0.37352225  0.49623507  0.76048140  1
  O  O279  1  0.86532967  0.00369065  0.25718311  1
  O  O280  1  0.87163820  0.00632850  0.75829518  1
  O  O281  1  0.86868307  0.50785095  0.25812465  1
  O  O282  1  0.87027891  0.49847615  0.75738443  1
  O  O283  1  0.12522898  0.37956405  0.36512784  1
  O  O284  1  0.10955090  0.38205102  0.86915714  1
  O  O285  1  0.10950738  0.87796641  0.37333624  1
  O  O286  1  0.12207824  0.87013757  0.86977252  1
  O  O287  1  0.61302834  0.37624116  0.36956014  1
  O  O288  1  0.61649554  0.37105546  0.86922826  1
  O  O289  1  0.63433933  0.85981609  0.35234188  1
  O  O290  1  0.62559396  0.86905430  0.86947031  1
  O  O291  1  0.38061158  0.13286523  0.13500829  1
  O  O292  1  0.38386411  0.12472783  0.62977656  1
  O  O293  1  0.38696550  0.62233209  0.12307098  1
  O  O294  1  0.37683762  0.63418546  0.63288968  1
  O  O295  1  0.87629779  0.13226977  0.13265650  1
  O  O296  1  0.88256583  0.12788282  0.63199390  1
  O  O297  1  0.87625142  0.63827313  0.13131704  1
  O  O298  1  0.88113628  0.63325224  0.62839242  1
  O  O299  1  0.25603034  0.25033773  0.11667224  1
  O  O300  1  0.25308626  0.25662320  0.61149904  1
  O  O301  1  0.24546324  0.75665027  0.10890453  1
  O  O302  1  0.24608037  0.75177013  0.60685331  1
  O  O303  1  0.75896241  0.24603372  0.11516867  1
  O  O304  1  0.75934400  0.26095813  0.62804803  1
  O  O305  1  0.75534641  0.75519668  0.11933341  1
  O  O306  1  0.75739996  0.75577053  0.62205675  1
  O  O307  1  0.25458911  0.25602404  0.38777157  1
  O  O308  1  0.25417947  0.23841122  0.88269520  1
  O  O309  1  0.24740336  0.74415049  0.38280783  1
  O  O310  1  0.24073186  0.73745170  0.88688380  1
  O  O311  1  0.74381904  0.25828783  0.37883277  1
  O  O312  1  0.74744875  0.24417065  0.88228343  1
  O  O313  1  0.75817608  0.74284070  0.38672588  1
  O  O314  1  0.74193529  0.74899915  0.88241793  1
  O  O315  1  0.00693037  0.11659701  0.00069067  1
  O  O316  1  0.00865588  0.12767597  0.51227573  1
  O  O317  1  0.01322296  0.62398585  0.00250164  1
  O  O318  1  0.00741683  0.62143398  0.50478957  1
  O  O319  1  0.49445521  0.11820971  0.01422058  1
  O  O320  1  0.50827154  0.12688584  0.51227137  1
  O  O321  1  0.50412737  0.61681699  0.00806347  1
  O  O322  1  0.50968315  0.61549761  0.49345790  1
  O  O323  1  0.49534248  0.38152732  0.49299426  1
  O  O324  1  0.50335734  0.38259139  0.98801519  1
  O  O325  1  0.54927662  0.88814081  0.49309075  1
  O  O326  1  0.49320455  0.88286683  0.99662970  1
  O  O327  1  1.01027843  0.39164412  0.50223672  1
  O  O328  1  0.99130593  0.37436068  0.99289420  1
  O  O329  1  0.99941717  0.87136895  0.49146313  1
  O  O330  1  0.99818966  0.88762911  0.99802702  1
  O  O331  1  0.49979266  0.49474387  0.38186245  1
  O  O332  1  0.48745268  0.49389833  0.88002704  1
  O  O333  1  0.47574780  1.01175037  0.38297901  1
  O  O334  1  0.49563808  1.00034084  0.88323442  1
  O  O335  1  0.98710736  0.51016702  0.38164638  1
  O  O336  1  0.98841950  0.49270218  0.87707625  1
  O  O337  1  0.98672404  0.98533265  0.37598567  1
  O  O338  1  0.99181205  1.00132137  0.88257275  1
  O  O339  1  0.00560566  0.00030639  0.11715365  1
  O  O340  1  0.01024792  0.01091728  0.63143697  1
  O  O341  1  0.00776470  0.50536941  0.12519665  1
  O  O342  1  0.00566272  0.50727941  0.61713800  1
  O  O343  1  0.49390569  0.01280218  0.11884276  1
  O  O344  1  0.50888020  0.00839466  0.62139716  1
  O  O345  1  0.49870719  0.50803772  0.11745965  1
  O  O346  1  0.51187208  0.49218191  0.61176536  1
  O  O347  1  0.23998097  0.38292923  0.24989720  1
  O  O348  1  0.23432654  0.36784809  0.75246786  1
  O  O349  1  0.24979153  0.86460349  0.23383105  1
  O  O350  1  0.23532792  0.88555691  0.76049256  1
  O  O351  1  0.75276564  0.39199549  0.25368498  1
  O  O352  1  0.74663261  0.38447356  0.74497796  1
  O  O353  1  0.73752608  0.87192234  0.23560882  1
  O  O354  1  0.74296279  0.88334603  0.74581863  1
  O  O355  1  0.26332765  0.12746409  0.24507367  1
  O  O356  1  0.25184575  0.12426373  0.75633580  1
  O  O357  1  0.24903967  0.62034315  0.25587967  1
  O  O358  1  0.23954472  0.62699410  0.76371846  1
  O  O359  1  0.75940796  0.11998200  0.24574648  1
  O  O360  1  0.75676831  0.12164216  0.75756944  1
  O  O361  1  0.75430772  0.62185342  0.25746635  1
  O  O362  1  0.75149092  0.61024977  0.75176501  1
  O  O363  1  0.37340814  0.12883006  0.36024623  1
  O  O364  1  0.36812005  0.12103425  0.87030370  1
  O  O365  1  0.36272025  0.62305869  0.37082017  1
  O  O366  1  0.36233038  0.60561677  0.88217394  1
  O  O367  1  0.87051392  0.10256776  0.37079298  1
  O  O368  1  0.86700706  0.11681119  0.87202297  1
  O  O369  1  0.86530631  0.62109898  0.37106012  1
  O  O370  1  0.87326128  0.61401498  0.87429919  1
  O  O371  1  0.12646399  0.38645697  0.13249842  1
  O  O372  1  0.12563194  0.38853464  0.63718641  1
  O  O373  1  0.13491483  0.88356693  0.12352827  1
  O  O374  1  0.12827882  0.88387652  0.63330886  1
  O  O375  1  0.62203515  0.38270781  0.12956180  1
  O  O376  1  0.63341171  0.38392227  0.63032959  1
  O  O377  1  0.63601720  0.87116787  0.12589993  1
  O  O378  1  0.63634476  0.88254276  0.63502591  1
  O  O379  1  0.12182727  0.26570073  0.24524705  1
  O  O380  1  0.11335285  0.25645294  0.74542441  1
  O  O381  1  0.11476770  0.75433931  0.25301833  1
  O  O382  1  0.12159646  0.75941521  0.75358426  1
  O  O383  1  0.61145470  0.24917768  0.24934738  1
  O  O384  1  0.61970638  0.25619958  0.75708524  1
  O  O385  1  0.60900319  0.75707777  0.23670331  1
  O  O386  1  0.63477405  0.75960280  0.75913306  1
  O  O387  1  0.38384847  0.24215013  0.24543092  1
  O  O388  1  0.38189746  0.24478597  0.74819384  1
  O  O389  1  0.39344613  0.74776709  0.24813183  1
  O  O390  1  0.39004360  0.72966646  0.77682259  1
  O  O391  1  0.87455004  0.24315948  0.24263616  1
  O  O392  1  0.88225441  0.24456777  0.74398683  1
  O  O393  1  0.87812310  0.74858624  0.24356353  1
  O  O394  1  0.87930782  0.75015353  0.74087134  1
  O  O395  1  0.38378370  0.49573407  0.49892426  1
  O  O396  1  0.38251338  0.49670211  0.99526135  1
  O  O397  1  0.37255156  0.99297415  0.49274619  1
  O  O398  1  0.38002445  0.99377768  0.99269969  1
  O  O399  1  0.88312764  0.50513466  0.48832654  1
  O  O400  1  0.87503357  0.49236666  0.99478401  1
  O  O401  1  0.86745047  0.99789084  0.49057772  1
  O  O402  1  0.88295212  1.00136982  0.99428737  1
  O  O403  1  0.11841600  0.00872321  0.00666419  1
  O  O404  1  0.13416552  0.00642548  0.51212811  1
  O  O405  1  0.12368346  0.50658169  0.00902014  1
  O  O406  1  0.12033116  0.51220020  0.50548687  1
  O  O407  1  0.61179340  -0.00266598  -0.00373266  1
  O  O408  1  0.63420485  0.01696200  0.51555501  1
  O  O409  1  0.61585835  0.51016125  -0.00637052  1
  O  O410  1  0.62135565  0.50694476  0.50516038  1
  O  O411  1  0.37305835  0.35682099  0.13084093  1
  O  O412  1  0.37475089  0.37634403  0.61163246  1
  O  O413  1  0.36854052  0.88101397  0.11059472  1
  O  O414  1  0.36502602  0.86488113  0.66543491  1
  O  O415  1  0.87922082  0.36847763  0.11609013  1
  O  O416  1  0.86831211  0.36611416  0.63083797  1
  O  O417  1  0.86338216  0.86584776  0.12517783  1
  O  O418  1  0.86310833  0.87026827  0.63100371  1
  O  O419  1  0.11740041  0.11214495  0.38752910  1
  O  O420  1  0.13428916  0.12006412  0.88512317  1
  O  O421  1  0.13497719  0.62643536  0.38202170  1
  O  O422  1  0.12900123  0.62629506  0.88391711  1
  O  O423  1  0.61818803  0.12168005  0.39075034  1
  O  O424  1  0.63707733  0.13132396  0.86931703  1
  O  O425  1  0.63944959  0.61986208  0.38366038  1
  O  O426  1  0.62589683  0.63144609  0.88045740  1
