# generated using pymatgen
data_V85Zn86O256
_symmetry_space_group_name_H-M   'P 1'
_cell_length_a   16.96560283
_cell_length_b   16.94636368
_cell_length_c   16.95632561
_cell_angle_alpha   89.95461127
_cell_angle_beta   90.04822612
_cell_angle_gamma   90.01759944
_symmetry_Int_Tables_number   1
_chemical_formula_structural   V85Zn86O256
_chemical_formula_sum   'V85 Zn86 O256'
_cell_volume   4875.02958165
_cell_formula_units_Z   1
loop_
 _symmetry_equiv_pos_site_id
 _symmetry_equiv_pos_as_xyz
  1  'x, y, z'
loop_
 _atom_site_type_symbol
 _atom_site_label
 _atom_site_symmetry_multiplicity
 _atom_site_fract_x
 _atom_site_fract_y
 _atom_site_fract_z
 _atom_site_occupancy
  V  V0  1  0.75037416  0.62743670  0.87663212  1
  V  V1  1  0.74714757  0.24249927  0.00113665  1
  V  V2  1  0.11156787  0.36732068  0.25114646  1
  V  V3  1  0.38815293  0.87827419  -0.00453475  1
  V  V4  1  0.11885408  0.12147167  0.49875437  1
  V  V5  1  0.49747872  0.25104609  0.74164457  1
  V  V6  1  0.50041958  0.75390434  0.25003340  1
  V  V7  1  0.24837854  0.74909345  0.49745406  1
  V  V8  1  0.24495053  0.62451943  0.37090827  1
  V  V9  1  0.25192478  0.12060303  0.37567913  1
  V  V10  1  0.75157156  0.37333218  0.61456544  1
  V  V11  1  0.37381489  0.49844974  0.37483938  1
  V  V12  1  0.50496387  0.37729363  0.87278053  1
  V  V13  1  0.37363322  0.74875365  0.62523444  1
  V  V14  1  0.25125211  0.37128436  0.12676243  1
  V  V15  1  0.75431847  0.12760316  0.38515354  1
  V  V16  1  0.32235292  0.45506838  0.82440278  1
  V  V17  1  0.75014251  0.61822507  0.37124397  1
  V  V18  1  0.63255447  0.48472565  0.13671464  1
  V  V19  1  0.88432830  0.12196648  0.25978456  1
  V  V20  1  0.38894129  -0.00336761  0.87500582  1
  V  V21  1  0.87220392  0.50012246  0.87856290  1
  V  V22  1  -0.00717699  0.48922307  0.49206432  1
  V  V23  1  0.88107973  0.88602368  0.49569408  1
  V  V24  1  0.11990999  0.75014438  0.87247977  1
  V  V25  1  0.37368070  0.63039218  0.76117685  1
  V  V26  1  0.87753512  0.88590002  0.00261002  1
  V  V27  1  0.37302908  0.12448878  0.74241136  1
  V  V28  1  -0.00169457  0.11756678  0.11527006  1
  V  V29  1  0.88077747  0.75213636  0.62605542  1
  V  V30  1  0.24769335  0.76088120  0.00426063  1
  V  V31  1  0.37451803  0.62693717  0.24698861  1
  V  V32  1  0.62647267  0.62415784  0.00361772  1
  V  V33  1  0.62109272  0.87838329  0.75283922  1
  V  V34  1  0.37341422  0.88160933  0.49885377  1
  V  V35  1  0.12444483  -0.00491852  0.11813022  1
  V  V36  1  0.37148605  0.76208371  0.12608713  1
  V  V37  1  0.87242882  0.25375895  0.62683403  1
  V  V38  1  0.49926570  0.50263939  0.49855261  1
  V  V39  1  0.12155777  -0.00216636  0.61916540  1
  V  V40  1  0.88295979  0.24664524  0.12528979  1
  V  V41  1  0.87042515  0.61732717  0.25158038  1
  V  V42  1  -0.00216019  0.89023758  0.37673258  1
  V  V43  1  0.37623198  0.11847298  0.25113921  1
  V  V44  1  0.24353218  0.24420992  0.00319727  1
  V  V45  1  0.87765679  0.63213788  0.75192864  1
  V  V46  1  0.62443607  0.00181902  0.62265286  1
  V  V47  1  0.74410293  0.88525175  0.12643690  1
  V  V48  1  0.61986967  0.75784686  0.87734624  1
  V  V49  1  -0.00127222  0.62595014  0.12785401  1
  V  V50  1  0.49713068  0.50029366  -0.00136996  1
  V  V51  1  0.25193587  -0.00486747  0.24817308  1
  V  V52  1  0.56704228  0.07127292  0.06113038  1
  V  V53  1  0.49696907  0.88045065  0.37353045  1
  V  V54  1  0.62593295  0.75413244  0.37259378  1
  V  V55  1  -0.00803579  0.11950133  0.63376980  1
  V  V56  1  0.75371259  0.75219067  0.49761250  1
  V  V57  1  0.12639940  0.49779800  0.12443843  1
  V  V58  1  0.24994535  0.49566445  0.25041201  1
  V  V59  1  0.24766748  -0.00177966  0.75165668  1
  V  V60  1  0.50073496  0.36771293  0.37280669  1
  V  V61  1  0.25290667  0.25203676  0.51046054  1
  V  V62  1  0.87897250  0.00731486  0.86814905  1
  V  V63  1  0.74939915  0.00581607  0.25542452  1
  V  V64  1  0.75106166  0.87518140  0.62342409  1
  V  V65  1  -0.00044743  0.87885831  0.87863512  1
  V  V66  1  -0.00063560  0.37256406  0.87183069  1
  V  V67  1  0.50288973  0.62906622  0.63029901  1
  V  V68  1  0.12682270  0.87311558  0.24760005  1
  V  V69  1  0.11848130  0.86986724  0.74720014  1
  V  V70  1  0.62965683  0.13906426  0.50062142  1
  V  V71  1  0.86893603  0.37380689  0.00560086  1
  V  V72  1  -0.00239268  0.74842480  0.25730513  1
  V  V73  1  0.62517830  0.63101758  0.50038170  1
  V  V74  1  0.49985027  0.00293804  0.49471706  1
  V  V75  1  0.50090232  0.62482702  0.12677208  1
  V  V76  1  -0.00148908  0.61919302  0.62290017  1
  V  V77  1  0.75201727  0.75527775  0.00218282  1
  V  V78  1  0.37986147  0.24066201  0.12592610  1
  V  V79  1  0.14779667  0.59855623  0.53073863  1
  V  V80  1  0.12489144  0.62802174  0.00184926  1
  V  V81  1  0.11661467  0.25482522  0.37199264  1
  V  V82  1  0.37307159  0.37578625  0.00344462  1
  V  V83  1  0.74804506  0.12713270  0.86399709  1
  V  V84  1  0.74885768  0.49737541  0.74990764  1
  Zn  Zn85  1  0.62185848  0.88657633  0.24705329  1
  Zn  Zn86  1  0.62808132  0.50211798  0.62647272  1
  Zn  Zn87  1  0.82120020  0.31204479  0.44951700  1
  Zn  Zn88  1  0.49997917  0.25310604  0.24446509  1
  Zn  Zn89  1  0.75526563  0.00396880  0.74507250  1
  Zn  Zn90  1  0.24663902  0.12091348  0.87783262  1
  Zn  Zn91  1  0.37479491  0.36319063  0.51565720  1
  Zn  Zn92  1  0.65628271  0.28072873  0.33199548  1
  Zn  Zn93  1  -0.00400116  0.50053806  0.00216928  1
  Zn  Zn94  1  0.49716277  0.75688927  0.75696886  1
  Zn  Zn95  1  0.13308083  0.39036801  0.73171014  1
  Zn  Zn96  1  0.24799910  0.87231730  0.62464845  1
  Zn  Zn97  1  0.12406956  0.24644775  0.87027770  1
  Zn  Zn98  1  0.12114623  0.11696170  -0.00410677  1
  Zn  Zn99  1  0.62949952  0.37005188  0.74963227  1
  Zn  Zn100  1  0.00608801  0.25115268  0.74730671  1
  Zn  Zn101  1  0.61757939  0.24185071  0.87778793  1
  Zn  Zn102  1  0.87355182  0.75293970  0.12693031  1
  Zn  Zn103  1  0.24969605  0.62637381  0.87391945  1
  Zn  Zn104  1  0.12203379  0.74730233  0.37956347  1
  Zn  Zn105  1  0.49625324  0.13154361  0.62055865  1
  Zn  Zn106  1  0.87222059  0.48277233  0.37237894  1
  Zn  Zn107  1  0.18553299  0.18271829  0.18762199  1
  Zn  Zn108  1  0.17954249  0.18978471  0.69053547  1
  Zn  Zn109  1  0.18731012  0.69045912  0.18750436  1
  Zn  Zn110  1  0.19229530  0.68469485  0.69210014  1
  Zn  Zn111  1  0.68630849  0.20263544  0.18822082  1
  Zn  Zn112  1  0.68563860  0.19087149  0.68758583  1
  Zn  Zn113  1  0.68670392  0.68975104  0.18722572  1
  Zn  Zn114  1  0.69047629  0.69127385  0.68990140  1
  Zn  Zn115  1  0.31028851  0.30820807  0.31736119  1
  Zn  Zn116  1  0.30444642  0.29088800  0.80663818  1
  Zn  Zn117  1  0.31318048  0.81582141  0.31402655  1
  Zn  Zn118  1  0.30777098  0.81395872  0.81487071  1
  Zn  Zn119  1  0.81125794  0.32218420  0.27758409  1
  Zn  Zn120  1  0.81845633  0.30946620  0.80797486  1
  Zn  Zn121  1  0.81489968  0.81347531  0.31167803  1
  Zn  Zn122  1  0.80976447  0.81734072  0.81245419  1
  Zn  Zn123  1  0.18727365  0.43182852  0.55113471  1
  Zn  Zn124  1  0.15972651  0.46330363  0.90394642  1
  Zn  Zn125  1  0.18474001  0.93609808  0.43271497  1
  Zn  Zn126  1  0.19153785  0.93521085  0.93620364  1
  Zn  Zn127  1  0.68146061  0.44222852  0.43627493  1
  Zn  Zn128  1  0.68562231  0.43507686  0.94335957  1
  Zn  Zn129  1  0.68923369  0.94393122  0.43429321  1
  Zn  Zn130  1  0.68662054  0.94626753  0.93740814  1
  Zn  Zn131  1  0.31209402  0.05757174  0.06378312  1
  Zn  Zn132  1  0.30735788  0.06085177  0.56331341  1
  Zn  Zn133  1  0.31140345  0.56512901  0.06013176  1
  Zn  Zn134  1  0.32959219  0.53454061  0.58689315  1
  Zn  Zn135  1  0.80578565  0.06550094  0.06168247  1
  Zn  Zn136  1  0.81428452  0.06178861  0.56356880  1
  Zn  Zn137  1  0.80951111  0.56210501  0.06681983  1
  Zn  Zn138  1  0.81389486  0.56096019  0.56070349  1
  Zn  Zn139  1  0.44184519  0.43668757  0.18771237  1
  Zn  Zn140  1  0.44165888  0.43582502  0.68215991  1
  Zn  Zn141  1  0.44227239  0.94678536  0.18264392  1
  Zn  Zn142  1  0.43855932  0.93855233  0.68410889  1
  Zn  Zn143  1  0.93447747  0.43815496  0.18444086  1
  Zn  Zn144  1  0.93388902  0.43881625  0.68561724  1
  Zn  Zn145  1  0.93626009  0.94012179  0.18932086  1
  Zn  Zn146  1  0.94064310  0.93552812  0.68851859  1
  Zn  Zn147  1  0.06590160  0.06451120  0.30740615  1
  Zn  Zn148  1  0.06506846  0.05938128  0.81372341  1
  Zn  Zn149  1  0.06285255  0.55469436  0.31505757  1
  Zn  Zn150  1  0.05674132  0.56164046  0.80877890  1
  Zn  Zn151  1  0.58120210  0.09029382  0.29724971  1
  Zn  Zn152  1  0.56418562  0.06613329  0.81014934  1
  Zn  Zn153  1  0.56368756  0.56217901  0.31162042  1
  Zn  Zn154  1  0.56322872  0.56468433  0.81584137  1
  Zn  Zn155  1  0.43174354  0.18254999  0.43860613  1
  Zn  Zn156  1  0.43465719  0.18466236  0.93512899  1
  Zn  Zn157  1  0.43467907  0.68840732  0.43663586  1
  Zn  Zn158  1  0.44020902  0.69223726  0.94282001  1
  Zn  Zn159  1  0.94265679  0.18240442  0.44312891  1
  Zn  Zn160  1  0.93653768  0.18699735  0.93587050  1
  Zn  Zn161  1  0.93915101  0.68184274  0.44079889  1
  Zn  Zn162  1  0.93811837  0.69347493  0.93910524  1
  Zn  Zn163  1  0.05865426  0.31301054  0.06022801  1
  Zn  Zn164  1  0.05998852  0.30695841  0.56146769  1
  Zn  Zn165  1  0.05819611  0.81370962  0.06516175  1
  Zn  Zn166  1  0.06160675  0.80616253  0.55988207  1
  Zn  Zn167  1  0.56230090  0.30695249  0.05901890  1
  Zn  Zn168  1  0.56374058  0.31962419  0.56368465  1
  Zn  Zn169  1  0.56419285  0.81574382  0.06452290  1
  Zn  Zn170  1  0.56198298  0.81455853  0.56290631  1
  O  O171  1  0.11512221  0.11379319  0.12552489  1
  O  O172  1  0.11809982  0.11576311  0.61882661  1
  O  O173  1  0.11852270  0.62090272  0.12084921  1
  O  O174  1  0.10910042  0.63647029  0.62843603  1
  O  O175  1  0.62912812  0.12925193  0.11810620  1
  O  O176  1  0.62317342  0.11767038  0.61840096  1
  O  O177  1  0.61722943  0.62512905  0.11880619  1
  O  O178  1  0.61932697  0.62869917  0.62081029  1
  O  O179  1  0.38020291  0.38619454  0.38094655  1
  O  O180  1  0.37876758  0.38246889  0.87782860  1
  O  O181  1  0.38838418  0.87062745  0.38426875  1
  O  O182  1  0.37287358  0.88655924  0.87960149  1
  O  O183  1  0.85892992  0.37106902  0.36233248  1
  O  O184  1  0.88186104  0.37946257  0.88153172  1
  O  O185  1  0.88603603  0.86911291  0.38383879  1
  O  O186  1  0.88213074  0.87890870  0.88166844  1
  O  O187  1  0.24060375  0.00911993  0.36398025  1
  O  O188  1  0.25298724  -0.00154552  0.86121649  1
  O  O189  1  0.26133048  0.50952483  0.36630212  1
  O  O190  1  0.26889718  0.50674840  0.89545521  1
  O  O191  1  0.75659615  0.00991982  0.36838193  1
  O  O192  1  0.75832428  0.01258516  0.87097490  1
  O  O193  1  0.74878390  0.51507402  0.37789102  1
  O  O194  1  0.75384237  0.50633262  0.87152017  1
  O  O195  1  0.24591113  0.49208012  0.12944843  1
  O  O196  1  0.21621901  0.53699106  0.59300992  1
  O  O197  1  0.23771267  1.00209737  0.13616822  1
  O  O198  1  0.24160492  0.99459784  0.63562706  1
  O  O199  1  0.73167207  0.50077174  0.12035601  1
  O  O200  1  0.75138976  0.49452503  0.63310187  1
  O  O201  1  0.75731244  0.99318072  0.13564805  1
  O  O202  1  0.74242705  0.99342716  0.62584922  1
  O  O203  1  0.01296705  0.37721962  0.24238796  1
  O  O204  1  -0.00232287  0.38200409  0.76600737  1
  O  O205  1  0.00199663  0.86614527  0.25774183  1
  O  O206  1  0.01202368  0.87478854  0.75834485  1
  O  O207  1  0.49400099  0.37178537  0.26798715  1
  O  O208  1  0.49943433  0.37148547  0.75636153  1
  O  O209  1  0.50021043  0.87531771  0.25796664  1
  O  O210  1  0.51621865  0.87337870  0.74198127  1
  O  O211  1  0.47494379  0.10467854  0.25971753  1
  O  O212  1  0.49265414  0.13363400  0.74716756  1
  O  O213  1  0.49353419  0.63301387  0.24660885  1
  O  O214  1  0.49714852  0.63082660  0.74447375  1
  O  O215  1  0.98826647  0.11967996  0.24106993  1
  O  O216  1  1.00843787  0.12525057  0.73562556  1
  O  O217  1  0.99543622  0.62936134  0.24555901  1
  O  O218  1  0.98456619  0.62050210  0.74354303  1
  O  O219  1  0.36480539  0.25384142  0.00733017  1
  O  O220  1  0.35908951  0.24573622  0.50186891  1
  O  O221  1  0.36773549  0.75722004  0.00606221  1
  O  O222  1  0.36542616  0.75687694  0.50341748  1
  O  O223  1  0.86911350  0.25619455  0.00267599  1
  O  O224  1  0.88032922  0.24328750  0.51713461  1
  O  O225  1  0.86612450  0.76137874  0.00118978  1
  O  O226  1  0.86951928  0.75347138  0.50778406  1
  O  O227  1  0.13231316  0.23981661  0.48968675  1
  O  O228  1  0.13758997  0.24634304  1.00819591  1
  O  O229  1  0.13924623  0.73972624  0.50130458  1
  O  O230  1  0.13039815  0.74789264  0.99856954  1
  O  O231  1  0.61918966  0.23796261  0.50493609  1
  O  O232  1  0.64354519  0.25774725  0.99403844  1
  O  O233  1  0.63148436  0.74902947  0.49315592  1
  O  O234  1  0.63292924  0.74768824  0.99572337  1
  O  O235  1  0.48398827  0.25612453  0.12546423  1
  O  O236  1  0.49912586  0.25489417  0.63692201  1
  O  O237  1  0.49352758  0.74597251  0.13113760  1
  O  O238  1  0.49418491  0.74056316  0.62435937  1
  O  O239  1  0.98943719  0.23894848  0.11830355  1
  O  O240  1  0.99608898  0.23432951  0.62520752  1
  O  O241  1  0.99933576  0.73962314  0.13652099  1
  O  O242  1  0.98569303  0.74099399  0.62094823  1
  O  O243  1  0.01799665  0.24185764  0.37922405  1
  O  O244  1  -0.00442562  0.26089900  0.87053864  1
  O  O245  1  0.00228938  0.74732024  0.36541325  1
  O  O246  1  0.01187704  0.76118197  0.87988301  1
  O  O247  1  0.48705967  0.26706141  0.38194576  1
  O  O248  1  0.49640207  0.26121566  0.86652686  1
  O  O249  1  0.50517801  0.75801022  0.37001543  1
  O  O250  1  0.51634131  0.74937165  0.87700069  1
  O  O251  1  0.24009331  0.12604547  0.49350158  1
  O  O252  1  0.24781510  0.13116881  1.00056974  1
  O  O253  1  0.24790307  0.63398701  0.48554853  1
  O  O254  1  0.23828683  0.63605299  1.00050818  1
  O  O255  1  0.74164876  0.11826176  0.49806958  1
  O  O256  1  0.75770541  0.13699162  0.98379659  1
  O  O257  1  0.74463294  0.63257304  0.49341888  1
  O  O258  1  0.74742992  0.63557771  0.99622555  1
  O  O259  1  0.25679334  0.36726033  0.01686064  1
  O  O260  1  0.25167932  0.35538576  0.49340487  1
  O  O261  1  0.25952625  0.86428787  -0.00162662  1
  O  O262  1  0.25688994  0.86813411  0.49732101  1
  O  O263  1  0.76211699  0.36102490  -0.00990865  1
  O  O264  1  0.74614774  0.38081930  0.51022988  1
  O  O265  1  0.75556856  0.87255150  0.00677926  1
  O  O266  1  0.75811393  0.87040715  0.50335163  1
  O  O267  1  0.13170628  0.49010078  0.24429541  1
  O  O268  1  0.13669504  0.48750767  0.79180734  1
  O  O269  1  0.13126638  0.99102382  0.24264531  1
  O  O270  1  0.13062129  0.99132291  0.74077026  1
  O  O271  1  0.62062134  0.50130337  0.23607226  1
  O  O272  1  0.63993481  0.50465659  0.75105493  1
  O  O273  1  0.64325772  1.00263464  0.25458166  1
  O  O274  1  0.62635102  0.99604951  0.73829527  1
  O  O275  1  0.35774827  -0.00131113  0.24310515  1
  O  O276  1  0.36791833  -0.00108918  0.75766194  1
  O  O277  1  0.37261012  0.50480857  0.25776262  1
  O  O278  1  0.38324591  0.50980194  0.76153127  1
  O  O279  1  0.86835596  0.01540610  0.24715749  1
  O  O280  1  0.87227089  -0.01105211  0.76379182  1
  O  O281  1  0.87755045  0.51335553  0.25083341  1
  O  O282  1  0.86382513  0.50884296  0.75693048  1
  O  O283  1  0.12816147  0.35719823  0.36426914  1
  O  O284  1  0.10071672  0.36521187  0.89817648  1
  O  O285  1  0.11531985  0.86938792  0.36588098  1
  O  O286  1  0.11764462  0.87119656  0.86991603  1
  O  O287  1  0.60720695  0.37272183  0.38317695  1
  O  O288  1  0.61324627  0.37471943  0.87266551  1
  O  O289  1  0.61409849  0.87103550  0.37549183  1
  O  O290  1  0.63470376  0.87009874  0.86579269  1
  O  O291  1  0.36510017  0.13179538  0.13555124  1
  O  O292  1  0.37835512  0.11173865  0.63849082  1
  O  O293  1  0.38148882  0.63496289  0.12843867  1
  O  O294  1  0.38459616  0.62748194  0.63822354  1
  O  O295  1  0.88282251  0.12603352  0.12860219  1
  O  O296  1  0.88852866  0.12498936  0.62454367  1
  O  O297  1  0.88244897  0.62755682  0.13132813  1
  O  O298  1  0.87786052  0.63259742  0.63234884  1
  O  O299  1  0.25751380  0.25416750  0.12382228  1
  O  O300  1  0.24449660  0.23955449  0.60852093  1
  O  O301  1  0.26034148  0.74680270  0.11779737  1
  O  O302  1  0.25675244  0.74985639  0.61579228  1
  O  O303  1  0.76640853  0.23505903  0.10354873  1
  O  O304  1  0.75768592  0.26159538  0.63072105  1
  O  O305  1  0.75166889  0.75682231  0.11415956  1
  O  O306  1  0.75913465  0.75541687  0.61786186  1
  O  O307  1  0.24159105  0.23690891  0.38171039  1
  O  O308  1  0.24646769  0.24511056  0.88940717  1
  O  O309  1  0.24986780  0.74319127  0.38039498  1
  O  O310  1  0.23679880  0.74992009  0.88538989  1
  O  O311  1  0.75086542  0.23386288  0.38800717  1
  O  O312  1  0.75407325  0.23885968  0.87758575  1
  O  O313  1  0.74361640  0.74650597  0.37970452  1
  O  O314  1  0.74389022  0.74912030  0.88644891  1
  O  O315  1  0.00021999  0.12347605  0.01075026  1
  O  O316  1  0.01420047  0.12062542  0.51085677  1
  O  O317  1  0.00863508  0.63026991  0.01008107  1
  O  O318  1  0.01128755  0.61995162  0.51009334  1
  O  O319  1  0.51037947  0.13174559  -0.00122049  1
  O  O320  1  0.50682458  0.11833273  0.50053999  1
  O  O321  1  0.50464247  0.61786328  0.00575960  1
  O  O322  1  0.50596808  0.62496814  0.50638750  1
  O  O323  1  0.49359462  0.38705409  0.49608599  1
  O  O324  1  0.49304727  0.37883129  0.99077521  1
  O  O325  1  0.49202775  0.87995835  0.49471550  1
  O  O326  1  0.48747752  0.86880423  0.99954810  1
  O  O327  1  1.00076018  0.39104165  0.50277021  1
  O  O328  1  0.98400949  0.37646290  0.99522772  1
  O  O329  1  0.99382043  0.86643827  0.48814521  1
  O  O330  1  0.98924061  0.87113526  0.99268085  1
  O  O331  1  0.49504929  0.49379931  0.38002959  1
  O  O332  1  0.50393547  0.49302800  0.88620695  1
  O  O333  1  0.50605726  0.99232548  0.39025765  1
  O  O334  1  0.48713633  1.00015079  0.86734622  1
  O  O335  1  0.99208003  0.50388986  0.38669205  1
  O  O336  1  0.98823688  0.49201690  0.88209351  1
  O  O337  1  1.00505708  0.98921121  0.37065105  1
  O  O338  1  0.99380994  0.98811522  0.87285391  1
  O  O339  1  0.00984119  0.00560010  0.12941570  1
  O  O340  1  0.00749245  0.00891941  0.62854012  1
  O  O341  1  0.00559669  0.51217698  0.12353252  1
  O  O342  1  -0.00921621  0.51232351  0.61531500  1
  O  O343  1  0.50593492  0.01189131  0.11914411  1
  O  O344  1  0.50827583  0.00072819  0.61365539  1
  O  O345  1  0.50698091  0.50725547  0.11990141  1
  O  O346  1  0.50537388  0.51507090  0.61750543  1
  O  O347  1  0.24650434  0.37618453  0.24137985  1
  O  O348  1  0.26459175  0.39200845  0.76879713  1
  O  O349  1  0.23790172  0.88050291  0.25713634  1
  O  O350  1  0.23721550  0.88001149  0.74801887  1
  O  O351  1  0.71257379  0.30658510  0.23567605  1
  O  O352  1  0.75054758  0.38447881  0.74589594  1
  O  O353  1  0.75333361  0.88498455  0.24339105  1
  O  O354  1  0.73938471  0.87686363  0.74026444  1
  O  O355  1  0.25319691  0.11552302  0.25772916  1
  O  O356  1  0.25515261  0.11632539  0.75027855  1
  O  O357  1  0.25613788  0.61955431  0.25158084  1
  O  O358  1  0.26411436  0.62459947  0.75634115  1
  O  O359  1  0.76211822  0.12045541  0.26113244  1
  O  O360  1  0.75261255  0.12549152  0.75972800  1
  O  O361  1  0.75900761  0.63454031  0.25856021  1
  O  O362  1  0.75936774  0.62153288  0.75644045  1
  O  O363  1  0.35919790  0.12436370  0.36982467  1
  O  O364  1  0.37147930  0.11090108  0.86479947  1
  O  O365  1  0.36740068  0.62351274  0.36460942  1
  O  O366  1  0.37737317  0.63674195  0.86511740  1
  O  O367  1  0.87576753  0.12834617  0.36519554  1
  O  O368  1  0.86907097  0.11512408  0.87556372  1
  O  O369  1  0.86466878  0.62810757  0.36720121  1
  O  O370  1  0.87125268  0.62389955  0.87030291  1
  O  O371  1  0.13186844  0.37802486  0.12937392  1
  O  O372  1  0.12583403  0.37300072  0.62259946  1
  O  O373  1  0.11694027  0.87959323  0.13917234  1
  O  O374  1  0.12188503  0.87832106  0.63060908  1
  O  O375  1  0.61595757  0.38710615  0.12068463  1
  O  O376  1  0.63468552  0.38165350  0.62970280  1
  O  O377  1  0.64009968  0.87095669  0.12896243  1
  O  O378  1  0.63127739  0.88178985  0.62832762  1
  O  O379  1  0.12979120  0.25321103  0.26097076  1
  O  O380  1  0.12548789  0.26650255  0.75459291  1
  O  O381  1  0.11661904  0.75669975  0.25098504  1
  O  O382  1  0.13065195  0.75723452  0.76128138  1
  O  O383  1  0.59794620  0.20289922  0.26852386  1
  O  O384  1  0.61312127  0.25096914  0.75605890  1
  O  O385  1  0.61804377  0.75550701  0.25732221  1
  O  O386  1  0.62670641  0.75891950  0.76057984  1
  O  O387  1  0.37593350  0.23780756  0.24439114  1
  O  O388  1  0.38142581  0.23601927  0.75041636  1
  O  O389  1  0.37923319  0.74951384  0.24220322  1
  O  O390  1  0.37681182  0.74815146  0.74473005  1
  O  O391  1  0.87564817  0.23137889  0.23556520  1
  O  O392  1  0.88546054  0.25201636  0.73362331  1
  O  O393  1  0.88379429  0.74128389  0.24768649  1
  O  O394  1  0.86727909  0.74330296  0.74128685  1
  O  O395  1  0.38982602  0.51969700  0.48314773  1
  O  O396  1  0.38958653  0.49324094  1.01201065  1
  O  O397  1  0.38084132  0.98870987  0.50509699  1
  O  O398  1  0.36835711  0.99265915  0.98389290  1
  O  O399  1  0.88735454  0.50663656  0.49304738  1
  O  O400  1  0.87175318  0.49274725  0.99692773  1
  O  O401  1  0.87711583  0.98466777  0.50581968  1
  O  O402  1  0.86785698  0.98953295  0.98897444  1
  O  O403  1  0.13146222  -0.00579764  0.01422846  1
  O  O404  1  0.13247995  0.00293966  0.51288121  1
  O  O405  1  0.12155686  0.51288202  0.00465431  1
  O  O406  1  0.11171259  0.50850053  0.48969166  1
  O  O407  1  0.62434284  0.00670554  0.00571116  1
  O  O408  1  0.61822092  0.00118619  0.51081145  1
  O  O409  1  0.61482337  0.50566473  0.00638174  1
  O  O410  1  0.61231189  0.51162051  0.50018930  1
  O  O411  1  0.36815862  0.36765501  0.12477530  1
  O  O412  1  0.35847537  0.42413815  0.61016056  1
  O  O413  1  0.37965022  0.86640408  0.11808100  1
  O  O414  1  0.37346663  0.86747434  0.61580866  1
  O  O415  1  0.87664582  0.36327530  0.11854537  1
  O  O416  1  0.86554570  0.36784893  0.62541530  1
  O  O417  1  0.86836113  0.87465059  0.11782841  1
  O  O418  1  0.87302251  0.86782633  0.61993547  1
  O  O419  1  0.13099684  0.12842134  0.38068955  1
  O  O420  1  0.12639667  0.12714190  0.87943219  1
  O  O421  1  0.13981186  0.62563236  0.36684850  1
  O  O422  1  0.12126452  0.63469792  0.88545299  1
  O  O423  1  0.63975970  0.11347051  0.39446317  1
  O  O424  1  0.64295462  0.12434392  0.87084332  1
  O  O425  1  0.63053333  0.63425416  0.37839834  1
  O  O426  1  0.63265288  0.63444095  0.88313866  1
