# generated using pymatgen
data_V85Zn86O256
_symmetry_space_group_name_H-M   'P 1'
_cell_length_a   16.95016226
_cell_length_b   16.95669070
_cell_length_c   16.95981618
_cell_angle_alpha   89.97920522
_cell_angle_beta   90.08243258
_cell_angle_gamma   90.07849431
_symmetry_Int_Tables_number   1
_chemical_formula_structural   V85Zn86O256
_chemical_formula_sum   'V85 Zn86 O256'
_cell_volume   4874.55768282
_cell_formula_units_Z   1
loop_
 _symmetry_equiv_pos_site_id
 _symmetry_equiv_pos_as_xyz
  1  'x, y, z'
loop_
 _atom_site_type_symbol
 _atom_site_label
 _atom_site_symmetry_multiplicity
 _atom_site_fract_x
 _atom_site_fract_y
 _atom_site_fract_z
 _atom_site_occupancy
  V  V0  1  0.34300607  0.16374453  0.22279674  1
  V  V1  1  0.11762151  0.87255071  0.74641027  1
  V  V2  1  0.50251015  0.49965508  0.50580253  1
  V  V3  1  0.12606841  0.62719228  -0.00696855  1
  V  V4  1  0.62453552  0.62103782  0.50341448  1
  V  V5  1  0.37578900  -0.00180955  0.88499945  1
  V  V6  1  0.49777533  0.11884462  0.62227953  1
  V  V7  1  -0.00265146  0.38611594  0.37531378  1
  V  V8  1  0.63122232  -0.00191956  0.64782725  1
  V  V9  1  0.01404319  0.50018350  0.50929674  1
  V  V10  1  0.48283700  0.62508814  0.12856482  1
  V  V11  1  0.87492717  0.87633157  0.00011961  1
  V  V12  1  0.87312812  0.12176658  0.25532666  1
  V  V13  1  0.87770239  0.25375845  0.62105537  1
  V  V14  1  0.12800700  0.25188684  0.87725888  1
  V  V15  1  0.37715190  0.50487778  0.36870883  1
  V  V16  1  0.38095042  0.00673690  0.37206196  1
  V  V17  1  0.86895989  0.49401037  0.87546284  1
  V  V18  1  0.12068079  0.11895878  0.50581586  1
  V  V19  1  0.62085452  0.11459179  0.49978260  1
  V  V20  1  -0.00788266  0.49841165  0.00025296  1
  V  V21  1  0.38780271  0.88377291  0.50024877  1
  V  V22  1  0.36089030  0.36318077  0.01003912  1
  V  V23  1  0.86529134  0.00555501  0.87383155  1
  V  V24  1  0.49659014  0.12215775  0.12139092  1
  V  V25  1  0.62288452  0.74778842  0.37250650  1
  V  V26  1  0.24901997  0.39023123  0.63193727  1
  V  V27  1  0.62509306  0.50358737  0.12449877  1
  V  V28  1  0.24268932  0.00037577  0.75033050  1
  V  V29  1  0.12163073  0.74675712  0.37817660  1
  V  V30  1  0.62896379  0.37493552  0.25029932  1
  V  V31  1  0.75056746  0.62059382  0.37353777  1
  V  V32  1  0.25925304  0.74565280  -0.00691810  1
  V  V33  1  -0.00033858  0.86779386  0.87217630  1
  V  V34  1  0.12740690  0.12741117  -0.00030488  1
  V  V35  1  0.38725463  0.75691748  0.63301666  1
  V  V36  1  0.24878787  0.12739865  0.87719632  1
  V  V37  1  0.87830006  0.63421801  0.75051534  1
  V  V38  1  0.25572500  0.62632397  0.36428878  1
  V  V39  1  0.75124905  0.25134445  0.50027756  1
  V  V40  1  0.00066038  0.11102366  0.62262048  1
  V  V41  1  0.50366439  0.36639146  0.87668013  1
  V  V42  1  0.63170058  0.14280680  0.00044150  1
  V  V43  1  0.62494909  0.24970730  0.37902361  1
  V  V44  1  0.74849811  0.87538654  0.12539952  1
  V  V45  1  0.25750880  0.86612187  0.12437721  1
  V  V46  1  0.24806542  0.88231264  0.62256375  1
  V  V47  1  0.25645582  0.75138406  0.49972369  1
  V  V48  1  -0.00232781  0.37401234  0.87238519  1
  V  V49  1  0.62474256  0.37344976  0.74439433  1
  V  V50  1  0.50100774  0.87907391  0.37391358  1
  V  V51  1  0.48446013  0.74596515  0.24571899  1
  V  V52  1  -0.00066491  0.75290763  0.25074607  1
  V  V53  1  0.12538557  0.25159513  0.37737944  1
  V  V54  1  0.12958873  0.37983330  0.24495509  1
  V  V55  1  0.86811522  0.12606133  0.75119695  1
  V  V56  1  0.37572788  0.37585949  0.49684417  1
  V  V57  1  0.50470026  0.63188200  0.63129184  1
  V  V58  1  0.00201297  0.25133729  0.74682203  1
  V  V59  1  0.74475836  0.75109696  -0.00151267  1
  V  V60  1  0.61865772  0.75201754  0.85789888  1
  V  V61  1  0.62186156  0.87495850  0.24776359  1
  V  V62  1  0.13057769  0.49293578  0.12096795  1
  V  V63  1  0.87392691  0.39073243  0.49765582  1
  V  V64  1  0.37378314  0.12493137  0.75268989  1
  V  V65  1  0.74789846  0.62403635  0.87453317  1
  V  V66  1  0.12373473  -0.00282029  0.12700368  1
  V  V67  1  0.74745411  0.50342909  0.73469736  1
  V  V68  1  0.37170335  0.50276453  0.87031474  1
  V  V69  1  0.24886022  0.11638909  0.37862978  1
  V  V70  1  0.12366166  0.87184023  0.25228502  1
  V  V71  1  0.61881571  -0.00296764  0.11326211  1
  V  V72  1  -0.00205279  0.24967649  0.25115883  1
  V  V73  1  -0.00015841  0.62384992  0.12469080  1
  V  V74  1  0.37539879  0.25102653  0.62972233  1
  V  V75  1  0.49833788  0.49771925  -0.00139653  1
  V  V76  1  0.50473347  0.88025465  0.87066765  1
  V  V77  1  0.50429492  0.24711284  0.24639237  1
  V  V78  1  0.75609448  0.37235999  0.10894947  1
  V  V79  1  0.87612386  0.62299776  0.25267854  1
  V  V80  1  0.01329415  0.62704721  0.63567041  1
  V  V81  1  0.88180556  -0.01812549  0.38104498  1
  V  V82  1  0.75753376  0.49676863  0.24995049  1
  V  V83  1  0.00206997  -0.00083222  -0.00150748  1
  V  V84  1  0.25164359  0.25143822  0.50046460  1
  Zn  Zn85  1  0.86121821  0.24430137  0.12277228  1
  Zn  Zn86  1  0.24976757  -0.00498126  0.25114867  1
  Zn  Zn87  1  0.49992806  0.37638257  0.37306797  1
  Zn  Zn88  1  0.62165078  0.62706050  -0.00150548  1
  Zn  Zn89  1  0.13669552  0.61762362  0.50721772  1
  Zn  Zn90  1  0.12700559  0.38319760  0.74569972  1
  Zn  Zn91  1  0.74771546  -0.00045616  0.25331641  1
  Zn  Zn92  1  0.12610493  0.74651070  0.87001883  1
  Zn  Zn93  1  0.76089412  0.76081535  0.49728876  1
  Zn  Zn94  1  0.87418247  0.75007093  0.12433084  1
  Zn  Zn95  1  -0.04539865  -0.06631761  0.53398083  1
  Zn  Zn96  1  0.26156062  0.50328497  0.23786891  1
  Zn  Zn97  1  0.75709491  0.87573130  0.62691756  1
  Zn  Zn98  1  -0.00607840  0.12666585  0.12315811  1
  Zn  Zn99  1  0.38406574  0.87294487  0.00561647  1
  Zn  Zn100  1  0.74386373  0.38433033  0.61727371  1
  Zn  Zn101  1  0.88141504  0.75541473  0.61439398  1
  Zn  Zn102  1  0.38029058  0.63277653  0.75617393  1
  Zn  Zn103  1  0.73403569  0.13587583  0.86668103  1
  Zn  Zn104  1  0.22468636  0.54272869  0.77755051  1
  Zn  Zn105  1  0.50875581  0.24563544  0.75473185  1
  Zn  Zn106  1  0.75020774  0.11966149  0.37643766  1
  Zn  Zn107  1  0.17714506  0.18853616  0.18855103  1
  Zn  Zn108  1  0.18665498  0.19066187  0.68780459  1
  Zn  Zn109  1  0.18807973  0.68495457  0.18164344  1
  Zn  Zn110  1  0.19470382  0.69681959  0.68809701  1
  Zn  Zn111  1  0.68716223  0.18552007  0.18625153  1
  Zn  Zn112  1  0.68672233  0.19090142  0.68279860  1
  Zn  Zn113  1  0.68361801  0.68791137  0.18751040  1
  Zn  Zn114  1  0.69492135  0.69024563  0.68162928  1
  Zn  Zn115  1  0.30746863  0.31361740  0.30508889  1
  Zn  Zn116  1  0.31519501  0.31546430  0.81688610  1
  Zn  Zn117  1  0.31102548  0.81695008  0.31565216  1
  Zn  Zn118  1  0.31363790  0.81527884  0.81293299  1
  Zn  Zn119  1  0.81484733  0.31170017  0.31406724  1
  Zn  Zn120  1  0.80722910  0.31411057  0.80732896  1
  Zn  Zn121  1  0.81068662  0.80939325  0.31200720  1
  Zn  Zn122  1  0.80472207  0.81411895  0.81158672  1
  Zn  Zn123  1  0.19212530  0.43765357  0.43416814  1
  Zn  Zn124  1  0.18557947  0.43502193  0.93898189  1
  Zn  Zn125  1  0.14332080  0.91578416  0.46129300  1
  Zn  Zn126  1  0.18892187  0.93287178  0.93698077  1
  Zn  Zn127  1  0.68649522  0.44017233  0.43525450  1
  Zn  Zn128  1  0.68238361  0.43551486  0.93267567  1
  Zn  Zn129  1  0.69369011  0.93750487  0.43902514  1
  Zn  Zn130  1  0.68480353  0.93842878  0.93352161  1
  Zn  Zn131  1  0.30566736  0.05916757  0.06289727  1
  Zn  Zn132  1  0.31148292  0.06131669  0.56010241  1
  Zn  Zn133  1  0.31130177  0.55902243  0.05322966  1
  Zn  Zn134  1  0.32152496  0.56799741  0.56138190  1
  Zn  Zn135  1  0.81020295  0.06136745  0.06446431  1
  Zn  Zn136  1  0.81027380  0.06369173  0.56199714  1
  Zn  Zn137  1  0.81152258  0.56396052  0.06296323  1
  Zn  Zn138  1  0.82953889  0.59090897  0.54927617  1
  Zn  Zn139  1  0.44002814  0.43335605  0.18581286  1
  Zn  Zn140  1  0.44002994  0.43901336  0.68772855  1
  Zn  Zn141  1  0.43655918  0.94119433  0.19101222  1
  Zn  Zn142  1  0.43907918  0.94048386  0.69321357  1
  Zn  Zn143  1  0.93825123  0.43510507  0.18564504  1
  Zn  Zn144  1  0.93537564  0.44231778  0.68633288  1
  Zn  Zn145  1  0.93609310  0.93783175  0.19106500  1
  Zn  Zn146  1  0.90248249  0.91822359  0.70688889  1
  Zn  Zn147  1  0.05911655  0.06022916  0.31634523  1
  Zn  Zn148  1  0.05650466  0.06103380  0.81179166  1
  Zn  Zn149  1  0.06637115  0.56387683  0.31346404  1
  Zn  Zn150  1  0.05727878  0.55959122  0.81451607  1
  Zn  Zn151  1  0.56338346  0.06283403  0.30735827  1
  Zn  Zn152  1  0.55684807  0.06568687  0.81890287  1
  Zn  Zn153  1  0.56083882  0.56165634  0.31024549  1
  Zn  Zn154  1  0.56430016  0.55868624  0.81168039  1
  Zn  Zn155  1  0.43844845  0.18788736  0.43592582  1
  Zn  Zn156  1  0.43737147  0.18770470  0.94267782  1
  Zn  Zn157  1  0.43930560  0.68963245  0.43925207  1
  Zn  Zn158  1  0.44288719  0.68730399  0.93865496  1
  Zn  Zn159  1  0.93744118  0.18827987  0.43696674  1
  Zn  Zn160  1  0.87616452  0.21443129  0.93323989  1
  Zn  Zn161  1  0.94423397  0.68075290  0.43691669  1
  Zn  Zn162  1  0.93370609  0.68631472  0.93773072  1
  Zn  Zn163  1  0.02416027  0.29247540  0.04305588  1
  Zn  Zn164  1  0.06513815  0.31370026  0.56273732  1
  Zn  Zn165  1  0.06546252  0.80998669  0.06276306  1
  Zn  Zn166  1  0.06693468  0.80294870  0.56821909  1
  Zn  Zn167  1  0.55895466  0.31542903  0.06695596  1
  Zn  Zn168  1  0.56084634  0.31118819  0.56576155  1
  Zn  Zn169  1  0.55804312  0.80959373  0.05903406  1
  Zn  Zn170  1  0.58643479  0.82313598  0.55550038  1
  O  O171  1  0.12394057  0.11563895  0.11888224  1
  O  O172  1  0.11407629  0.13450602  0.61742561  1
  O  O173  1  0.11702032  0.61691973  0.11457490  1
  O  O174  1  0.11776694  0.62994341  0.62781405  1
  O  O175  1  0.61829378  0.11741493  0.11739423  1
  O  O176  1  0.61677123  0.12069990  0.61941150  1
  O  O177  1  0.62460275  0.61151980  0.12318303  1
  O  O178  1  0.62006270  0.63128948  0.61145178  1
  O  O179  1  0.37393588  0.37998330  0.38522182  1
  O  O180  1  0.38355600  0.38436856  0.88263172  1
  O  O181  1  0.37986826  0.88439712  0.38259160  1
  O  O182  1  0.38255318  0.88280567  0.87856010  1
  O  O183  1  0.88617920  0.37114859  0.38461479  1
  O  O184  1  0.88135391  0.38751836  0.86826220  1
  O  O185  1  0.87101690  0.88156140  0.37744077  1
  O  O186  1  0.88121576  0.88486004  0.88362865  1
  O  O187  1  0.25501168  0.01270996  0.37860561  1
  O  O188  1  0.25464427  0.00520497  0.86875466  1
  O  O189  1  0.25956093  0.51070372  0.37501499  1
  O  O190  1  0.26743111  0.49818791  0.88037259  1
  O  O191  1  0.76082783  0.00037301  0.37293161  1
  O  O192  1  0.76247771  0.00962499  0.88265129  1
  O  O193  1  0.74454511  0.51128367  0.36234746  1
  O  O194  1  0.75469578  0.50528222  0.87074886  1
  O  O195  1  0.23556023  0.50599955  0.12296815  1
  O  O196  1  0.26054386  0.48934256  0.62182101  1
  O  O197  1  0.23617148  0.98961470  0.12674065  1
  O  O198  1  0.25745074  0.99014590  0.63380064  1
  O  O199  1  0.74447721  0.49219500  0.12970634  1
  O  O200  1  0.75822302  0.50537470  0.63399077  1
  O  O201  1  0.74233913  0.98647549  0.12627696  1
  O  O202  1  0.73262745  1.00238997  0.62102905  1
  O  O203  1  0.00479346  0.37130126  0.25924435  1
  O  O204  1  0.00050421  0.37105625  0.75645590  1
  O  O205  1  0.00623087  0.86010639  0.24487256  1
  O  O206  1  0.00628311  0.88270680  0.76006220  1
  O  O207  1  0.51102413  0.36696438  0.25055914  1
  O  O208  1  0.51012597  0.37484529  0.75521387  1
  O  O209  1  0.50504156  0.86651866  0.25224970  1
  O  O210  1  0.49384357  0.87580584  0.77003870  1
  O  O211  1  0.50000479  0.13271762  0.23788301  1
  O  O212  1  0.49134219  0.12881040  0.74463392  1
  O  O213  1  0.50321824  0.63283336  0.24038106  1
  O  O214  1  0.50113136  0.61960114  0.73449713  1
  O  O215  1  0.99297590  0.13280750  0.25256864  1
  O  O216  1  0.99719796  0.13472179  0.74050948  1
  O  O217  1  0.99374782  0.63046756  0.24682053  1
  O  O218  1  0.99520620  0.62251067  0.74208077  1
  O  O219  1  0.37345058  0.26374121  -0.00217286  1
  O  O220  1  0.37290087  0.25916131  0.50552993  1
  O  O221  1  0.36254954  0.74795522  -0.00263457  1
  O  O222  1  0.36894730  0.76338701  0.50208949  1
  O  O223  1  0.92076777  0.24240960  0.02718115  1
  O  O224  1  0.86733210  0.25905028  0.50154396  1
  O  O225  1  0.86135512  0.75575680  0.00039275  1
  O  O226  1  0.86178766  0.70650298  0.50564502  1
  O  O227  1  0.13016529  0.24763615  0.48981485  1
  O  O228  1  0.11498631  0.23870499  0.98982962  1
  O  O229  1  0.14124895  0.74447455  0.49229980  1
  O  O230  1  0.13256088  0.74167830  0.99766489  1
  O  O231  1  0.63138241  0.24705860  0.49544866  1
  O  O232  1  0.62382082  0.24107754  1.00614630  1
  O  O233  1  0.61665918  0.73509499  0.48210529  1
  O  O234  1  0.63585803  0.74878306  0.99335447  1
  O  O235  1  0.50365326  0.24216842  0.13734047  1
  O  O236  1  0.48809684  0.24330829  0.62853612  1
  O  O237  1  0.50471404  0.73692621  0.13292128  1
  O  O238  1  0.49685261  0.74477793  0.61304260  1
  O  O239  1  1.01628791  0.24600574  0.14857404  1
  O  O240  1  0.99594884  0.25140779  0.63234172  1
  O  O241  1  0.99898012  0.74185990  0.13279708  1
  O  O242  1  0.99849857  0.73075469  0.62289842  1
  O  O243  1  0.00721670  0.25910504  0.36911040  1
  O  O244  1  0.00452243  0.26079784  0.86440657  1
  O  O245  1  0.01399828  0.73961983  0.36728653  1
  O  O246  1  -0.00007132  0.76464902  0.88406662  1
  O  O247  1  0.51473252  0.25202953  0.37344885  1
  O  O248  1  0.49357903  0.26273727  0.87270521  1
  O  O249  1  0.50475434  0.75581029  0.36661361  1
  O  O250  1  0.51392172  0.75409943  0.87392970  1
  O  O251  1  0.24510390  0.13467327  0.49584255  1
  O  O252  1  0.23561419  0.12090511  0.99424171  1
  O  O253  1  0.25490867  0.63586922  0.49345621  1
  O  O254  1  0.24218058  0.63777362  1.00330822  1
  O  O255  1  0.74079419  0.13643422  0.49863540  1
  O  O256  1  0.73427940  0.12616296  1.00667813  1
  O  O257  1  0.73511652  0.61156163  0.48673418  1
  O  O258  1  0.74783600  0.63326013  0.99313436  1
  O  O259  1  0.26149107  0.37638193  -0.00039884  1
  O  O260  1  0.25938712  0.37134321  0.50742458  1
  O  O261  1  0.25077434  0.86235076  0.00776520  1
  O  O262  1  0.25128288  0.87083204  0.50679331  1
  O  O263  1  0.74791106  0.38141005  0.01086671  1
  O  O264  1  0.75766670  0.37325110  0.49784962  1
  O  O265  1  0.75325228  0.86978811  0.00483087  1
  O  O266  1  0.70751841  0.86047534  0.51759445  1
  O  O267  1  0.12085599  0.49453571  0.23872119  1
  O  O268  1  0.12870467  0.49504398  0.76007282  1
  O  O269  1  0.12293055  0.98913176  0.24568531  1
  O  O270  1  0.13666673  0.99350085  0.75553565  1
  O  O271  1  0.63467244  0.49646428  0.24222138  1
  O  O272  1  0.63586616  0.48921111  0.75277131  1
  O  O273  1  0.62701704  0.99138993  0.23962932  1
  O  O274  1  0.63014258  1.01467172  0.74587480  1
  O  O275  1  0.36854139  -0.00123952  0.26530268  1
  O  O276  1  0.36354024  0.00620179  0.76038416  1
  O  O277  1  0.37706002  0.49038527  0.26430077  1
  O  O278  1  0.37969552  0.49825620  0.76631053  1
  O  O279  1  0.87164243  0.00411831  0.26096040  1
  O  O280  1  0.88891930  0.01731664  0.76443850  1
  O  O281  1  0.86474488  0.50593585  0.24449729  1
  O  O282  1  0.86617108  0.50605139  0.75885137  1
  O  O283  1  0.11847048  0.36911126  0.37121773  1
  O  O284  1  0.11770064  0.36640204  0.87356410  1
  O  O285  1  0.13613579  0.86033334  0.35839974  1
  O  O286  1  0.11542774  0.87552752  0.86743595  1
  O  O287  1  0.62442757  0.36699518  0.36865215  1
  O  O288  1  0.61536528  0.37727198  0.86193887  1
  O  O289  1  0.61974285  0.86674349  0.36788828  1
  O  O290  1  0.61730080  0.86538920  0.87446144  1
  O  O291  1  0.37925076  0.11599218  0.13269335  1
  O  O292  1  0.37975805  0.13093792  0.62839796  1
  O  O293  1  0.38413846  0.61370399  0.12494378  1
  O  O294  1  0.38761408  0.64120579  0.62176830  1
  O  O295  1  0.87567922  0.12039349  0.14087465  1
  O  O296  1  0.88162313  0.13309875  0.62963056  1
  O  O297  1  0.87942631  0.62717790  0.13563382  1
  O  O298  1  0.89094834  0.62081289  0.64022878  1
  O  O299  1  0.27808352  0.24063810  0.18738728  1
  O  O300  1  0.26251788  0.25313426  0.61943567  1
  O  O301  1  0.24473404  0.75749389  0.11251389  1
  O  O302  1  0.26295462  0.76335161  0.61570677  1
  O  O303  1  0.74590470  0.26806252  0.12849899  1
  O  O304  1  0.75475490  0.25569256  0.61126101  1
  O  O305  1  0.74721300  0.75941666  0.11728113  1
  O  O306  1  0.76171562  0.75336290  0.61995858  1
  O  O307  1  0.24296655  0.24220490  0.37942195  1
  O  O308  1  0.23540381  0.24468358  0.86740463  1
  O  O309  1  0.24679583  0.74397778  0.38038347  1
  O  O310  1  0.24684217  0.75773233  0.88986693  1
  O  O311  1  0.74099908  0.25020087  0.38433744  1
  O  O312  1  0.77849807  0.24041121  0.88417652  1
  O  O313  1  0.74127470  0.73781143  0.37512573  1
  O  O314  1  0.73980757  0.74740198  0.88024588  1
  O  O315  1  0.01426039  0.10586674  0.00413502  1
  O  O316  1  0.00831220  0.13521173  0.51060601  1
  O  O317  1  0.00416195  0.61822860  0.00455869  1
  O  O318  1  0.00986483  0.61417931  0.51119514  1
  O  O319  1  0.50754719  0.13090274  0.01526477  1
  O  O320  1  0.50851616  0.13356475  0.51075580  1
  O  O321  1  0.50223696  0.61628659  0.00992649  1
  O  O322  1  0.50656057  0.61769667  0.50462576  1
  O  O323  1  0.49174909  0.38145312  0.50045959  1
  O  O324  1  0.49839295  0.38151555  0.99321951  1
  O  O325  1  0.49174675  0.87286753  0.49394529  1
  O  O326  1  0.49654850  0.86595915  0.98298890  1
  O  O327  1  0.99556180  0.38164913  0.49546448  1
  O  O328  1  1.00351911  0.38829485  0.98280236  1
  O  O329  1  1.03871782  0.87623605  0.48969969  1
  O  O330  1  0.99634342  0.88225765  0.99772993  1
  O  O331  1  0.49384175  0.49859492  0.38354759  1
  O  O332  1  0.49658522  0.49062964  0.88307971  1
  O  O333  1  0.49304406  0.99304125  0.36824778  1
  O  O334  1  0.49161239  0.99016642  0.87594321  1
  O  O335  1  1.00582877  0.49037013  0.38305756  1
  O  O336  1  0.98846630  0.49508966  0.88161106  1
  O  O337  1  0.98163640  0.99842924  0.37202293  1
  O  O338  1  0.99576249  0.99111900  0.88497939  1
  O  O339  1  0.01071471  -0.00347238  0.12056666  1
  O  O340  1  -0.00694331  0.01208841  0.62288599  1
  O  O341  1  0.00343465  0.50336420  0.11569160  1
  O  O342  1  0.00201069  0.51066758  0.61951369  1
  O  O343  1  0.50708120  0.00867867  0.12951806  1
  O  O344  1  0.50644842  0.01468376  0.63230623  1
  O  O345  1  0.50800278  0.50437476  0.11968384  1
  O  O346  1  0.49045992  0.51096192  0.61146744  1
  O  O347  1  0.23315688  0.38621511  0.25752346  1
  O  O348  1  0.25422174  0.37331153  0.73478048  1
  O  O349  1  0.24203799  0.87271988  0.24094596  1
  O  O350  1  0.24472851  0.88331337  0.74368890  1
  O  O351  1  0.74714119  0.38333485  0.24913109  1
  O  O352  1  0.74100201  0.38366943  0.74450485  1
  O  O353  1  0.74132064  0.87088655  0.24001906  1
  O  O354  1  0.79066227  0.89116691  0.73608595  1
  O  O355  1  0.24700064  0.11485632  0.26061463  1
  O  O356  1  0.25229943  0.11879021  0.75534323  1
  O  O357  1  0.24763409  0.62325148  0.26028893  1
  O  O358  1  0.26673428  0.63866218  0.74952130  1
  O  O359  1  0.75726532  0.12308601  0.25314140  1
  O  O360  1  0.76389162  0.13349135  0.74835431  1
  O  O361  1  0.75647533  0.61919870  0.25215188  1
  O  O362  1  0.75676344  0.61880501  0.75562180  1
  O  O363  1  0.36619842  0.12124185  0.37327846  1
  O  O364  1  0.36974535  0.11939010  0.87338226  1
  O  O365  1  0.36927916  0.61670284  0.37988228  1
  O  O366  1  0.38870881  0.60708356  0.87523697  1
  O  O367  1  0.87280582  0.12505206  0.36505120  1
  O  O368  1  0.88383734  0.11823817  0.86543611  1
  O  O369  1  0.86651787  0.62429249  0.35995587  1
  O  O370  1  0.87017347  0.61475796  0.86954457  1
  O  O371  1  0.11353756  0.38526609  0.13476962  1
  O  O372  1  0.14570962  0.37060861  0.62417959  1
  O  O373  1  0.13109597  0.87819170  0.13469833  1
  O  O374  1  0.13725632  0.87254830  0.63383532  1
  O  O375  1  0.63345413  0.38621562  0.12972045  1
  O  O376  1  0.62399086  0.37745121  0.63749644  1
  O  O377  1  0.62803201  0.87904650  0.12702810  1
  O  O378  1  0.61148705  0.89841817  0.63913190  1
  O  O379  1  0.11980353  0.25867453  0.26400085  1
  O  O380  1  0.11489521  0.25408492  0.75629399  1
  O  O381  1  0.11839263  0.75159269  0.25436619  1
  O  O382  1  0.12883415  0.76764508  0.75343912  1
  O  O383  1  0.62069169  0.25212886  0.25890525  1
  O  O384  1  0.62704552  0.26597404  0.74753983  1
  O  O385  1  0.61842448  0.75346499  0.25894835  1
  O  O386  1  0.63079417  0.74840670  0.76044446  1
  O  O387  1  0.39789795  0.24736842  0.27349665  1
  O  O388  1  0.37443687  0.24392590  0.74325932  1
  O  O389  1  0.38562628  0.75446568  0.25392595  1
  O  O390  1  0.37882215  0.75817074  0.73563448  1
  O  O391  1  0.88212097  0.24283572  0.24717031  1
  O  O392  1  0.88634802  0.24652101  0.74189640  1
  O  O393  1  0.88307921  0.74260156  0.24881430  1
  O  O394  1  0.87440684  0.73464780  0.75724404  1
  O  O395  1  0.38190209  0.49298734  0.49049380  1
  O  O396  1  0.38511267  0.49304434  0.99127263  1
  O  O397  1  0.37203730  0.99358087  0.48751265  1
  O  O398  1  0.36703240  0.99796714  0.98784261  1
  O  O399  1  0.88690745  0.49325408  0.50281373  1
  O  O400  1  0.88399162  0.50614867  0.99281285  1
  O  O401  1  0.87411827  1.00423020  0.48576022  1
  O  O402  1  0.88361541  0.99751072  0.99613353  1
  O  O403  1  0.12098666  -0.00003747  0.00795867  1
  O  O404  1  0.13460159  0.02105055  0.50081809  1
  O  O405  1  0.11601947  0.50593881  0.00348053  1
  O  O406  1  0.11798108  0.49799814  0.49864698  1
  O  O407  1  0.62617403  0.00180224  0.01146941  1
  O  O408  1  0.62345664  0.01433948  0.49936758  1
  O  O409  1  0.61398510  0.50027136  0.00578444  1
  O  O410  1  0.61283592  0.50687417  0.49428954  1
  O  O411  1  0.37856212  0.37941161  0.10863396  1
  O  O412  1  0.36986201  0.36917903  0.61849727  1
  O  O413  1  0.36106662  0.88362652  0.12362666  1
  O  O414  1  0.37395866  0.87573018  0.61671870  1
  O  O415  1  0.85873910  0.37544662  0.12689126  1
  O  O416  1  0.87289498  0.37106490  0.61431218  1
  O  O417  1  0.86517807  0.87387850  0.11979998  1
  O  O418  1  0.88645930  0.87223465  0.60396227  1
  O  O419  1  0.12945825  0.13280222  0.38047498  1
  O  O420  1  0.12616078  0.13090600  0.88106302  1
  O  O421  1  0.13662087  0.63181979  0.37830198  1
  O  O422  1  0.11825638  0.62688271  0.88848118  1
  O  O423  1  0.62526319  0.13242057  0.38212495  1
  O  O424  1  0.62109424  0.12356144  0.89543515  1
  O  O425  1  0.63046777  0.62990050  0.37619828  1
  O  O426  1  0.62794180  0.63606188  0.87520301  1
