# generated using pymatgen
data_V85Zn86O256
_symmetry_space_group_name_H-M   'P 1'
_cell_length_a   16.92252215
_cell_length_b   16.94082983
_cell_length_c   16.94000056
_cell_angle_alpha   90.02047892
_cell_angle_beta   89.98465825
_cell_angle_gamma   89.98736324
_symmetry_Int_Tables_number   1
_chemical_formula_structural   V85Zn86O256
_chemical_formula_sum   'V85 Zn86 O256'
_cell_volume   4856.38532091
_cell_formula_units_Z   1
loop_
 _symmetry_equiv_pos_site_id
 _symmetry_equiv_pos_as_xyz
  1  'x, y, z'
loop_
 _atom_site_type_symbol
 _atom_site_label
 _atom_site_symmetry_multiplicity
 _atom_site_fract_x
 _atom_site_fract_y
 _atom_site_fract_z
 _atom_site_occupancy
  V  V0  1  0.50049563  0.37478913  0.87472701  1
  V  V1  1  0.39111463  0.88191004  0.49826250  1
  V  V2  1  0.51234961  0.11654144  0.62111324  1
  V  V3  1  0.87074515  0.12481878  0.75198917  1
  V  V4  1  0.00168225  0.62606972  0.62723966  1
  V  V5  1  0.24860334  0.37220708  0.12313800  1
  V  V6  1  0.24894535  0.50553617  0.75218341  1
  V  V7  1  0.25209888  0.25829503  0.49801223  1
  V  V8  1  0.86987933  0.37577982  0.00423937  1
  V  V9  1  0.87298245  0.50078967  0.87692409  1
  V  V10  1  0.12868845  0.24474589  0.37316324  1
  V  V11  1  0.62706594  0.62387480  0.00932781  1
  V  V12  1  0.87469197  0.62704235  0.75120081  1
  V  V13  1  0.48125590  0.49471882  0.50105168  1
  V  V14  1  0.62001890  0.74945464  0.86948024  1
  V  V15  1  0.50365120  0.25071772  0.74874408  1
  V  V16  1  0.37769754  0.63454597  0.75414914  1
  V  V17  1  0.24956330  0.00477664  0.75334721  1
  V  V18  1  0.37514525  0.87774147  0.00287912  1
  V  V19  1  0.37778435  0.74775249  0.12776698  1
  V  V20  1  0.12639100  0.62687216  0.50181977  1
  V  V21  1  0.87363510  0.37420847  0.49912871  1
  V  V22  1  0.50929347  0.25247597  0.24930308  1
  V  V23  1  0.25355571  0.75472700  0.50199518  1
  V  V24  1  0.00293448  0.87474430  0.37443539  1
  V  V25  1  0.36794142  0.12591683  0.25460596  1
  V  V26  1  -0.00270883  0.00234336  0.49736314  1
  V  V27  1  0.12217341  0.00002966  0.62622497  1
  V  V28  1  0.86999567  0.25313153  0.12777907  1
  V  V29  1  0.63071521  0.87827017  0.74049687  1
  V  V30  1  0.37279811  0.24384549  0.12369038  1
  V  V31  1  0.51621975  0.00257128  -0.00077306  1
  V  V32  1  0.12348377  -0.00095622  0.12171472  1
  V  V33  1  0.12291299  0.87793830  0.75872920  1
  V  V34  1  0.25794215  0.50030945  0.25705976  1
  V  V35  1  0.74714160  0.49941466  0.74951109  1
  V  V36  1  0.74840138  0.76188826  0.00113425  1
  V  V37  1  0.37601725  0.25588793  0.62153936  1
  V  V38  1  -0.00176623  0.37612394  0.37456312  1
  V  V39  1  0.74828037  0.62529183  0.87742651  1
  V  V40  1  -0.00128087  0.12370806  0.12200502  1
  V  V41  1  0.74521764  0.23533514  0.49734502  1
  V  V42  1  0.87056234  0.75348305  0.12644607  1
  V  V43  1  0.37066541  0.12749121  0.75142920  1
  V  V44  1  0.63017439  0.75922983  0.37169253  1
  V  V45  1  -0.00120083  0.62438401  0.12678387  1
  V  V46  1  0.87046065  0.62180740  0.25646144  1
  V  V47  1  0.68665671  0.93402192  0.18255630  1
  V  V48  1  0.73635001  0.38078903  0.12870434  1
  V  V49  1  0.25006381  0.87866306  0.62474204  1
  V  V50  1  0.49904938  0.87322725  0.86728596  1
  V  V51  1  0.12194240  0.11946840  -0.00725338  1
  V  V52  1  0.49987738  0.75992733  0.25994343  1
  V  V53  1  0.00211115  0.13066996  0.63079072  1
  V  V54  1  0.49285871  0.38008556  0.37035869  1
  V  V55  1  0.13381422  0.12267728  0.49607483  1
  V  V56  1  0.86853500  0.87144651  0.49771712  1
  V  V57  1  0.12467395  0.37432512  0.24943244  1
  V  V58  1  -0.00035037  0.50161327  0.49925516  1
  V  V59  1  0.12855947  0.74589322  0.87564575  1
  V  V60  1  0.50131612  0.63122795  0.62660472  1
  V  V61  1  0.12853077  0.74896613  0.37486366  1
  V  V62  1  -0.00016508  0.50018008  -0.00123601  1
  V  V63  1  0.86977314  0.12037271  0.25336115  1
  V  V64  1  0.13558770  0.62287709  -0.00319578  1
  V  V65  1  0.62972149  0.61662323  0.48965844  1
  V  V66  1  0.12544390  0.49903360  0.12515393  1
  V  V67  1  0.38214788  0.00370014  0.37862272  1
  V  V68  1  -0.00103975  0.76069010  0.75364954  1
  V  V69  1  0.12936186  0.87512137  0.24923939  1
  V  V70  1  0.37077998  0.50635138  0.87729973  1
  V  V71  1  0.87931885  0.25018501  0.63156462  1
  V  V72  1  0.63192616  0.24358548  0.88657046  1
  V  V73  1  0.74733061  0.37463487  0.62196720  1
  V  V74  1  0.89281784  0.87833686  -0.00219856  1
  V  V75  1  0.11975514  0.37223838  0.74981203  1
  V  V76  1  0.24857512  0.24354494  -0.01287165  1
  V  V77  1  0.37133931  0.00652636  0.87837905  1
  V  V78  1  0.73203698  0.50083406  0.25504206  1
  V  V79  1  0.50421228  0.50048567  0.00750949  1
  V  V80  1  0.37347769  0.37400341  -0.00227474  1
  V  V81  1  0.86580812  0.75172133  0.62465443  1
  V  V82  1  0.89334066  -0.00648908  0.87225034  1
  V  V83  1  0.10919604  0.24739388  0.87281887  1
  V  V84  1  0.51269482  0.12177687  0.11922332  1
  Zn  Zn85  1  0.50352463  0.62144776  0.13210489  1
  Zn  Zn86  1  -0.00694106  0.37091843  0.87048909  1
  Zn  Zn87  1  0.75160172  0.74199070  0.49458135  1
  Zn  Zn88  1  0.12673407  0.49822383  0.62621352  1
  Zn  Zn89  1  0.25249997  0.37873563  0.62433584  1
  Zn  Zn90  1  0.56712329  0.06242674  0.45969433  1
  Zn  Zn91  1  0.73096536  0.10866889  0.36700552  1
  Zn  Zn92  1  0.62616198  0.37495781  0.75229057  1
  Zn  Zn93  1  0.74094394  0.11504247  0.89593458  1
  Zn  Zn94  1  0.25294040  0.87591840  0.12699222  1
  Zn  Zn95  1  0.62194199  0.50010497  0.62393391  1
  Zn  Zn96  1  0.74610926  -0.00077479  0.75138562  1
  Zn  Zn97  1  0.25489540  0.74731149  -0.00182963  1
  Zn  Zn98  1  0.87288263  -0.00352911  0.36747471  1
  Zn  Zn99  1  0.38024871  0.75632930  0.63061450  1
  Zn  Zn100  1  0.86609428  0.50303240  0.37587923  1
  Zn  Zn101  1  0.38011210  0.62361620  0.25897671  1
  Zn  Zn102  1  0.24966897  0.00478004  0.25658616  1
  Zn  Zn103  1  0.25734112  0.61632081  0.38378150  1
  Zn  Zn104  1  -0.00068986  0.24985133  0.25089057  1
  Zn  Zn105  1  -0.00020500  0.74781207  0.24993528  1
  Zn  Zn106  1  0.62072252  0.24678224  0.37940799  1
  Zn  Zn107  1  0.18649755  0.18722652  0.18339189  1
  Zn  Zn108  1  0.18818593  0.19053736  0.68745284  1
  Zn  Zn109  1  0.19130476  0.68718834  0.18602524  1
  Zn  Zn110  1  0.19047511  0.68804838  0.68912250  1
  Zn  Zn111  1  0.69140248  0.18878145  0.18292432  1
  Zn  Zn112  1  0.68952781  0.18932316  0.69143144  1
  Zn  Zn113  1  0.68942839  0.69208122  0.19273395  1
  Zn  Zn114  1  0.68279515  0.68744512  0.68716687  1
  Zn  Zn115  1  0.31513738  0.31293363  0.31355068  1
  Zn  Zn116  1  0.31032718  0.31582065  0.81003694  1
  Zn  Zn117  1  0.31694779  0.81551412  0.31806116  1
  Zn  Zn118  1  0.30864840  0.81532720  0.81653468  1
  Zn  Zn119  1  0.80848803  0.31209352  0.31068421  1
  Zn  Zn120  1  0.81218801  0.31197694  0.81290898  1
  Zn  Zn121  1  0.80934196  0.81426152  0.31021368  1
  Zn  Zn122  1  0.81174600  0.81493186  0.81591347  1
  Zn  Zn123  1  0.18400665  0.43580332  0.43814727  1
  Zn  Zn124  1  0.18716612  0.43376800  0.93355204  1
  Zn  Zn125  1  0.19468507  0.94176283  0.43372937  1
  Zn  Zn126  1  0.18886102  0.93716032  0.93786314  1
  Zn  Zn127  1  0.67948442  0.43136095  0.43330046  1
  Zn  Zn128  1  0.68572474  0.43401830  0.93975037  1
  Zn  Zn129  1  0.69174078  0.93351426  0.42655576  1
  Zn  Zn130  1  0.69424780  0.93655296  0.92939348  1
  Zn  Zn131  1  0.30787817  0.06194709  0.06337627  1
  Zn  Zn132  1  0.31670256  0.06622572  0.56446037  1
  Zn  Zn133  1  0.31574554  0.56184409  0.06922927  1
  Zn  Zn134  1  0.31138662  0.56735848  0.57030587  1
  Zn  Zn135  1  0.80804425  0.05746375  0.06237049  1
  Zn  Zn136  1  0.72412916  0.03708138  0.56461873  1
  Zn  Zn137  1  0.80835364  0.56258247  0.06897441  1
  Zn  Zn138  1  0.81245031  0.56160490  0.56244385  1
  Zn  Zn139  1  0.43820943  0.43227759  0.18600414  1
  Zn  Zn140  1  0.43693149  0.44040108  0.68848238  1
  Zn  Zn141  1  0.44389323  0.94064766  0.18848114  1
  Zn  Zn142  1  0.43892440  0.93860492  0.68814034  1
  Zn  Zn143  1  0.93477104  0.43975906  0.19061599  1
  Zn  Zn144  1  0.93668549  0.43846269  0.68782081  1
  Zn  Zn145  1  0.93914594  0.93719518  0.18317283  1
  Zn  Zn146  1  0.89555190  0.96386563  0.65568089  1
  Zn  Zn147  1  0.05964519  0.06270767  0.30860778  1
  Zn  Zn148  1  0.05618793  0.06326771  0.81389524  1
  Zn  Zn149  1  0.06512955  0.56249353  0.31301156  1
  Zn  Zn150  1  0.06215315  0.56325858  0.81397132  1
  Zn  Zn151  1  0.55995721  0.06127757  0.29719442  1
  Zn  Zn152  1  0.56114642  0.06223895  0.81027931  1
  Zn  Zn153  1  0.55291704  0.56471857  0.31637668  1
  Zn  Zn154  1  0.55982154  0.56297018  0.81569486  1
  Zn  Zn155  1  0.43418735  0.19125789  0.43533061  1
  Zn  Zn156  1  0.44087376  0.18658893  0.93650567  1
  Zn  Zn157  1  0.43674041  0.68570024  0.43811412  1
  Zn  Zn158  1  0.43988512  0.68774683  0.94047854  1
  Zn  Zn159  1  0.93829125  0.18908662  0.44020573  1
  Zn  Zn160  1  0.90606606  0.17184873  0.95707348  1
  Zn  Zn161  1  0.93983121  0.68859888  0.43574333  1
  Zn  Zn162  1  0.94051792  0.68956548  0.93767672  1
  Zn  Zn163  1  0.05795956  0.30950095  0.05978772  1
  Zn  Zn164  1  0.06532890  0.31326765  0.56216397  1
  Zn  Zn165  1  0.06374912  0.80800740  0.06501584  1
  Zn  Zn166  1  0.06053214  0.81372808  0.56563715  1
  Zn  Zn167  1  0.56027968  0.31015483  0.06121929  1
  Zn  Zn168  1  0.56264868  0.31428929  0.56106180  1
  Zn  Zn169  1  0.55946827  0.81316361  0.06293465  1
  Zn  Zn170  1  0.56761914  0.80764162  0.55814259  1
  O  O171  1  0.11824930  0.11902634  0.11740224  1
  O  O172  1  0.11982330  0.12091587  0.61816388  1
  O  O173  1  0.11860265  0.61996325  0.11800882  1
  O  O174  1  0.11684382  0.62508401  0.62148664  1
  O  O175  1  0.61145117  0.13171776  0.12301274  1
  O  O176  1  0.61384987  0.12535255  0.63282106  1
  O  O177  1  0.62598944  0.63279153  0.11180594  1
  O  O178  1  0.61744991  0.62241467  0.61611971  1
  O  O179  1  0.39197102  0.36630593  0.37979120  1
  O  O180  1  0.38073849  0.38150735  0.87993126  1
  O  O181  1  0.37721740  0.88340768  0.39112771  1
  O  O182  1  0.38168029  0.88155984  0.88052029  1
  O  O183  1  0.88632939  0.37250423  0.37838014  1
  O  O184  1  0.87303132  0.38193044  0.88480658  1
  O  O185  1  0.88831369  0.86905425  0.37945792  1
  O  O186  1  0.87774602  0.88215899  0.88320241  1
  O  O187  1  0.26867202  0.00008517  0.37193764  1
  O  O188  1  0.26331968  -0.00379623  0.86920279  1
  O  O189  1  0.24372644  0.49613417  0.36040600  1
  O  O190  1  0.26326720  0.49649364  0.87119690  1
  O  O191  1  0.76176642  0.00133530  0.37385373  1
  O  O192  1  0.76667702  0.00274657  0.86994229  1
  O  O193  1  0.74863246  0.48982680  0.35978691  1
  O  O194  1  0.75383493  0.50416416  0.86901617  1
  O  O195  1  0.24387907  0.49137495  0.13151537  1
  O  O196  1  0.24838898  0.49758376  0.63650137  1
  O  O197  1  0.23775125  0.99724897  0.13060005  1
  O  O198  1  0.24242241  0.99802671  0.63201554  1
  O  O199  1  0.75005746  0.48855810  0.13687937  1
  O  O200  1  0.74997067  0.49200389  0.63287515  1
  O  O201  1  0.74871901  0.99802852  0.13204378  1
  O  O202  1  0.78705677  1.00102352  0.64442274  1
  O  O203  1  0.00611089  0.37498112  0.25846842  1
  O  O204  1  0.01377815  0.38358100  0.75271487  1
  O  O205  1  0.01036964  0.87359391  0.25810165  1
  O  O206  1  0.00932079  0.86228617  0.74378318  1
  O  O207  1  0.49636186  0.36883508  0.26006587  1
  O  O208  1  0.50104317  0.36859955  0.75604781  1
  O  O209  1  0.49931391  0.85886639  0.24729607  1
  O  O210  1  0.50535525  0.87810745  0.76224458  1
  O  O211  1  0.48876433  0.13291126  0.23366956  1
  O  O212  1  0.49195669  0.13319281  0.74292934  1
  O  O213  1  0.49796486  0.63582298  0.24731205  1
  O  O214  1  0.49039384  0.61651911  0.74028207  1
  O  O215  1  0.99649569  0.12996958  0.23743472  1
  O  O216  1  0.99842679  0.12456606  0.73521363  1
  O  O217  1  0.99403172  0.62395522  0.24229520  1
  O  O218  1  0.99410148  0.63068665  0.74339507  1
  O  O219  1  0.36702495  0.25130824  0.00314715  1
  O  O220  1  0.36293213  0.24384025  0.50893543  1
  O  O221  1  0.37681271  0.75819441  0.00836098  1
  O  O222  1  0.36871613  0.76442807  0.50250230  1
  O  O223  1  0.88601827  0.27169805  0.01131979  1
  O  O224  1  0.86668046  0.25505316  0.50928070  1
  O  O225  1  0.87018528  0.75693552  0.00363707  1
  O  O226  1  0.87507109  0.75199065  0.50663850  1
  O  O227  1  0.13096623  0.24204828  0.49317992  1
  O  O228  1  0.13008219  0.24348264  0.99205242  1
  O  O229  1  0.13150665  0.74664974  0.49680144  1
  O  O230  1  0.12588451  0.74024021  0.99389597  1
  O  O231  1  0.64248197  0.25060886  0.50569662  1
  O  O232  1  0.61978521  0.24871438  0.98523521  1
  O  O233  1  0.62592965  0.73673669  0.48902299  1
  O  O234  1  0.63208017  0.74463265  0.99148662  1
  O  O235  1  0.49143838  0.24305719  0.12651513  1
  O  O236  1  0.49548373  0.24704988  0.63270362  1
  O  O237  1  0.49123639  0.74885866  0.13289352  1
  O  O238  1  0.49813890  0.73512677  0.61976843  1
  O  O239  1  0.98960498  0.24510508  0.12774492  1
  O  O240  1  0.99121984  0.24295106  0.61607409  1
  O  O241  1  0.98972918  0.74117775  0.12621231  1
  O  O242  1  0.99571880  0.73917113  0.63246967  1
  O  O243  1  0.01153933  0.25821412  0.37675770  1
  O  O244  1  0.00864252  0.25139780  0.88155854  1
  O  O245  1  0.01145738  0.75754426  0.37352446  1
  O  O246  1  0.01185446  0.74426294  0.86419047  1
  O  O247  1  0.49820300  0.25554559  0.36375223  1
  O  O248  1  0.50618206  0.25452374  0.86719001  1
  O  O249  1  0.50686297  0.74744653  0.36527785  1
  O  O250  1  0.50859529  0.76097680  0.88247750  1
  O  O251  1  0.23729665  0.13251706  0.50579883  1
  O  O252  1  0.23654282  0.13386941  1.00464861  1
  O  O253  1  0.24340609  0.63530962  0.50446115  1
  O  O254  1  0.23850533  0.62346545  1.00605243  1
  O  O255  1  0.75683840  0.13541703  0.49974143  1
  O  O256  1  0.79714601  0.13959341  0.99037699  1
  O  O257  1  0.73428183  0.62216451  0.50319253  1
  O  O258  1  0.74488992  0.63030963  0.99513628  1
  O  O259  1  0.25485742  0.36726753  0.00415172  1
  O  O260  1  0.24291881  0.36251042  0.50384657  1
  O  O261  1  0.26441961  0.87366981  0.00092587  1
  O  O262  1  0.25106694  0.87037199  0.50909583  1
  O  O263  1  0.75860725  0.38568410  0.01539299  1
  O  O264  1  0.75581527  0.37221228  0.50706945  1
  O  O265  1  0.76113158  0.86309774  -0.00779829  1
  O  O266  1  0.76656345  0.86630297  0.49568154  1
  O  O267  1  0.13212445  0.49300584  0.24347082  1
  O  O268  1  0.13328374  0.49584777  0.75257478  1
  O  O269  1  0.12713571  0.99217350  0.24389217  1
  O  O270  1  0.12753825  0.99425854  0.74874647  1
  O  O271  1  0.63323841  0.50670704  0.25259082  1
  O  O272  1  0.63656896  0.49983112  0.75063802  1
  O  O273  1  0.62037778  0.98787089  0.23958810  1
  O  O274  1  0.62582015  0.98399001  0.75457051  1
  O  O275  1  0.37740368  0.00863463  0.25724702  1
  O  O276  1  0.37139106  0.00846279  0.75748870  1
  O  O277  1  0.36017740  0.49735388  0.24289264  1
  O  O278  1  0.36854319  0.50715028  0.75905661  1
  O  O279  1  0.88482268  0.01702747  0.24693485  1
  O  O280  1  0.88557717  0.00693224  0.76273607  1
  O  O281  1  0.86773507  0.50836227  0.25346765  1
  O  O282  1  0.86470717  0.50520799  0.75488710  1
  O  O283  1  0.11473756  0.36793700  0.37107860  1
  O  O284  1  0.12023839  0.36550602  0.86915944  1
  O  O285  1  0.12056219  0.87143324  0.36903715  1
  O  O286  1  0.12768119  0.86959124  0.86386220  1
  O  O287  1  0.60177489  0.36417185  0.38407556  1
  O  O288  1  0.61741855  0.36587321  0.87409540  1
  O  O289  1  0.61895771  0.85652511  0.38208631  1
  O  O290  1  0.61724435  0.86711820  0.87015310  1
  O  O291  1  0.37797817  0.13459297  0.12574507  1
  O  O292  1  0.38203355  0.13647987  0.63400030  1
  O  O293  1  0.37872716  0.63471596  0.13083641  1
  O  O294  1  0.38246083  0.62994130  0.63605404  1
  O  O295  1  0.88126716  0.13361380  0.13461514  1
  O  O296  1  0.88626080  0.13601469  0.63569242  1
  O  O297  1  0.88056846  0.63046510  0.13281010  1
  O  O298  1  0.88201723  0.63187905  0.63029149  1
  O  O299  1  0.25515327  0.25450329  0.11497622  1
  O  O300  1  0.25781790  0.25175651  0.61699820  1
  O  O301  1  0.26386744  0.75347532  0.12376024  1
  O  O302  1  0.25160286  0.75799454  0.61635063  1
  O  O303  1  0.76166387  0.26495493  0.13027082  1
  O  O304  1  0.75766221  0.25584370  0.61807937  1
  O  O305  1  0.76313682  0.74234528  0.11509765  1
  O  O306  1  0.76312748  0.74465450  0.62421322  1
  O  O307  1  0.23753121  0.25517175  0.38130935  1
  O  O308  1  0.24363826  0.25410641  0.88479694  1
  O  O309  1  0.24403533  0.75492581  0.38946720  1
  O  O310  1  0.23483828  0.75216723  0.87836216  1
  O  O311  1  0.74843483  0.24916458  0.38942481  1
  O  O312  1  0.73338616  0.25294330  0.87158960  1
  O  O313  1  0.73530562  0.74812306  0.37343098  1
  O  O314  1  0.74401977  0.74328314  0.88274149  1
  O  O315  1  0.00628460  0.13049537  0.01381876  1
  O  O316  1  0.00790667  0.11819024  0.50618482  1
  O  O317  1  0.00504570  0.61483062  0.00623862  1
  O  O318  1  0.00590492  0.62276476  0.50759142  1
  O  O319  1  0.49537938  0.11786034  0.01107034  1
  O  O320  1  0.49784961  0.13450876  0.51710588  1
  O  O321  1  0.50890903  0.61701789  0.00301178  1
  O  O322  1  0.50613682  0.61370593  0.50614950  1
  O  O323  1  0.49835442  0.38971780  0.49916683  1
  O  O324  1  0.49321554  0.38103121  0.99533874  1
  O  O325  1  0.48867487  0.87559944  0.50864708  1
  O  O326  1  0.49107160  0.88426397  0.99241944  1
  O  O327  1  0.99530454  0.38065357  0.49423328  1
  O  O328  1  0.99477159  0.38934944  0.99957565  1
  O  O329  1  1.00212316  0.88064336  0.48898824  1
  O  O330  1  0.99091312  0.86609096  0.99646921  1
  O  O331  1  0.49796092  0.48991106  0.38668938  1
  O  O332  1  0.49059873  0.49413799  0.88391148  1
  O  O333  1  0.48825041  1.01319972  0.37998644  1
  O  O334  1  0.48980565  0.99527767  0.88068793  1
  O  O335  1  1.00015083  0.49175826  0.38138244  1
  O  O336  1  0.99106705  0.50022062  0.88338767  1
  O  O337  1  0.99894287  0.99155334  0.37976661  1
  O  O338  1  0.99297051  0.99306417  0.87934638  1
  O  O339  1  0.01373476  0.00806834  0.12707916  1
  O  O340  1  0.00331555  0.00943285  0.61579443  1
  O  O341  1  0.00585903  0.50418262  0.11863233  1
  O  O342  1  -0.00091496  0.51261396  0.62071060  1
  O  O343  1  0.49634360  0.01422875  0.11494731  1
  O  O344  1  0.49484614  0.01887525  0.62868295  1
  O  O345  1  0.49478587  0.49934250  0.11164085  1
  O  O346  1  0.49959276  0.50577814  0.61456980  1
  O  O347  1  0.24545859  0.38159857  0.24469729  1
  O  O348  1  0.23986478  0.38714380  0.75144258  1
  O  O349  1  0.23845222  0.87464384  0.25118897  1
  O  O350  1  0.24314620  0.88247081  0.74398744  1
  O  O351  1  0.75060844  0.38648118  0.23915584  1
  O  O352  1  0.75063182  0.38310555  0.74154730  1
  O  O353  1  0.74425324  0.87175939  0.24025653  1
  O  O354  1  0.73433263  0.87247612  0.75438022  1
  O  O355  1  0.26409488  0.12642298  0.24182679  1
  O  O356  1  0.26240047  0.12142971  0.74570606  1
  O  O357  1  0.24792592  0.60734863  0.24906614  1
  O  O358  1  0.25830344  0.61337676  0.74786749  1
  O  O359  1  0.76598224  0.13361827  0.25235309  1
  O  O360  1  0.76441349  0.12849018  0.75671286  1
  O  O361  1  0.75644284  0.60972858  0.24300500  1
  O  O362  1  0.75473993  0.61887622  0.75509262  1
  O  O363  1  0.37594582  0.12180661  0.36424453  1
  O  O364  1  0.38039427  0.11763229  0.86546966  1
  O  O365  1  0.36798239  0.62878854  0.37220202  1
  O  O366  1  0.38193799  0.61667161  0.86938473  1
  O  O367  1  0.88550667  0.12753253  0.35780627  1
  O  O368  1  0.89286391  0.11117310  0.86166069  1
  O  O369  1  0.87977545  0.62614182  0.36047404  1
  O  O370  1  0.86956513  0.62105354  0.87038225  1
  O  O371  1  0.12847521  0.37783261  0.12821772  1
  O  O372  1  0.12749239  0.37655365  0.63484181  1
  O  O373  1  0.12522290  0.88035378  0.13172953  1
  O  O374  1  0.12863113  0.88150899  0.63572801  1
  O  O375  1  0.63810081  0.37073551  0.11985956  1
  O  O376  1  0.63697373  0.37741142  0.62787364  1
  O  O377  1  0.63462260  0.87680555  0.11441619  1
  O  O378  1  0.61884144  0.86417950  0.64305480  1
  O  O379  1  0.12523517  0.25532562  0.25678102  1
  O  O380  1  0.13086719  0.25886352  0.76079428  1
  O  O381  1  0.12521234  0.75628180  0.25549732  1
  O  O382  1  0.12084998  0.75568131  0.75609049  1
  O  O383  1  0.61138105  0.24708995  0.24663319  1
  O  O384  1  0.61346752  0.25249833  0.75522651  1
  O  O385  1  0.61488287  0.74380918  0.26312614  1
  O  O386  1  0.62715232  0.75560086  0.76348233  1
  O  O387  1  0.37960387  0.24501481  0.24015007  1
  O  O388  1  0.38268230  0.24432379  0.74807869  1
  O  O389  1  0.38410478  0.75236434  0.24620917  1
  O  O390  1  0.36829157  0.73817595  0.75331948  1
  O  O391  1  0.87853424  0.24489641  0.24332850  1
  O  O392  1  0.87396870  0.24591767  0.73977376  1
  O  O393  1  0.87534608  0.74341852  0.24114815  1
  O  O394  1  0.88160129  0.74834415  0.74507522  1
  O  O395  1  0.38287045  0.50292976  0.50437233  1
  O  O396  1  0.37944252  0.49635805  0.99415718  1
  O  O397  1  0.37069996  0.98923054  0.49724245  1
  O  O398  1  0.37791825  0.99573537  0.99381280  1
  O  O399  1  0.88042966  0.49435376  0.49577381  1
  O  O400  1  0.88135150  0.49589265  0.99933375  1
  O  O401  1  0.89232843  0.98739361  0.49760114  1
  O  O402  1  0.87804026  0.98358416  0.99140200  1
  O  O403  1  0.12999349  0.00854692  0.00645117  1
  O  O404  1  0.11839725  0.00575749  0.50230151  1
  O  O405  1  0.11899435  0.50450503  0.00217599  1
  O  O406  1  0.11912884  0.50832337  0.50323802  1
  O  O407  1  0.61501922  -0.00071750  -0.01360555  1
  O  O408  1  0.64039065  -0.00476480  0.50737800  1
  O  O409  1  0.61559075  0.51031677  -0.00763126  1
  O  O410  1  0.61860452  0.50875428  0.50042532  1
  O  O411  1  0.37109890  0.36154803  0.11748899  1
  O  O412  1  0.37325411  0.36001091  0.63414791  1
  O  O413  1  0.37688165  0.87107862  0.11757460  1
  O  O414  1  0.36920436  0.87657247  0.61817476  1
  O  O415  1  0.86966022  0.37144742  0.12207822  1
  O  O416  1  0.86727080  0.36985206  0.62186606  1
  O  O417  1  0.88272722  0.86623627  0.11099425  1
  O  O418  1  0.89259635  0.85965213  0.60873327  1
  O  O419  1  0.11869297  0.13315652  0.38264707  1
  O  O420  1  0.11885327  0.13003850  0.88515919  1
  O  O421  1  0.13080145  0.63219365  0.38269123  1
  O  O422  1  0.12166682  0.63141831  0.88582430  1
  O  O423  1  0.61753390  0.12829434  0.37340205  1
  O  O424  1  0.62661696  0.13753961  0.87034154  1
  O  O425  1  0.61938406  0.62932320  0.38810150  1
  O  O426  1  0.62805314  0.63237100  0.88197024  1
