# generated using pymatgen
data_V85Zn86O256
_symmetry_space_group_name_H-M   'P 1'
_cell_length_a   16.95886167
_cell_length_b   16.94765375
_cell_length_c   16.94844340
_cell_angle_alpha   89.97658673
_cell_angle_beta   90.09414481
_cell_angle_gamma   89.88520459
_symmetry_Int_Tables_number   1
_chemical_formula_structural   V85Zn86O256
_chemical_formula_sum   'V85 Zn86 O256'
_cell_volume   4871.18476561
_cell_formula_units_Z   1
loop_
 _symmetry_equiv_pos_site_id
 _symmetry_equiv_pos_as_xyz
  1  'x, y, z'
loop_
 _atom_site_type_symbol
 _atom_site_label
 _atom_site_symmetry_multiplicity
 _atom_site_fract_x
 _atom_site_fract_y
 _atom_site_fract_z
 _atom_site_occupancy
  V  V0  1  0.48810591  0.38088139  0.38330073  1
  V  V1  1  0.75036561  0.00196619  0.24906737  1
  V  V2  1  0.88155388  0.87661869  0.00567486  1
  V  V3  1  0.62289726  0.25138213  0.87746275  1
  V  V4  1  0.49864653  0.62376739  0.12827995  1
  V  V5  1  0.62578924  0.12324146  0.50023719  1
  V  V6  1  0.75328487  0.75138289  0.00452916  1
  V  V7  1  0.37385807  0.12430566  0.26258377  1
  V  V8  1  0.37208452  0.12308314  0.75190752  1
  V  V9  1  0.75046575  0.62152935  0.37811247  1
  V  V10  1  0.25506314  0.61055400  0.37453271  1
  V  V11  1  -0.00083661  0.26207429  0.25260290  1
  V  V12  1  0.12276171  0.49668849  0.62602229  1
  V  V13  1  0.87271312  0.49506186  0.36481044  1
  V  V14  1  0.87595694  -0.00034931  0.37375583  1
  V  V15  1  0.75645205  0.24818097  0.50603978  1
  V  V16  1  0.88047818  0.12988552  0.24430325  1
  V  V17  1  0.62906000  0.37950655  0.25413137  1
  V  V18  1  0.62896956  0.87257241  0.74994531  1
  V  V19  1  0.75586587  0.49998190  0.75870072  1
  V  V20  1  0.12772135  0.62513392  0.49927213  1
  V  V21  1  -0.00144680  0.74825834  0.74762143  1
  V  V22  1  0.00155313  0.87958443  0.87557953  1
  V  V23  1  0.37178507  0.61092527  0.25348442  1
  V  V24  1  0.12797927  0.37194703  0.76216229  1
  V  V25  1  0.37409944  0.25305259  0.62054922  1
  V  V26  1  0.75638989  0.37359728  0.62653692  1
  V  V27  1  0.75054234  0.12510772  0.87588773  1
  V  V28  1  0.75042352  0.12532166  0.37371112  1
  V  V29  1  0.23220978  0.24627916  -0.01099663  1
  V  V30  1  0.37919188  0.00415654  0.87319203  1
  V  V31  1  0.87137938  0.74496099  0.61726957  1
  V  V32  1  0.21616362  0.01753434  0.77056355  1
  V  V33  1  0.25004884  0.50122215  0.75077909  1
  V  V34  1  0.49910245  0.00094714  0.00493188  1
  V  V35  1  0.13103911  0.74991288  0.37438637  1
  V  V36  1  0.62388356  0.87675493  0.25218884  1
  V  V37  1  0.62058251  0.62625345  0.50273010  1
  V  V38  1  0.62333747  0.25272677  0.37609906  1
  V  V39  1  -0.00040198  0.62274563  0.62230539  1
  V  V40  1  -0.00007966  0.49544112  0.49212587  1
  V  V41  1  0.76116417  0.25043374  0.00916675  1
  V  V42  1  0.12085272  0.87586889  0.73142214  1
  V  V43  1  0.62703953  0.74516586  0.87715629  1
  V  V44  1  0.48406029  0.87779843  0.37728773  1
  V  V45  1  0.49934503  0.25284205  0.75024404  1
  V  V46  1  0.37484633  0.50533313  0.87364989  1
  V  V47  1  0.62571585  0.50274459  0.62338338  1
  V  V48  1  0.50071170  0.49932650  0.00294528  1
  V  V49  1  0.00456725  0.25107100  0.74987723  1
  V  V50  1  0.24960645  0.23982007  0.49572676  1
  V  V51  1  0.48480117  -0.00254290  0.49724658  1
  V  V52  1  0.62284915  0.12817470  0.00351689  1
  V  V53  1  0.87456901  0.63364329  0.24565811  1
  V  V54  1  0.00194896  0.87597793  0.37434556  1
  V  V55  1  0.87159220  0.87173957  0.49798367  1
  V  V56  1  0.26394289  0.88448231  0.62570306  1
  V  V57  1  0.37745949  0.63115862  0.73774014  1
  V  V58  1  0.26513837  0.75509037  0.50821790  1
  V  V59  1  0.63169003  0.49963030  0.13073554  1
  V  V60  1  0.75345774  0.87282242  0.12738618  1
  V  V61  1  0.49876800  0.74597958  0.73698202  1
  V  V62  1  0.12485112  0.00783042  0.11102885  1
  V  V63  1  0.62627608  -0.00112546  0.62369322  1
  V  V64  1  0.87688485  0.39218370  0.00134768  1
  V  V65  1  0.49916574  0.37766491  0.87072444  1
  V  V66  1  0.00528820  0.00126589  0.50767579  1
  V  V67  1  0.12790456  0.75243541  0.87647695  1
  V  V68  1  0.87480269  -0.00025855  0.87772978  1
  V  V69  1  0.37022486  0.24872369  0.12177848  1
  V  V70  1  0.88192047  0.37073423  0.49685426  1
  V  V71  1  0.63062855  0.75152242  0.37938597  1
  V  V72  1  0.74872076  0.86913019  0.62032674  1
  V  V73  1  0.50133118  0.12556312  0.62484438  1
  V  V74  1  0.12028085  0.50244985  0.13608277  1
  V  V75  1  0.50262398  0.87143581  0.87772478  1
  V  V76  1  0.25055062  0.37574412  0.61463580  1
  V  V77  1  0.12720240  0.87961770  0.24791443  1
  V  V78  1  0.49875685  0.75093692  0.25136094  1
  V  V79  1  0.87368311  0.13183046  0.74298637  1
  V  V80  1  0.37046914  0.75189248  0.12486398  1
  V  V81  1  0.24363853  0.38101987  0.13698039  1
  V  V82  1  0.12731781  0.25601694  0.36892710  1
  V  V83  1  0.24779179  0.00928080  0.26464207  1
  V  V84  1  0.00173734  0.12946916  0.11350419  1
  Zn  Zn85  1  0.75087009  -0.00143427  0.74988227  1
  Zn  Zn86  1  0.62380760  0.00127778  0.12697713  1
  Zn  Zn87  1  0.00551333  0.50809057  -0.01198010  1
  Zn  Zn88  1  0.75770339  0.61739834  0.88311608  1
  Zn  Zn89  1  0.36975312  0.37608215  0.00249377  1
  Zn  Zn90  1  0.62477027  0.37690941  0.74761683  1
  Zn  Zn91  1  0.49784599  0.25069396  0.25031065  1
  Zn  Zn92  1  -0.00694125  0.37807772  0.87438606  1
  Zn  Zn93  1  0.48705918  0.50275255  0.49909417  1
  Zn  Zn94  1  0.75497903  0.37295986  0.13399854  1
  Zn  Zn95  1  -0.00135501  0.63365203  0.11813799  1
  Zn  Zn96  1  0.25000360  0.88151360  0.11974600  1
  Zn  Zn97  1  0.00029634  0.75233309  0.24585935  1
  Zn  Zn98  1  0.49626105  0.12764196  0.12743953  1
  Zn  Zn99  1  0.25017426  0.62955518  0.87489097  1
  Zn  Zn100  1  0.62759113  0.62352452  0.00267461  1
  Zn  Zn101  1  0.12753130  0.12359357  0.49952934  1
  Zn  Zn102  1  0.88155673  0.61398527  0.75778378  1
  Zn  Zn103  1  0.25012500  0.75464285  -0.00157794  1
  Zn  Zn104  1  0.37232193  0.87695874  0.00130672  1
  Zn  Zn105  1  0.12756884  0.62306162  -0.00042478  1
  Zn  Zn106  1  0.00237590  0.12964823  0.62311006  1
  Zn  Zn107  1  0.18660223  0.18980422  0.18573905  1
  Zn  Zn108  1  0.18113792  0.18644435  0.68040763  1
  Zn  Zn109  1  0.18902675  0.68606615  0.18855720  1
  Zn  Zn110  1  0.19048361  0.68878465  0.68633174  1
  Zn  Zn111  1  0.68422293  0.18898728  0.18869081  1
  Zn  Zn112  1  0.68767172  0.18929682  0.68905518  1
  Zn  Zn113  1  0.68915422  0.68652901  0.19175154  1
  Zn  Zn114  1  0.68955432  0.68470098  0.68850885  1
  Zn  Zn115  1  0.31082753  0.31020229  0.31152748  1
  Zn  Zn116  1  0.31213092  0.31443673  0.81232227  1
  Zn  Zn117  1  0.30730658  0.80890859  0.30681366  1
  Zn  Zn118  1  0.31296809  0.81932335  0.80798294  1
  Zn  Zn119  1  0.81318713  0.31056451  0.31417058  1
  Zn  Zn120  1  0.81331358  0.31114395  0.81704294  1
  Zn  Zn121  1  0.80985255  0.81054758  0.31410799  1
  Zn  Zn122  1  0.81744334  0.80095000  0.81448536  1
  Zn  Zn123  1  0.18400761  0.43025603  0.43481294  1
  Zn  Zn124  1  0.18957873  0.43688427  0.94679443  1
  Zn  Zn125  1  0.19023418  0.93515108  0.44120561  1
  Zn  Zn126  1  0.18865085  0.94358193  0.93129366  1
  Zn  Zn127  1  0.69040661  0.43863248  0.43874056  1
  Zn  Zn128  1  0.68637650  0.43383484  0.94140083  1
  Zn  Zn129  1  0.68504394  0.93722295  0.43822258  1
  Zn  Zn130  1  0.68803316  0.93874126  0.93963816  1
  Zn  Zn131  1  0.30852098  0.06771695  0.06416843  1
  Zn  Zn132  1  0.30785111  0.06268101  0.57063947  1
  Zn  Zn133  1  0.30670315  0.56524575  0.06067456  1
  Zn  Zn134  1  0.31200145  0.56577582  0.55986048  1
  Zn  Zn135  1  0.81489995  0.06121367  0.06325658  1
  Zn  Zn136  1  0.81451811  0.05776690  0.56278253  1
  Zn  Zn137  1  0.80982042  0.56373465  0.06707480  1
  Zn  Zn138  1  0.81013354  0.56058522  0.55929279  1
  Zn  Zn139  1  0.44024058  0.43027447  0.19011830  1
  Zn  Zn140  1  0.42053186  0.45659300  0.65770018  1
  Zn  Zn141  1  0.43323683  0.93970107  0.19062724  1
  Zn  Zn142  1  0.44404488  0.93682785  0.68858421  1
  Zn  Zn143  1  0.93617393  0.44145841  0.17920493  1
  Zn  Zn144  1  0.93771611  0.43274518  0.68537349  1
  Zn  Zn145  1  0.94274736  0.94295511  0.18518863  1
  Zn  Zn146  1  0.93148327  0.93683133  0.68916622  1
  Zn  Zn147  1  0.06468131  0.06918744  0.31712387  1
  Zn  Zn148  1  0.05620104  0.06115028  0.81053096  1
  Zn  Zn149  1  0.06109387  0.56222027  0.31207143  1
  Zn  Zn150  1  0.06206030  0.56068873  0.81618258  1
  Zn  Zn151  1  0.55836325  0.06197336  0.31446577  1
  Zn  Zn152  1  0.56292392  0.06235099  0.81277595  1
  Zn  Zn153  1  0.55879893  0.56089239  0.31575713  1
  Zn  Zn154  1  0.56579858  0.56426820  0.80883260  1
  Zn  Zn155  1  0.43873004  0.19102925  0.44072592  1
  Zn  Zn156  1  0.43200007  0.18853872  0.93920809  1
  Zn  Zn157  1  0.43967882  0.68747233  0.43556096  1
  Zn  Zn158  1  0.43807982  0.68562537  0.93871453  1
  Zn  Zn159  1  0.94084022  0.18735678  0.43061652  1
  Zn  Zn160  1  0.94044982  0.19241982  0.93037757  1
  Zn  Zn161  1  0.94077155  0.68583274  0.43279735  1
  Zn  Zn162  1  0.93727820  0.68712886  0.93726392  1
  Zn  Zn163  1  0.06228541  0.31481220  0.06541025  1
  Zn  Zn164  1  0.06426256  0.30639223  0.56724311  1
  Zn  Zn165  1  0.06160796  0.81299031  0.06465060  1
  Zn  Zn166  1  0.06100297  0.80922346  0.55607633  1
  Zn  Zn167  1  0.55890800  0.31419689  0.06552645  1
  Zn  Zn168  1  0.56583245  0.31524706  0.56229192  1
  Zn  Zn169  1  0.56383491  0.81260100  0.06551246  1
  Zn  Zn170  1  0.56063782  0.81367460  0.55704319  1
  O  O171  1  0.11506070  0.11652876  0.12840644  1
  O  O172  1  0.11605852  0.12736493  0.61306239  1
  O  O173  1  0.12969141  0.61223852  0.12514306  1
  O  O174  1  0.12094038  0.61762232  0.61864744  1
  O  O175  1  0.62055990  0.12400812  0.11465130  1
  O  O176  1  0.62033901  0.12029092  0.62099592  1
  O  O177  1  0.61716073  0.61743780  0.12876120  1
  O  O178  1  0.63540310  0.61741288  0.61326573  1
  O  O179  1  0.39021205  0.36698243  0.37291939  1
  O  O180  1  0.38574127  0.38753768  0.87303410  1
  O  O181  1  0.38561089  0.86982323  0.36646056  1
  O  O182  1  0.39363492  0.87798179  0.87477463  1
  O  O183  1  0.86881298  0.38363950  0.38438674  1
  O  O184  1  0.87092286  0.36766766  0.89768232  1
  O  O185  1  0.87974012  0.87794572  0.37889302  1
  O  O186  1  0.88087917  0.88010955  0.87966790  1
  O  O187  1  0.24682988  -0.00070962  0.36341730  1
  O  O188  1  0.27859251  -0.02603443  0.85741198  1
  O  O189  1  0.24806673  0.51165512  0.38729934  1
  O  O190  1  0.26091632  0.49877467  0.86898980  1
  O  O191  1  0.75543782  0.00558809  0.36984314  1
  O  O192  1  0.75487769  0.00721773  0.87287637  1
  O  O193  1  0.76047237  0.50810235  0.37742137  1
  O  O194  1  0.74524673  0.49763697  0.86252560  1
  O  O195  1  0.24356807  0.48779020  0.12165822  1
  O  O196  1  0.24125789  0.49250468  0.63092696  1
  O  O197  1  0.23623542  1.00388967  0.13301819  1
  O  O198  1  0.24984336  0.98819208  0.63577331  1
  O  O199  1  0.73459076  0.49703133  0.12395529  1
  O  O200  1  0.74515984  0.49169867  0.63138320  1
  O  O201  1  0.74790494  0.99096672  0.13088685  1
  O  O202  1  0.74373799  0.99002649  0.62757273  1
  O  O203  1  -0.00810703  0.35960755  0.24040022  1
  O  O204  1  0.00896655  0.36683485  0.74780745  1
  O  O205  1  0.01262044  0.87980994  0.25698317  1
  O  O206  1  0.00380895  0.86884171  0.75225294  1
  O  O207  1  0.51048748  0.37160545  0.26474997  1
  O  O208  1  0.50200400  0.36914121  0.75898615  1
  O  O209  1  0.50611463  0.87343668  0.25672865  1
  O  O210  1  0.50939636  0.86730850  0.75886085  1
  O  O211  1  0.48651664  0.12450855  0.24875436  1
  O  O212  1  0.49648010  0.13342437  0.74424915  1
  O  O213  1  0.49272765  0.63219184  0.24866651  1
  O  O214  1  0.49282396  0.63484106  0.75344707  1
  O  O215  1  0.99139603  0.13051805  0.24549987  1
  O  O216  1  0.99273195  0.13471727  0.75202303  1
  O  O217  1  0.98388933  0.62813017  0.25637775  1
  O  O218  1  0.99916044  0.63275074  0.74082215  1
  O  O219  1  0.37559625  0.25399465  0.01348947  1
  O  O220  1  0.36728884  0.24759389  0.51090826  1
  O  O221  1  0.37973514  0.75117405  0.01403572  1
  O  O222  1  0.36370161  0.74790243  0.49766363  1
  O  O223  1  0.86085873  0.24506858  0.00094604  1
  O  O224  1  0.86699055  0.25673458  0.49074621  1
  O  O225  1  0.86024622  0.76354998  -0.00275189  1
  O  O226  1  0.88294129  0.75565668  0.50905564  1
  O  O227  1  0.13398552  0.25167414  0.49290704  1
  O  O228  1  0.13191027  0.25464045  0.99739543  1
  O  O229  1  0.13136765  0.74357045  0.49165590  1
  O  O230  1  0.12483619  0.75738069  0.98362548  1
  O  O231  1  0.63356099  0.24335094  0.49471160  1
  O  O232  1  0.62767562  0.24429713  0.99645998  1
  O  O233  1  0.62123592  0.74239026  0.48949728  1
  O  O234  1  0.63454826  0.75022047  0.99566742  1
  O  O235  1  0.48789370  0.25073644  0.13021654  1
  O  O236  1  0.49349464  0.24781072  0.62865740  1
  O  O237  1  0.49595555  0.74395811  0.13250352  1
  O  O238  1  0.50535218  0.75578137  0.63829596  1
  O  O239  1  1.00944120  0.23642548  0.13828135  1
  O  O240  1  0.99563123  0.24999992  0.64187263  1
  O  O241  1  1.00780918  0.74644889  0.13379158  1
  O  O242  1  0.99504706  0.74301929  0.62782513  1
  O  O243  1  0.00523957  0.25166892  0.35994110  1
  O  O244  1  -0.00203239  0.25824336  0.85824796  1
  O  O245  1  0.01416781  0.75728990  0.37308571  1
  O  O246  1  0.00512091  0.76231023  0.86348356  1
  O  O247  1  0.51195174  0.25764135  0.37813388  1
  O  O248  1  0.50171947  0.25880852  0.87252027  1
  O  O249  1  0.50884527  0.75851488  0.36967744  1
  O  O250  1  0.51243483  0.75598676  0.87679263  1
  O  O251  1  0.25150014  0.13656100  0.50279732  1
  O  O252  1  0.25171108  0.14728624  1.00638502  1
  O  O253  1  0.24558862  0.63453194  0.49659080  1
  O  O254  1  0.24710098  0.63538985  0.99282710  1
  O  O255  1  0.74851212  0.13081143  0.49609970  1
  O  O256  1  0.74335429  0.13325666  0.99874000  1
  O  O257  1  0.74147023  0.62290360  0.48640554  1
  O  O258  1  0.74837422  0.63638810  1.00179505  1
  O  O259  1  0.25298430  0.36386461  0.01150910  1
  O  O260  1  0.24827234  0.36721103  0.51174077  1
  O  O261  1  0.25434632  0.87453460  0.00062787  1
  O  O262  1  0.24878557  0.87176332  0.51662491  1
  O  O263  1  0.75657848  0.36378236  0.00333498  1
  O  O264  1  0.75851195  0.36658270  0.50595706  1
  O  O265  1  0.75547522  0.87266415  0.00990844  1
  O  O266  1  0.75455790  0.87726760  0.51180100  1
  O  O267  1  0.12188456  0.50161839  0.23653810  1
  O  O268  1  0.13067128  0.49341064  0.74305584  1
  O  O269  1  0.13440031  0.99934567  0.24988819  1
  O  O270  1  0.11673040  0.98782921  0.73256498  1
  O  O271  1  0.61840117  0.49119831  0.24388931  1
  O  O272  1  0.63892519  0.49799006  0.74342084  1
  O  O273  1  0.63235211  0.99570640  0.25077176  1
  O  O274  1  0.62561169  0.99185651  0.74270966  1
  O  O275  1  0.36094298  0.01354175  0.24589640  1
  O  O276  1  0.39055365  0.01511778  0.75603973  1
  O  O277  1  0.38177508  0.51244286  0.24585723  1
  O  O278  1  0.37082298  0.50934203  0.75345731  1
  O  O279  1  0.87048733  0.00762420  0.25553005  1
  O  O280  1  0.87221784  0.00589881  0.76203880  1
  O  O281  1  0.88113813  0.50650567  0.26156768  1
  O  O282  1  0.86052258  0.49718886  0.74450444  1
  O  O283  1  0.11777936  0.35726032  0.37905714  1
  O  O284  1  0.12841253  0.38002026  0.86294497  1
  O  O285  1  0.12314717  0.86915226  0.36930378  1
  O  O286  1  0.11670945  0.87174794  0.86166995  1
  O  O287  1  0.62313708  0.36834677  0.37248003  1
  O  O288  1  0.61354249  0.37078904  0.87526887  1
  O  O289  1  0.62297704  0.86747692  0.36907771  1
  O  O290  1  0.61738558  0.87141030  0.87177839  1
  O  O291  1  0.37492917  0.13393679  0.13386689  1
  O  O292  1  0.38153713  0.13387246  0.63292390  1
  O  O293  1  0.37960624  0.63106504  0.13201658  1
  O  O294  1  0.36831333  0.63381573  0.63912282  1
  O  O295  1  0.88889804  0.11707687  0.13357589  1
  O  O296  1  0.87623706  0.11666331  0.64068359  1
  O  O297  1  0.87383964  0.61992277  0.14326223  1
  O  O298  1  0.87946402  0.63122048  0.62380558  1
  O  O299  1  0.25265990  0.26108849  0.12228669  1
  O  O300  1  0.25586800  0.25554103  0.61770124  1
  O  O301  1  0.25914957  0.75549109  0.12580530  1
  O  O302  1  0.24574668  0.76372884  0.61772877  1
  O  O303  1  0.74343568  0.25102223  0.11174572  1
  O  O304  1  0.74645956  0.25587134  0.61337143  1
  O  O305  1  0.74548222  0.76386739  0.12019021  1
  O  O306  1  0.76053958  0.75544473  0.62822590  1
  O  O307  1  0.23863904  0.25506011  0.38182795  1
  O  O308  1  0.25542745  0.25632911  0.89035950  1
  O  O309  1  0.24149400  0.74965609  0.38479655  1
  O  O310  1  0.23963097  0.75494384  0.86931877  1
  O  O311  1  0.74054824  0.24501328  0.38468141  1
  O  O312  1  0.74176583  0.24399926  0.88665061  1
  O  O313  1  0.73695322  0.74342614  0.37290782  1
  O  O314  1  0.73517831  0.76064345  0.88517651  1
  O  O315  1  -0.00613142  0.13339791  0.01472990  1
  O  O316  1  -0.01094541  0.10857649  0.50051887  1
  O  O317  1  0.00551234  0.62649821  0.00067279  1
  O  O318  1  0.00696262  0.61593307  0.50290870  1
  O  O319  1  0.50710715  0.11830302  0.00028315  1
  O  O320  1  0.50637279  0.11948781  0.50604588  1
  O  O321  1  0.50282934  0.61282587  0.00653028  1
  O  O322  1  0.51509646  0.62062241  0.49182414  1
  O  O323  1  0.50586135  0.37613106  0.48646377  1
  O  O324  1  0.49684147  0.38632714  0.99311648  1
  O  O325  1  0.50161280  0.88503549  0.48992890  1
  O  O326  1  0.50145960  0.88393056  0.99431431  1
  O  O327  1  0.98873105  0.37989181  0.50857442  1
  O  O328  1  0.98372015  0.37507343  1.00318259  1
  O  O329  1  0.99366327  0.88335428  0.49325246  1
  O  O330  1  0.98913758  0.87143234  0.99030241  1
  O  O331  1  0.50058719  0.48570945  0.38023369  1
  O  O332  1  0.49806608  0.49526614  0.88043108  1
  O  O333  1  0.50374449  0.98981114  0.38543316  1
  O  O334  1  0.49675468  0.99325921  0.88409796  1
  O  O335  1  0.99313614  0.50260605  0.38724077  1
  O  O336  1  0.99849117  0.49239229  0.87437492  1
  O  O337  1  0.99290499  0.99466757  0.38085596  1
  O  O338  1  0.99020593  0.98697005  0.87134526  1
  O  O339  1  0.01453096  0.01471972  0.12918963  1
  O  O340  1  -0.00947906  -0.00410847  0.60871967  1
  O  O341  1  0.01229729  0.50657540  0.12136668  1
  O  O342  1  0.00317884  0.50363030  0.61577642  1
  O  O343  1  0.49987972  0.00079674  0.11403990  1
  O  O344  1  0.50849474  0.00361596  0.61787715  1
  O  O345  1  0.50546743  0.50203920  0.11833078  1
  O  O346  1  0.52487125  0.49517237  0.63121357  1
  O  O347  1  0.25078335  0.37296068  0.23593417  1
  O  O348  1  0.24365363  0.38041356  0.74301153  1
  O  O349  1  0.24079412  0.88847771  0.24763091  1
  O  O350  1  0.23696053  0.88201450  0.73987682  1
  O  O351  1  0.73495889  0.36697507  0.25114302  1
  O  O352  1  0.75035940  0.38082368  0.74360360  1
  O  O353  1  0.74639019  0.87984869  0.24425983  1
  O  O354  1  0.74609139  0.87206474  0.73951259  1
  O  O355  1  0.25680572  0.11676033  0.25033174  1
  O  O356  1  0.25830513  0.11464035  0.74107740  1
  O  O357  1  0.25994403  0.62987757  0.26341252  1
  O  O358  1  0.25697382  0.61891325  0.75326471  1
  O  O359  1  0.75808994  0.12299885  0.25237314  1
  O  O360  1  0.75690824  0.12620733  0.75790037  1
  O  O361  1  0.76265433  0.62939875  0.26262690  1
  O  O362  1  0.75250339  0.60787104  0.74995341  1
  O  O363  1  0.37827578  0.13160291  0.36153529  1
  O  O364  1  0.37981367  0.11531402  0.86680833  1
  O  O365  1  0.36705041  0.62862416  0.36671554  1
  O  O366  1  0.37767608  0.61391026  0.86915346  1
  O  O367  1  0.86833249  0.11977325  0.36507018  1
  O  O368  1  0.87059423  0.11703721  0.86980090  1
  O  O369  1  0.86808924  0.61765800  0.37184265  1
  O  O370  1  0.86178220  0.65837236  0.86087692  1
  O  O371  1  0.13467863  0.38679343  0.12446036  1
  O  O372  1  0.13385129  0.37892243  0.63201559  1
  O  O373  1  0.12375639  0.89115353  0.13325341  1
  O  O374  1  0.12728783  0.86760415  0.63005473  1
  O  O375  1  0.62292883  0.38222221  0.13634137  1
  O  O376  1  0.64020252  0.38076169  0.62416283  1
  O  O377  1  0.63289703  0.87841205  0.13472954  1
  O  O378  1  0.63239566  0.87714008  0.62745471  1
  O  O379  1  0.11488965  0.24661267  0.26004408  1
  O  O380  1  0.11573819  0.25723975  0.74843403  1
  O  O381  1  0.13097677  0.76258972  0.25841195  1
  O  O382  1  0.11339480  0.75634726  0.75152269  1
  O  O383  1  0.62100766  0.25378256  0.26123554  1
  O  O384  1  0.61795331  0.25231808  0.75855938  1
  O  O385  1  0.61840362  0.75612032  0.25751988  1
  O  O386  1  0.62084524  0.75239552  0.75893265  1
  O  O387  1  0.37255856  0.23801323  0.24274515  1
  O  O388  1  0.37864523  0.23804297  0.74735388  1
  O  O389  1  0.38067771  0.74503320  0.23991411  1
  O  O390  1  0.38821652  0.74277689  0.76093609  1
  O  O391  1  0.88556667  0.24094253  0.25448993  1
  O  O392  1  0.88177788  0.24087751  0.75448226  1
  O  O393  1  0.87760737  0.73716106  0.25789187  1
  O  O394  1  0.88893704  0.75577701  0.73330905  1
  O  O395  1  0.38749598  0.48742802  0.54887518  1
  O  O396  1  0.38230410  0.49965822  0.99098190  1
  O  O397  1  0.38635362  1.00670662  0.50692901  1
  O  O398  1  0.38300068  1.00282707  0.99229321  1
  O  O399  1  0.88186588  0.49224091  0.49225950  1
  O  O400  1  0.87238101  0.49437186  0.99924971  1
  O  O401  1  0.87946754  0.99060466  0.49169981  1
  O  O402  1  0.86838896  0.99141878  0.98651350  1
  O  O403  1  0.12662533  -0.00038572  0.01311485  1
  O  O404  1  0.10773346  -0.00098046  0.49311515  1
  O  O405  1  0.12420064  0.50278647  0.01155396  1
  O  O406  1  0.11661069  0.50149066  0.50479989  1
  O  O407  1  0.61710995  0.00986149  0.00092065  1
  O  O408  1  0.62122281  0.00718178  0.50651496  1
  O  O409  1  0.61739508  0.49987245  0.00950490  1
  O  O410  1  0.62745769  0.50820175  0.50783287  1
  O  O411  1  0.36539747  0.36789212  0.12705661  1
  O  O412  1  0.36261120  0.35681408  0.64321920  1
  O  O413  1  0.37400497  0.86652954  0.12502585  1
  O  O414  1  0.36240458  0.87631636  0.63629629  1
  O  O415  1  0.86826302  0.37896173  0.10974914  1
  O  O416  1  0.86289863  0.37811765  0.61396635  1
  O  O417  1  0.86905540  0.88416001  0.11596851  1
  O  O418  1  0.86685698  0.86794278  0.61819446  1
  O  O419  1  0.11577176  0.14510015  0.38509585  1
  O  O420  1  0.15919088  0.05286193  0.85545950  1
  O  O421  1  0.13292892  0.63207440  0.37821466  1
  O  O422  1  0.12654532  0.64116720  0.86963679  1
  O  O423  1  0.63003423  0.13232382  0.37972620  1
  O  O424  1  0.62893581  0.12903578  0.88597456  1
  O  O425  1  0.63170703  0.63108253  0.37744891  1
  O  O426  1  0.63131338  0.63366248  0.87882046  1
