# generated using pymatgen
data_V85Zn86O256
_symmetry_space_group_name_H-M   'P 1'
_cell_length_a   16.96455451
_cell_length_b   16.96706984
_cell_length_c   16.95466308
_cell_angle_alpha   89.85078241
_cell_angle_beta   89.99629803
_cell_angle_gamma   89.91489353
_symmetry_Int_Tables_number   1
_chemical_formula_structural   V85Zn86O256
_chemical_formula_sum   'V85 Zn86 O256'
_cell_volume   4880.18761448
_cell_formula_units_Z   1
loop_
 _symmetry_equiv_pos_site_id
 _symmetry_equiv_pos_as_xyz
  1  'x, y, z'
loop_
 _atom_site_type_symbol
 _atom_site_label
 _atom_site_symmetry_multiplicity
 _atom_site_fract_x
 _atom_site_fract_y
 _atom_site_fract_z
 _atom_site_occupancy
  V  V0  1  0.51618325  0.86576816  0.87336507  1
  V  V1  1  0.62225135  0.62638847  0.50599507  1
  V  V2  1  0.87481504  0.12134321  0.74967675  1
  V  V3  1  0.00395984  0.50837891  -0.00221698  1
  V  V4  1  0.75189184  0.12754360  0.37202071  1
  V  V5  1  0.62080438  0.49705429  0.62070976  1
  V  V6  1  0.73988538  0.52262022  0.76036814  1
  V  V7  1  0.25698215  0.62839038  0.37493675  1
  V  V8  1  0.24319477  0.87963406  0.12460997  1
  V  V9  1  0.51271046  0.74532869  0.74712476  1
  V  V10  1  0.75885253  0.62924959  0.36453943  1
  V  V11  1  0.85965840  0.65098835  0.78157656  1
  V  V12  1  0.11673008  0.87878536  0.25270291  1
  V  V13  1  0.67473856  0.46607919  0.19914547  1
  V  V14  1  0.37465536  0.12969277  0.74586888  1
  V  V15  1  0.37003808  0.73937992  0.13741663  1
  V  V16  1  0.13146056  0.62992848  0.50063351  1
  V  V17  1  0.87552829  -0.00204487  0.87515464  1
  V  V18  1  0.24589254  0.74208411  0.00230568  1
  V  V19  1  0.50136432  0.87983902  0.37913711  1
  V  V20  1  0.74980877  0.37561794  0.62729895  1
  V  V21  1  0.49374795  0.26137514  0.24380615  1
  V  V22  1  0.74060500  0.13130878  0.87572032  1
  V  V23  1  0.49497884  0.12779128  0.61931059  1
  V  V24  1  0.25788086  0.24992873  0.00496203  1
  V  V25  1  0.00618201  0.75248478  0.74860183  1
  V  V26  1  0.25483781  0.25090918  0.50818371  1
  V  V27  1  0.49618441  0.12361598  0.12411550  1
  V  V28  1  0.74843836  0.25010048  0.49766850  1
  V  V29  1  -0.00295498  0.62656864  0.62666773  1
  V  V30  1  0.50303271  0.24741619  0.75331267  1
  V  V31  1  0.25112777  -0.00248470  0.74864430  1
  V  V32  1  0.12536301  0.75593454  0.37920718  1
  V  V33  1  0.86954363  0.49080983  0.87893595  1
  V  V34  1  0.61651540  -0.00240424  0.62389766  1
  V  V35  1  0.38154962  0.37910815  -0.00089801  1
  V  V36  1  0.61913771  0.25387311  0.37289287  1
  V  V37  1  0.26060490  0.50649197  0.24882356  1
  V  V38  1  0.87577130  0.00285006  0.36746161  1
  V  V39  1  0.12060433  0.74381497  0.88122359  1
  V  V40  1  0.52104668  0.50890883  -0.00345950  1
  V  V41  1  0.12259352  0.25179194  0.37527917  1
  V  V42  1  0.25096651  0.86723019  0.62214696  1
  V  V43  1  -0.00074757  0.12356659  0.13440977  1
  V  V44  1  0.62857563  0.36461037  0.75717391  1
  V  V45  1  0.12390058  0.37628954  0.74989753  1
  V  V46  1  0.74775238  -0.00094434  0.24162983  1
  V  V47  1  0.12688199  0.12079859  0.00722328  1
  V  V48  1  0.00121458  0.87299345  0.87858328  1
  V  V49  1  0.00130783  0.50029479  0.50447521  1
  V  V50  1  0.87502446  0.87590145  0.49259899  1
  V  V51  1  0.12448538  -0.00187566  0.62482613  1
  V  V52  1  0.74295953  -0.00354434  0.74958339  1
  V  V53  1  0.12728228  0.24671471  0.87462893  1
  V  V54  1  0.00104891  0.24853915  0.74961549  1
  V  V55  1  0.86901195  0.74204271  0.13243282  1
  V  V56  1  0.37361598  0.86878811  0.50043567  1
  V  V57  1  -0.04664153  0.30830544  0.19819408  1
  V  V58  1  0.00192755  0.37523593  0.37923195  1
  V  V59  1  0.87578374  0.25009338  0.62296251  1
  V  V60  1  0.37712839  -0.00501182  0.87516417  1
  V  V61  1  0.25035952  0.62158518  0.87757308  1
  V  V62  1  -0.00082515  -0.00312654  0.49483501  1
  V  V63  1  0.24581522  0.00137031  0.24651961  1
  V  V64  1  -0.00168046  0.12158593  0.62425307  1
  V  V65  1  0.37679312  0.00121285  0.38123873  1
  V  V66  1  0.00552479  -0.00315949  0.00654373  1
  V  V67  1  0.49586939  0.74559265  0.25333109  1
  V  V68  1  0.74542285  0.87471299  0.62489967  1
  V  V69  1  0.24822712  0.12727430  0.37507342  1
  V  V70  1  0.12511767  0.49950767  0.62825183  1
  V  V71  1  0.87734223  0.50766788  0.36890359  1
  V  V72  1  0.00072203  0.73898972  0.25313282  1
  V  V73  1  0.61940000  0.11919324  0.49668509  1
  V  V74  1  0.86006164  0.87177590  0.01064195  1
  V  V75  1  0.62379864  0.87349079  0.24118164  1
  V  V76  1  0.25734236  0.37405908  0.12596066  1
  V  V77  1  0.13096934  0.37578552  0.24792606  1
  V  V78  1  0.25530452  0.49986792  0.75145631  1
  V  V79  1  0.25153849  0.12273116  0.87629302  1
  V  V80  1  0.87189059  0.37888039  0.49702104  1
  V  V81  1  0.37622485  0.87074514  0.00138461  1
  V  V82  1  0.37272350  0.12934324  0.24562307  1
  V  V83  1  0.49448840  0.50239729  0.50143312  1
  V  V84  1  0.74948545  0.74838300  0.50253641  1
  Zn  Zn85  1  0.62663097  -0.00033880  0.11968176  1
  Zn  Zn86  1  0.00715037  0.63429883  0.11081411  1
  Zn  Zn87  1  0.50102772  -0.00176031  0.00302599  1
  Zn  Zn88  1  0.38048732  0.74451096  0.62702043  1
  Zn  Zn89  1  0.49761634  0.38085476  0.37340353  1
  Zn  Zn90  1  0.87579345  0.75109508  0.62207877  1
  Zn  Zn91  1  0.37664634  0.50076603  0.37354519  1
  Zn  Zn92  1  0.54834810  0.61193278  0.13371751  1
  Zn  Zn93  1  0.38442238  0.62538711  0.74671283  1
  Zn  Zn94  1  0.00133339  0.37114036  0.87898567  1
  Zn  Zn95  1  0.62653914  0.75301606  0.37487669  1
  Zn  Zn96  1  0.83231220  0.17793154  0.20125285  1
  Zn  Zn97  1  0.25877093  0.37070869  0.62912471  1
  Zn  Zn98  1  0.75140688  0.24778886  0.01557913  1
  Zn  Zn99  1  0.12366946  0.12521004  0.49959139  1
  Zn  Zn100  1  0.12779536  0.87516407  0.75203535  1
  Zn  Zn101  1  0.12814855  0.50843703  0.11870128  1
  Zn  Zn102  1  0.50614220  0.36789739  0.87981072  1
  Zn  Zn103  1  0.38215888  0.36832307  0.50542745  1
  Zn  Zn104  1  0.38465638  0.50051559  0.87427978  1
  Zn  Zn105  1  0.61608571  0.13394932  -0.00335314  1
  Zn  Zn106  1  0.88038105  0.36144690  0.00612713  1
  Zn  Zn107  1  0.18525585  0.19186415  0.18697829  1
  Zn  Zn108  1  0.18543574  0.18293195  0.68695365  1
  Zn  Zn109  1  0.18207983  0.68592531  0.18936280  1
  Zn  Zn110  1  0.19033952  0.68445302  0.68898485  1
  Zn  Zn111  1  0.66988992  0.19158082  0.18666007  1
  Zn  Zn112  1  0.68727592  0.18300195  0.68461495  1
  Zn  Zn113  1  0.69710629  0.67305094  0.10621699  1
  Zn  Zn114  1  0.68365681  0.68288243  0.69844807  1
  Zn  Zn115  1  0.31591929  0.31641636  0.32027123  1
  Zn  Zn116  1  0.31511900  0.31212471  0.81448647  1
  Zn  Zn117  1  0.30706957  0.81416073  0.31559932  1
  Zn  Zn118  1  0.31586101  0.80800081  0.81101184  1
  Zn  Zn119  1  0.76771117  0.35703195  0.14054125  1
  Zn  Zn120  1  0.81403835  0.31014277  0.81177963  1
  Zn  Zn121  1  0.81037343  0.81323122  0.30761050  1
  Zn  Zn122  1  0.81566153  0.82139282  0.81035690  1
  Zn  Zn123  1  0.19166889  0.43938572  0.43863865  1
  Zn  Zn124  1  0.18621492  0.43582187  0.93722868  1
  Zn  Zn125  1  0.18972049  0.93797574  0.43759654  1
  Zn  Zn126  1  0.18759062  0.93331288  0.93766120  1
  Zn  Zn127  1  0.67318498  0.45504648  0.39520352  1
  Zn  Zn128  1  0.69196806  0.41487508  0.94193847  1
  Zn  Zn129  1  0.68714166  0.93896737  0.43440228  1
  Zn  Zn130  1  0.68528360  0.94749579  0.94168562  1
  Zn  Zn131  1  0.31564517  0.05996198  0.06396821  1
  Zn  Zn132  1  0.31130493  0.06078086  0.56056625  1
  Zn  Zn133  1  0.31594288  0.55990398  0.06127054  1
  Zn  Zn134  1  0.31187564  0.56541173  0.56858144  1
  Zn  Zn135  1  0.81657823  0.06274447  0.05759119  1
  Zn  Zn136  1  0.81000478  0.06117933  0.56044770  1
  Zn  Zn137  1  0.74997446  0.53472187  0.04411296  1
  Zn  Zn138  1  0.80932010  0.56206780  0.56722876  1
  Zn  Zn139  1  0.44126764  0.44493591  0.17736295  1
  Zn  Zn140  1  0.43709951  0.43224983  0.68477094  1
  Zn  Zn141  1  0.43339844  0.93638839  0.19019754  1
  Zn  Zn142  1  0.43935697  0.93257287  0.69082384  1
  Zn  Zn143  1  0.88868062  0.49656857  0.15751364  1
  Zn  Zn144  1  0.93148189  0.44225672  0.69633683  1
  Zn  Zn145  1  0.93765712  0.93933304  0.18566478  1
  Zn  Zn146  1  0.93480941  0.93393544  0.68513480  1
  Zn  Zn147  1  0.06414943  0.06109754  0.31541323  1
  Zn  Zn148  1  0.06324596  0.06043656  0.81516289  1
  Zn  Zn149  1  0.06857707  0.56005692  0.31357741  1
  Zn  Zn150  1  0.05611968  0.56564009  0.81721047  1
  Zn  Zn151  1  0.56032705  0.06296387  0.30864373  1
  Zn  Zn152  1  0.56029792  0.05638351  0.81066389  1
  Zn  Zn153  1  0.56124615  0.57532480  0.32126480  1
  Zn  Zn154  1  0.56720661  0.55640826  0.81093599  1
  Zn  Zn155  1  0.43663509  0.18608935  0.43381558  1
  Zn  Zn156  1  0.43587651  0.18828101  0.93570977  1
  Zn  Zn157  1  0.43851656  0.68913798  0.44179426  1
  Zn  Zn158  1  0.43533896  0.68809849  0.93503205  1
  Zn  Zn159  1  0.93660908  0.18716002  0.43343435  1
  Zn  Zn160  1  0.93666107  0.18544013  0.94002312  1
  Zn  Zn161  1  0.94365305  0.69094534  0.43882644  1
  Zn  Zn162  1  0.82399513  0.68341507  0.95045371  1
  Zn  Zn163  1  0.06932165  0.31828792  0.05689361  1
  Zn  Zn164  1  0.06636791  0.31119522  0.56332208  1
  Zn  Zn165  1  0.06220747  0.81135349  0.06578912  1
  Zn  Zn166  1  0.06431651  0.81508401  0.56004302  1
  Zn  Zn167  1  0.57425724  0.31967613  0.06977875  1
  Zn  Zn168  1  0.56014381  0.31018830  0.56233195  1
  Zn  Zn169  1  0.55889486  0.80535927  0.06739353  1
  Zn  Zn170  1  0.56147363  0.81366082  0.56179496  1
  O  O171  1  0.12110151  0.13042532  0.11179411  1
  O  O172  1  0.11718412  0.11432160  0.62282599  1
  O  O173  1  0.11862761  0.62098251  0.12697505  1
  O  O174  1  0.11823272  0.62083344  0.62092087  1
  O  O175  1  0.60467606  0.11836983  0.12987462  1
  O  O176  1  0.61741058  0.11672019  0.61633867  1
  O  O177  1  0.65492691  0.56880919  0.15953858  1
  O  O178  1  0.63327328  0.61172383  0.61577569  1
  O  O179  1  0.37792664  0.38213456  0.38753896  1
  O  O180  1  0.37884698  0.37347839  0.88815781  1
  O  O181  1  0.37669247  0.88214097  0.38176312  1
  O  O182  1  0.37386038  0.87874995  0.88779717  1
  O  O183  1  0.88498605  0.38650554  0.39091968  1
  O  O184  1  0.88176040  0.38308915  0.86614741  1
  O  O185  1  0.86744763  0.88572217  0.38684629  1
  O  O186  1  0.88235692  0.87892928  0.88747869  1
  O  O187  1  0.25540247  0.00891782  0.36900650  1
  O  O188  1  0.25955005  0.00203871  0.87088878  1
  O  O189  1  0.25170876  0.50898816  0.36756059  1
  O  O190  1  0.24819516  0.50743315  0.87019073  1
  O  O191  1  0.75540888  0.01086519  0.36969046  1
  O  O192  1  0.75503685  0.00387283  0.86467976  1
  O  O193  1  0.76455778  0.52034157  0.38739976  1
  O  O194  1  0.76111413  0.48629736  0.86994893  1
  O  O195  1  0.24950063  0.49358468  0.13121496  1
  O  O196  1  0.24051720  0.49752119  0.63597273  1
  O  O197  1  0.25240975  0.99247045  0.13389228  1
  O  O198  1  0.24259687  0.99414954  0.62954702  1
  O  O199  1  0.77720824  0.48231183  0.13551339  1
  O  O200  1  0.74246745  0.49214300  0.63549719  1
  O  O201  1  0.75112009  1.00826186  0.13872007  1
  O  O202  1  0.74092151  0.99619803  0.63018937  1
  O  O203  1  0.01248296  0.37288876  0.25736433  1
  O  O204  1  0.00843046  0.36762603  0.74884866  1
  O  O205  1  0.01492065  0.87764702  0.24666803  1
  O  O206  1  0.00247640  0.86884855  0.75579913  1
  O  O207  1  0.48647666  0.36385446  0.24983461  1
  O  O208  1  0.50966602  0.36213885  0.74811969  1
  O  O209  1  0.50158924  0.87252831  0.26211020  1
  O  O210  1  0.49826416  0.86864268  0.76800325  1
  O  O211  1  0.48821593  0.13182325  0.24489559  1
  O  O212  1  0.49283758  0.12689177  0.74341600  1
  O  O213  1  0.50617628  0.64134744  0.24515871  1
  O  O214  1  0.50360512  0.64092374  0.76298550  1
  O  O215  1  1.00978402  0.11822430  0.23351710  1
  O  O216  1  0.99549789  0.12764957  0.74407383  1
  O  O217  1  1.00551757  0.63783855  0.25522926  1
  O  O218  1  0.98709582  0.63467865  0.74550589  1
  O  O219  1  0.36277613  0.25568334  -0.00401735  1
  O  O220  1  0.35758585  0.24508182  0.49394381  1
  O  O221  1  0.36729067  0.75503687  0.00892183  1
  O  O222  1  0.37828363  0.76495629  0.50478223  1
  O  O223  1  0.86471630  0.24924696  -0.00828013  1
  O  O224  1  0.87160456  0.25846328  0.50445800  1
  O  O225  1  0.87746967  0.76399987  0.01640315  1
  O  O226  1  0.87082293  0.76100768  0.50122956  1
  O  O227  1  0.13423486  0.24691873  0.49353710  1
  O  O228  1  0.13662147  0.24339592  0.99276912  1
  O  O229  1  0.12201460  0.74248632  0.49273717  1
  O  O230  1  0.13419018  0.75476249  0.99274871  1
  O  O231  1  0.62759446  0.23598655  0.49694428  1
  O  O232  1  0.63518816  0.24554322  1.01237292  1
  O  O233  1  0.63239941  0.74472749  0.49966825  1
  O  O234  1  0.59271285  0.70147943  1.07749829  1
  O  O235  1  0.50086208  0.24537535  0.14009947  1
  O  O236  1  0.50166356  0.23374419  0.63322026  1
  O  O237  1  0.47231394  0.76980179  0.14235345  1
  O  O238  1  0.50085938  0.76092858  0.64307097  1
  O  O239  1  1.00724108  0.24741742  0.13181220  1
  O  O240  1  0.99561720  0.24249110  0.62883247  1
  O  O241  1  0.99601313  0.75253838  0.13703272  1
  O  O242  1  1.00553055  0.74431330  0.63193256  1
  O  O243  1  0.01489310  0.25763007  0.38617100  1
  O  O244  1  0.01075217  0.24498480  0.86628262  1
  O  O245  1  0.01388855  0.75099584  0.36900526  1
  O  O246  1  0.00972457  0.75549392  0.86596216  1
  O  O247  1  0.50326601  0.25023105  0.36551477  1
  O  O248  1  0.49758442  0.24709208  0.85868799  1
  O  O249  1  0.49634232  0.75929020  0.36783498  1
  O  O250  1  0.49990888  0.76143857  0.87134726  1
  O  O251  1  0.24676784  0.13304347  0.49387380  1
  O  O252  1  0.24675117  0.13019963  0.99822771  1
  O  O253  1  0.23669357  0.61683627  0.49383342  1
  O  O254  1  0.25307512  0.63481814  0.99418073  1
  O  O255  1  0.74201178  0.13000367  0.49392523  1
  O  O256  1  0.75055661  0.11962540  0.98158862  1
  O  O257  1  0.74697090  0.63979536  0.50540703  1
  O  O258  1  0.74359602  0.63480618  1.00738710  1
  O  O259  1  0.25580857  0.36848539  0.00623736  1
  O  O260  1  0.24638054  0.35914058  0.50251087  1
  O  O261  1  0.25501545  0.86531497  0.00658811  1
  O  O262  1  0.25973888  0.88116223  0.51008990  1
  O  O263  1  0.76165140  0.36926941  0.01684314  1
  O  O264  1  0.76002491  0.36838644  0.50747405  1
  O  O265  1  0.76188665  0.87909569  -0.00285564  1
  O  O266  1  0.75392185  0.86644364  0.50281858  1
  O  O267  1  0.13603514  0.48702402  0.25200919  1
  O  O268  1  0.12791760  0.49250307  0.74871106  1
  O  O269  1  0.13839549  0.99413063  0.25761988  1
  O  O270  1  0.13221439  0.99868211  0.74379582  1
  O  O271  1  0.62222685  0.48584180  0.29025189  1
  O  O272  1  0.62574533  0.47768145  0.73634074  1
  O  O273  1  0.63223885  0.99367640  0.24982829  1
  O  O274  1  0.63375446  1.00214605  0.73889455  1
  O  O275  1  0.36224019  0.00553093  0.25895126  1
  O  O276  1  0.37120343  0.00541396  0.75797669  1
  O  O277  1  0.36406469  0.49787823  0.24898431  1
  O  O278  1  0.36793483  0.49938868  0.75559933  1
  O  O279  1  0.86709462  -0.00791198  0.26165972  1
  O  O280  1  0.86811114  0.00280247  0.75363441  1
  O  O281  1  0.89058150  0.50420025  0.27130182  1
  O  O282  1  0.86181288  0.50885482  0.76292510  1
  O  O283  1  0.12225172  0.37067290  0.37047518  1
  O  O284  1  0.12570951  0.36580797  0.86341349  1
  O  O285  1  0.13348459  0.86764625  0.36635367  1
  O  O286  1  0.12094133  0.86327237  0.87295818  1
  O  O287  1  0.62068929  0.35484688  0.38908037  1
  O  O288  1  0.62768780  0.36683305  0.86040281  1
  O  O289  1  0.61446620  0.87621824  0.37178944  1
  O  O290  1  0.61372019  0.87661406  0.88309281  1
  O  O291  1  0.37767468  0.12329404  0.13868951  1
  O  O292  1  0.38362069  0.11407949  0.63348637  1
  O  O293  1  0.37138748  0.64106931  0.12357466  1
  O  O294  1  0.36768454  0.63223381  0.63456487  1
  O  O295  1  0.89069895  0.12078535  0.12218241  1
  O  O296  1  0.87874736  0.12786313  0.62950164  1
  O  O297  1  0.88596312  0.64213458  0.12600114  1
  O  O298  1  0.89617186  0.63020415  0.60585832  1
  O  O299  1  0.24647248  0.26055041  0.11607151  1
  O  O300  1  0.24356373  0.24643666  0.61103321  1
  O  O301  1  0.25571242  0.75616147  0.12138672  1
  O  O302  1  0.24908123  0.76519164  0.63193750  1
  O  O303  1  0.75752779  0.24198485  0.13986724  1
  O  O304  1  0.75674876  0.25492189  0.61915811  1
  O  O305  1  0.77067392  0.75220096  0.14485681  1
  O  O306  1  0.75042840  0.76065620  0.62027273  1
  O  O307  1  0.24037579  0.24609848  0.38284798  1
  O  O308  1  0.24586292  0.24147400  0.88063592  1
  O  O309  1  0.23631520  0.74165200  0.37049765  1
  O  O310  1  0.24352924  0.74395963  0.88321872  1
  O  O311  1  0.73798245  0.23577019  0.38073742  1
  O  O312  1  0.74973975  0.23031939  0.86279976  1
  O  O313  1  0.75279366  0.74405169  0.38509474  1
  O  O314  1  0.79339672  0.71717226  0.84369678  1
  O  O315  1  0.01027590  0.11714719  0.00422970  1
  O  O316  1  -0.00203864  0.11300137  0.50628589  1
  O  O317  1  -0.00014509  0.60668803  -0.00977135  1
  O  O318  1  0.01439662  0.62053218  0.50631465  1
  O  O319  1  0.49199500  0.12556434  0.01178051  1
  O  O320  1  0.50555458  0.12702562  0.50734633  1
  O  O321  1  0.50154845  0.60655361  -0.02013001  1
  O  O322  1  0.51396414  0.62100333  0.49699680  1
  O  O323  1  0.50276731  0.38701485  0.49945956  1
  O  O324  1  0.49589321  0.38288088  1.00248323  1
  O  O325  1  0.49253388  0.87460092  0.48746593  1
  O  O326  1  0.49206160  0.87047176  0.99239015  1
  O  O327  1  0.99428426  0.38083285  0.50164852  1
  O  O328  1  0.99659320  0.38026346  0.99632185  1
  O  O329  1  0.99009399  0.88815587  0.50523032  1
  O  O330  1  0.99994655  0.88249139  0.99628806  1
  O  O331  1  0.49548790  0.50342293  0.38673780  1
  O  O332  1  0.50455376  0.48934338  0.88093148  1
  O  O333  1  0.48768301  0.99351602  0.36781240  1
  O  O334  1  0.48956879  0.98718341  0.87529050  1
  O  O335  1  1.00002526  0.49569590  0.38719503  1
  O  O336  1  0.99167171  0.49351348  0.87885123  1
  O  O337  1  0.98926399  1.00615058  0.38329801  1
  O  O338  1  0.99526124  0.99472651  0.88419589  1
  O  O339  1  0.00072175  0.00668800  0.11289630  1
  O  O340  1  0.00495947  0.00213880  0.61892436  1
  O  O341  1  -0.00874439  0.50606242  0.10666816  1
  O  O342  1  0.00531374  0.50767325  0.62671017  1
  O  O343  1  0.49270082  0.00987146  0.12488209  1
  O  O344  1  0.51130716  0.00594877  0.63153051  1
  O  O345  1  0.49628619  0.51188113  0.10289875  1
  O  O346  1  0.51535867  0.49486336  0.62042289  1
  O  O347  1  0.24925870  0.38001245  0.24299877  1
  O  O348  1  0.24379623  0.38438095  0.75326705  1
  O  O349  1  0.24428020  0.88379540  0.24280048  1
  O  O350  1  0.25140320  0.88257600  0.74377103  1
  O  O351  1  0.73787366  0.39970385  0.24735271  1
  O  O352  1  0.74457267  0.37454483  0.74117840  1
  O  O353  1  0.73468364  0.88597032  0.25949790  1
  O  O354  1  0.75550166  0.88680487  0.73923516  1
  O  O355  1  0.25337144  0.12113795  0.25304779  1
  O  O356  1  0.25694625  0.11791376  0.75407106  1
  O  O357  1  0.24314342  0.61631667  0.26146989  1
  O  O358  1  0.24621724  0.61092416  0.75890778  1
  O  O359  1  0.74693815  0.11873580  0.25867006  1
  O  O360  1  0.75448531  0.11381700  0.75322846  1
  O  O361  1  0.75797017  0.63455809  0.26968196  1
  O  O362  1  0.78665847  0.62423136  0.71019795  1
  O  O363  1  0.36937105  0.11781722  0.36540449  1
  O  O364  1  0.37061198  0.11395327  0.86824378  1
  O  O365  1  0.35979006  0.62682770  0.38374395  1
  O  O366  1  0.35992568  0.62458678  0.87050966  1
  O  O367  1  0.86388474  0.11713105  0.37865521  1
  O  O368  1  0.86828598  0.11467272  0.86617869  1
  O  O369  1  0.86762534  0.62184988  0.38782753  1
  O  O370  1  0.88183510  0.60476866  0.87723341  1
  O  O371  1  0.13722206  0.37935740  0.13289209  1
  O  O372  1  0.12938835  0.37786613  0.63805757  1
  O  O373  1  0.13749610  0.87089497  0.13354089  1
  O  O374  1  0.13268398  0.88295386  0.62594752  1
  O  O375  1  0.62375919  0.39908802  0.14053381  1
  O  O376  1  0.63833804  0.37626077  0.62328805  1
  O  O377  1  0.61521751  0.88143325  0.13752213  1
  O  O378  1  0.63693765  0.88527940  0.61459392  1
  O  O379  1  0.13334858  0.26493440  0.26077380  1
  O  O380  1  0.12242658  0.25508960  0.75371588  1
  O  O381  1  0.11837219  0.76041693  0.25770581  1
  O  O382  1  0.11771991  0.74987371  0.75592897  1
  O  O383  1  0.60390047  0.24684980  0.26086448  1
  O  O384  1  0.61635667  0.25408993  0.73915134  1
  O  O385  1  0.60958219  0.76420387  0.25681052  1
  O  O386  1  0.61288778  0.75581712  0.75059198  1
  O  O387  1  0.38307770  0.24085756  0.25790010  1
  O  O388  1  0.37874911  0.23467778  0.75249680  1
  O  O389  1  0.37303338  0.75242437  0.24365327  1
  O  O390  1  0.39034563  0.75028989  0.75006331  1
  O  O391  1  0.89701644  0.25344934  0.25918053  1
  O  O392  1  0.88160563  0.24223787  0.74192156  1
  O  O393  1  0.89094195  0.76583216  0.24173009  1
  O  O394  1  0.89248174  0.75444825  0.74004767  1
  O  O395  1  0.38980378  0.50632655  0.50533258  1
  O  O396  1  0.37771473  0.49070095  0.99303065  1
  O  O397  1  0.37069485  0.99366666  0.48624407  1
  O  O398  1  0.37576999  0.99007675  0.99169306  1
  O  O399  1  0.88237050  0.49378270  0.50146154  1
  O  O400  1  0.88100446  0.49023217  0.98461913  1
  O  O401  1  0.87892024  0.99559136  0.49114164  1
  O  O402  1  0.88362863  0.98842787  0.99566548  1
  O  O403  1  0.11860193  0.00871671  -0.00638177  1
  O  O404  1  0.11527308  0.00055196  0.50403082  1
  O  O405  1  0.10924357  0.49174169  -0.00017401  1
  O  O406  1  0.12046789  0.50436795  0.50970487  1
  O  O407  1  0.61779132  0.01233788  0.00361005  1
  O  O408  1  0.63058567  0.01208770  0.50680356  1
  O  O409  1  0.62237702  0.49617894  -0.00795848  1
  O  O410  1  0.61956112  0.50777670  0.50247496  1
  O  O411  1  0.36524868  0.37902885  0.11327695  1
  O  O412  1  0.37071321  0.37340044  0.61857076  1
  O  O413  1  0.36122185  0.87256475  0.11595337  1
  O  O414  1  0.36801549  0.87895361  0.61661844  1
  O  O415  1  0.89287022  0.36804668  0.14077130  1
  O  O416  1  0.86602068  0.37374716  0.62137880  1
  O  O417  1  0.87737938  0.87333241  0.11322068  1
  O  O418  1  0.86157656  0.87903916  0.61122306  1
  O  O419  1  0.12948097  0.13506374  0.37607237  1
  O  O420  1  0.13311713  0.12764816  0.88374409  1
  O  O421  1  0.13202153  0.63153333  0.38440903  1
  O  O422  1  0.13386799  0.63655479  0.87061174  1
  O  O423  1  0.62697394  0.12893582  0.38122054  1
  O  O424  1  0.63764228  0.11881056  0.87062792  1
  O  O425  1  0.64221731  0.63106737  0.38860551  1
  O  O426  1  0.67528739  0.59708858  0.79637073  1
