# generated using pymatgen
data_V85Zn86O256
_symmetry_space_group_name_H-M   'P 1'
_cell_length_a   16.95508558
_cell_length_b   16.97272476
_cell_length_c   16.98505078
_cell_angle_alpha   90.09997871
_cell_angle_beta   90.03258895
_cell_angle_gamma   90.02252093
_symmetry_Int_Tables_number   1
_chemical_formula_structural   V85Zn86O256
_chemical_formula_sum   'V85 Zn86 O256'
_cell_volume   4887.84740320
_cell_formula_units_Z   1
loop_
 _symmetry_equiv_pos_site_id
 _symmetry_equiv_pos_as_xyz
  1  'x, y, z'
loop_
 _atom_site_type_symbol
 _atom_site_label
 _atom_site_symmetry_multiplicity
 _atom_site_fract_x
 _atom_site_fract_y
 _atom_site_fract_z
 _atom_site_occupancy
  V  V0  1  0.50158728  0.87343083  0.37141184  1
  V  V1  1  0.11695512  0.24708148  0.86645707  1
  V  V2  1  0.87506184  0.37639869  0.00280137  1
  V  V3  1  0.62549504  0.00208597  0.62358151  1
  V  V4  1  0.87310770  0.50631820  0.37859587  1
  V  V5  1  0.24969354  -0.00033842  0.25037676  1
  V  V6  1  0.12448062  0.87447872  0.24794032  1
  V  V7  1  0.24216233  0.12242243  0.87958234  1
  V  V8  1  0.00148908  0.13185427  0.62743615  1
  V  V9  1  0.75134466  0.87675974  0.62096225  1
  V  V10  1  0.38494410  0.74695081  0.64232350  1
  V  V11  1  0.87869935  0.01136635  0.88771646  1
  V  V12  1  0.37423265  0.12498742  0.75415992  1
  V  V13  1  0.87554826  0.74411617  0.62799463  1
  V  V14  1  0.86553396  0.62703161  0.25630688  1
  V  V15  1  0.12677656  0.00209159  0.62432400  1
  V  V16  1  0.27195693  0.75325876  0.49531004  1
  V  V17  1  0.51153896  0.75278957  0.24576642  1
  V  V18  1  0.50502224  0.60321218  0.62669168  1
  V  V19  1  0.00096064  0.00388402  0.49982637  1
  V  V20  1  0.62285723  0.86919127  0.74847076  1
  V  V21  1  0.00105217  0.87721939  0.37382250  1
  V  V22  1  0.25420270  0.25456288  0.50037954  1
  V  V23  1  0.38094088  0.12348336  0.24754358  1
  V  V24  1  0.37509307  0.74818462  0.12682956  1
  V  V25  1  -0.00181364  0.87139344  0.87064152  1
  V  V26  1  0.25670220  0.87390176  0.62037884  1
  V  V27  1  0.50315912  0.86672102  0.87036919  1
  V  V28  1  0.86807106  0.50656235  0.86960632  1
  V  V29  1  0.74792465  0.39097611  0.62972745  1
  V  V30  1  0.62367824  0.12746521  -0.00063428  1
  V  V31  1  0.37437667  0.24909229  0.12485096  1
  V  V32  1  0.87373552  0.74593318  0.12256310  1
  V  V33  1  0.87463836  0.87668681  0.49965313  1
  V  V34  1  0.37458586  -0.00220624  0.87617241  1
  V  V35  1  0.87960324  0.13034524  0.74967223  1
  V  V36  1  0.12590234  0.74860638  0.38423198  1
  V  V37  1  0.05282821  0.69106158  0.68843400  1
  V  V38  1  0.62506675  -0.00078073  0.12636792  1
  V  V39  1  0.38835651  0.50065185  0.38141069  1
  V  V40  1  0.88765570  0.13005919  0.24650808  1
  V  V41  1  0.75106930  0.00330826  0.75060251  1
  V  V42  1  0.49673668  0.49968031  -0.00348936  1
  V  V43  1  0.49330845  -0.00198130  0.49642850  1
  V  V44  1  0.13152464  0.38552674  0.25323962  1
  V  V45  1  0.12007714  0.01416914  0.12119618  1
  V  V46  1  0.24240970  0.74391952  -0.00588681  1
  V  V47  1  0.88887421  0.24910824  0.12723085  1
  V  V48  1  0.62684698  0.26411782  0.36658202  1
  V  V49  1  0.87821923  0.25585730  0.62992580  1
  V  V50  1  0.37078467  0.37600799  -0.00813016  1
  V  V51  1  0.87175607  0.87012429  -0.00439546  1
  V  V52  1  0.12631037  0.12787172  0.49963233  1
  V  V53  1  0.50028184  0.12517296  0.62589329  1
  V  V54  1  0.24540854  0.38749512  0.63065197  1
  V  V55  1  0.24678489  0.61997447  0.37430026  1
  V  V56  1  0.75002581  -0.00197982  0.24547788  1
  V  V57  1  0.01455775  0.51170808  0.50928868  1
  V  V58  1  0.62541558  0.49337250  0.12659731  1
  V  V59  1  -0.00525265  0.37075125  0.86694591  1
  V  V60  1  0.74530758  0.49353811  0.25380820  1
  V  V61  1  0.75134765  0.25275987  0.50121809  1
  V  V62  1  0.37268585  0.61799687  0.24838236  1
  V  V63  1  0.24818909  0.87544642  0.12438811  1
  V  V64  1  0.12638852  0.25068530  0.36764459  1
  V  V65  1  0.23708730  0.24775272  0.00127654  1
  V  V66  1  -0.00126444  0.74979922  0.25098172  1
  V  V67  1  0.31632046  0.55834685  0.82070939  1
  V  V68  1  0.74031701  0.13079631  0.87066612  1
  V  V69  1  0.74902597  0.12447245  0.37268581  1
  V  V70  1  0.62561275  0.12648982  0.49853413  1
  V  V71  1  0.74423426  0.74074395  -0.01557347  1
  V  V72  1  0.74893644  0.24911969  0.00088908  1
  V  V73  1  0.50511104  0.36286023  0.87701126  1
  V  V74  1  0.37646761  0.87342388  -0.00111410  1
  V  V75  1  0.24944074  0.38450769  0.12679981  1
  V  V76  1  0.87787214  0.37890453  0.50228923  1
  V  V77  1  0.11952781  0.87598857  0.74762589  1
  V  V78  1  0.62334635  0.61357743  0.49386291  1
  V  V79  1  0.37521299  0.25237544  0.62885938  1
  V  V80  1  0.62966692  0.37722473  0.75407858  1
  V  V81  1  0.87632967  0.00236571  0.37334312  1
  V  V82  1  0.25863475  0.12813611  0.37559664  1
  V  V83  1  0.74414823  0.87155027  0.12427861  1
  V  V84  1  0.00081032  0.37372863  0.37225041  1
  Zn  Zn85  1  0.01021610  0.00458235  -0.00000678  1
  Zn  Zn86  1  0.00136152  0.61553782  0.13305591  1
  Zn  Zn87  1  0.63331146  0.75037605  0.37439859  1
  Zn  Zn88  1  0.50896877  0.24398847  0.75814312  1
  Zn  Zn89  1  0.74934391  0.74090250  0.49268127  1
  Zn  Zn90  1  0.12310202  0.37882931  0.74896505  1
  Zn  Zn91  1  0.50064479  0.12461648  0.12420162  1
  Zn  Zn92  1  0.12777182  0.74002538  0.86164432  1
  Zn  Zn93  1  0.39143249  0.39622353  0.50997714  1
  Zn  Zn94  1  0.62062350  0.72624114  0.85432877  1
  Zn  Zn95  1  0.12418356  0.50272294  0.12672736  1
  Zn  Zn96  1  0.25004327  -0.00299822  0.75026557  1
  Zn  Zn97  1  0.69926212  0.55784466  0.80380560  1
  Zn  Zn98  1  0.37206878  -0.00556108  0.37745871  1
  Zn  Zn99  1  0.62655343  0.61501008  -0.01172577  1
  Zn  Zn100  1  0.11893284  0.61798656  0.00402794  1
  Zn  Zn101  1  0.50349192  0.62427581  0.12194842  1
  Zn  Zn102  1  0.50054157  -0.00083151  0.00127948  1
  Zn  Zn103  1  0.86987026  0.62533454  0.74865187  1
  Zn  Zn104  1  0.52006857  0.27362123  0.24190687  1
  Zn  Zn105  1  0.74560361  0.36842666  0.13224244  1
  Zn  Zn106  1  -0.00130452  0.49912984  0.00738619  1
  Zn  Zn107  1  0.19183782  0.19180684  0.19110067  1
  Zn  Zn108  1  0.19028350  0.18977248  0.69075212  1
  Zn  Zn109  1  0.18748164  0.68659374  0.18886361  1
  Zn  Zn110  1  0.18184724  0.55513882  0.68885199  1
  Zn  Zn111  1  0.69332970  0.18441707  0.18524624  1
  Zn  Zn112  1  0.68717397  0.19639254  0.68733865  1
  Zn  Zn113  1  0.68814050  0.67762515  0.18183507  1
  Zn  Zn114  1  0.68685489  0.68430064  0.67344852  1
  Zn  Zn115  1  0.34522324  0.33567965  0.29271934  1
  Zn  Zn116  1  0.30804631  0.31235748  0.81321440  1
  Zn  Zn117  1  0.31813247  0.81240520  0.31196896  1
  Zn  Zn118  1  0.30764687  0.80984623  0.81156196  1
  Zn  Zn119  1  0.81512268  0.31281909  0.31326196  1
  Zn  Zn120  1  0.80836860  0.31339050  0.81454665  1
  Zn  Zn121  1  0.81010291  0.81510700  0.31075580  1
  Zn  Zn122  1  0.81234721  0.81235711  0.80817288  1
  Zn  Zn123  1  0.19400963  0.43656953  0.44151741  1
  Zn  Zn124  1  0.18308336  0.43857997  0.93572567  1
  Zn  Zn125  1  0.18934241  0.93668163  0.43818078  1
  Zn  Zn126  1  0.18628671  0.93412206  0.93759199  1
  Zn  Zn127  1  0.69012910  0.44112555  0.43998303  1
  Zn  Zn128  1  0.68574372  0.43124053  0.94033108  1
  Zn  Zn129  1  0.68279441  0.93452876  0.43434743  1
  Zn  Zn130  1  0.69061063  0.93808726  0.93765375  1
  Zn  Zn131  1  0.30859868  0.06125998  0.06142432  1
  Zn  Zn132  1  0.31277982  0.06469202  0.56348576  1
  Zn  Zn133  1  0.31264720  0.56347650  0.05543602  1
  Zn  Zn134  1  0.31699381  0.57422131  0.56013304  1
  Zn  Zn135  1  0.82666867  0.06834977  0.05568488  1
  Zn  Zn136  1  0.81351945  0.06475496  0.56230177  1
  Zn  Zn137  1  0.81306047  0.56089722  0.06505644  1
  Zn  Zn138  1  0.81088318  0.56523924  0.55905644  1
  Zn  Zn139  1  0.43837903  0.43970696  0.18346608  1
  Zn  Zn140  1  0.43468242  0.43466497  0.69643244  1
  Zn  Zn141  1  0.43949456  0.93590577  0.18850804  1
  Zn  Zn142  1  0.43887093  0.93808274  0.68753209  1
  Zn  Zn143  1  0.93691488  0.43420994  0.19280677  1
  Zn  Zn144  1  0.94338740  0.44227711  0.69010125  1
  Zn  Zn145  1  0.93660966  0.93776561  0.18352279  1
  Zn  Zn146  1  0.93608364  0.94289843  0.68830920  1
  Zn  Zn147  1  0.06732251  0.06324922  0.31198170  1
  Zn  Zn148  1  0.06127690  0.05990519  0.81149252  1
  Zn  Zn149  1  0.05825487  0.56451273  0.31710773  1
  Zn  Zn150  1  0.06223317  0.55343459  0.82287983  1
  Zn  Zn151  1  0.56392944  0.06171535  0.31143704  1
  Zn  Zn152  1  0.56042056  0.05483578  0.81360884  1
  Zn  Zn153  1  0.56262109  0.56545203  0.31027155  1
  Zn  Zn154  1  0.52902615  0.55470917  0.80870885  1
  Zn  Zn155  1  0.46205211  0.22969726  0.45676094  1
  Zn  Zn156  1  0.43424694  0.18630749  0.94198453  1
  Zn  Zn157  1  0.44816498  0.68150964  0.43456114  1
  Zn  Zn158  1  0.43804472  0.68721011  0.93660563  1
  Zn  Zn159  1  0.93841528  0.19129783  0.43750188  1
  Zn  Zn160  1  0.93504020  0.18716653  0.93966724  1
  Zn  Zn161  1  0.93718413  0.68843172  0.44102507  1
  Zn  Zn162  1  0.96868596  0.66942712  0.92289517  1
  Zn  Zn163  1  0.06216043  0.31764238  0.06275604  1
  Zn  Zn164  1  0.06359954  0.31714089  0.55818143  1
  Zn  Zn165  1  0.05776299  0.81649783  0.06285098  1
  Zn  Zn166  1  0.06517964  0.81702632  0.55837041  1
  Zn  Zn167  1  0.56160718  0.31161297  0.06332649  1
  Zn  Zn168  1  0.56428654  0.32362298  0.56792566  1
  Zn  Zn169  1  0.56475301  0.80951406  0.05761534  1
  Zn  Zn170  1  0.56311035  0.81111129  0.55398669  1
  O  O171  1  0.12944208  0.11240231  0.13187372  1
  O  O172  1  0.12155519  0.12403867  0.62132488  1
  O  O173  1  0.12189752  0.62228250  0.12663454  1
  O  O174  1  0.11644099  0.63762248  0.63524169  1
  O  O175  1  0.62542267  0.11716041  0.11701961  1
  O  O176  1  0.62167720  0.12180747  0.62027941  1
  O  O177  1  0.62293031  0.60832499  0.11748184  1
  O  O178  1  0.61166889  0.62361954  0.61246940  1
  O  O179  1  0.35516636  0.40173639  0.38517692  1
  O  O180  1  0.37976646  0.36249860  0.88832398  1
  O  O181  1  0.39223343  0.88001333  0.36833770  1
  O  O182  1  0.38024402  0.87619261  0.88009715  1
  O  O183  1  0.88459541  0.37950968  0.38065872  1
  O  O184  1  0.87734624  0.37597841  0.88384458  1
  O  O185  1  0.88289134  0.88497625  0.37871596  1
  O  O186  1  0.87873915  0.88233996  0.87827119  1
  O  O187  1  0.25057200  0.00817652  0.37020722  1
  O  O188  1  0.25452647  0.00614149  0.87487257  1
  O  O189  1  0.24987480  0.51871657  0.38193272  1
  O  O190  1  0.26136783  0.49084898  0.87503838  1
  O  O191  1  0.75543353  0.00500360  0.36659201  1
  O  O192  1  0.75505181  0.01084803  0.86796829  1
  O  O193  1  0.76475154  0.49478276  0.36927361  1
  O  O194  1  0.76336583  0.49371197  0.87888867  1
  O  O195  1  0.25026431  0.48693251  0.12020977  1
  O  O196  1  0.25401380  0.49169222  0.61797542  1
  O  O197  1  0.24021035  0.99435648  0.12978370  1
  O  O198  1  0.24442027  0.99231900  0.62348865  1
  O  O199  1  0.74328121  0.49584645  0.13440073  1
  O  O200  1  0.75810676  0.48919433  0.62693607  1
  O  O201  1  0.74665608  0.99425561  0.12932364  1
  O  O202  1  0.74718876  0.99731301  0.63087343  1
  O  O203  1  0.00958672  0.37519920  0.26650975  1
  O  O204  1  -0.00614896  0.36852990  0.76423848  1
  O  O205  1  0.00258500  0.87092783  0.25525163  1
  O  O206  1  0.01146926  0.88512250  0.75379264  1
  O  O207  1  0.45368962  0.36097065  0.25801608  1
  O  O208  1  0.50708048  0.36867461  0.76088518  1
  O  O209  1  0.49989001  0.86612012  0.25679560  1
  O  O210  1  0.51117196  0.88330005  0.75854325  1
  O  O211  1  0.48572994  0.12166448  0.24839101  1
  O  O212  1  0.49259975  0.12377557  0.74634770  1
  O  O213  1  0.48970838  0.63513654  0.24516302  1
  O  O214  1  0.50691512  0.62841449  0.72514383  1
  O  O215  1  0.98574165  0.12433950  0.25944413  1
  O  O216  1  0.98774911  0.12282485  0.74387770  1
  O  O217  1  0.98718822  0.63396667  0.25175042  1
  O  O218  1  0.99360857  0.63065085  0.74583419  1
  O  O219  1  0.36433200  0.25220730  0.01025947  1
  O  O220  1  0.36038486  0.23577797  0.51275458  1
  O  O221  1  0.36631490  0.75530757  0.00798752  1
  O  O222  1  0.37109271  0.75511735  0.48863878  1
  O  O223  1  0.86757528  0.25467455  0.00940796  1
  O  O224  1  0.86968918  0.25868166  0.50523986  1
  O  O225  1  0.86208557  0.75683655  0.00644448  1
  O  O226  1  0.87643545  0.76126655  0.50913087  1
  O  O227  1  0.13724659  0.24645246  0.49461996  1
  O  O228  1  0.13393717  0.25267536  0.99426933  1
  O  O229  1  0.13108130  0.75732659  0.48593375  1
  O  O230  1  0.13928345  0.75756494  1.00504370  1
  O  O231  1  0.63470320  0.24364202  0.48881004  1
  O  O232  1  0.63292731  0.23567873  1.00768449  1
  O  O233  1  0.62879040  0.74211643  0.49737930  1
  O  O234  1  0.63683452  0.74222600  0.99604847  1
  O  O235  1  0.49002929  0.24578828  0.12861543  1
  O  O236  1  0.48625640  0.24268490  0.63155068  1
  O  O237  1  0.49214358  0.75059091  0.12772198  1
  O  O238  1  0.48038936  0.77215456  0.62328201  1
  O  O239  1  0.98850375  0.24829109  0.11872527  1
  O  O240  1  0.98733231  0.24727366  0.61679402  1
  O  O241  1  0.98373665  0.75699573  0.13158772  1
  O  O242  1  0.99411554  0.75140279  0.62290926  1
  O  O243  1  0.01451227  0.26024503  0.38591475  1
  O  O244  1  0.00778500  0.25293862  0.88421763  1
  O  O245  1  0.00725987  0.75681604  0.37156393  1
  O  O246  1  -0.00602247  0.76961044  0.87510546  1
  O  O247  1  0.52601146  0.23659826  0.36239772  1
  O  O248  1  0.49703466  0.25808053  0.87843191  1
  O  O249  1  0.50103050  0.76040098  0.36382549  1
  O  O250  1  0.50625756  0.76248132  0.88010856  1
  O  O251  1  0.24397686  0.12905433  0.49286118  1
  O  O252  1  0.25409747  0.13249678  0.98704004  1
  O  O253  1  0.25453198  0.64574375  0.49036568  1
  O  O254  1  0.24484768  0.64169107  1.00523798  1
  O  O255  1  0.74794959  0.13033904  0.49092923  1
  O  O256  1  0.74518815  0.13013049  0.99059958  1
  O  O257  1  0.73091853  0.62500604  0.50672770  1
  O  O258  1  0.75108584  0.63916584  1.00345730  1
  O  O259  1  0.25427358  0.36479729  0.00495795  1
  O  O260  1  0.25667697  0.36724380  0.51311980  1
  O  O261  1  0.26024989  0.86847773  0.00411773  1
  O  O262  1  0.24754054  0.86452343  0.50660885  1
  O  O263  1  0.75846954  0.36426133  0.00344530  1
  O  O264  1  0.75709216  0.37212697  0.50933055  1
  O  O265  1  0.74780513  0.85644558  0.00541384  1
  O  O266  1  0.75545538  0.88601034  0.51206766  1
  O  O267  1  0.12461754  0.48759720  0.25544633  1
  O  O268  1  0.11112018  0.49115417  0.74694778  1
  O  O269  1  0.13034298  0.99438151  0.24214148  1
  O  O270  1  0.12833586  0.99383037  0.74100491  1
  O  O271  1  0.63488686  0.50517691  0.24399893  1
  O  O272  1  0.61851853  0.48184197  0.75848881  1
  O  O273  1  0.63582396  1.00760141  0.23589668  1
  O  O274  1  0.63209743  0.99373828  0.74200340  1
  O  O275  1  0.36611606  0.00733899  0.24790990  1
  O  O276  1  0.37223707  0.01033247  0.75592469  1
  O  O277  1  0.37397502  0.51504499  0.25576199  1
  O  O278  1  0.39105133  0.50982959  0.76731738  1
  O  O279  1  0.87143187  0.01067406  0.25261928  1
  O  O280  1  0.86933338  0.01250849  0.75748399  1
  O  O281  1  0.87042452  0.50872621  0.25906213  1
  O  O282  1  0.87696733  0.49941981  0.76622813  1
  O  O283  1  0.12477179  0.36901250  0.37152665  1
  O  O284  1  0.11186981  0.36422072  0.87565208  1
  O  O285  1  0.11982954  0.87186484  0.36725958  1
  O  O286  1  0.11812039  0.87301751  0.86417071  1
  O  O287  1  0.63148436  0.36215956  0.37667630  1
  O  O288  1  0.61858469  0.37052928  0.86756011  1
  O  O289  1  0.60895083  0.87505004  0.37185569  1
  O  O290  1  0.61870955  0.87963787  0.86451084  1
  O  O291  1  0.37484302  0.12911727  0.12935226  1
  O  O292  1  0.37716984  0.13007070  0.63669568  1
  O  O293  1  0.37382128  0.63344333  0.13061143  1
  O  O294  1  0.39130342  0.64195001  0.61777627  1
  O  O295  1  0.87276046  0.13120585  0.14057864  1
  O  O296  1  0.87893201  0.13358917  0.63184295  1
  O  O297  1  0.87191221  0.63411446  0.13623336  1
  O  O298  1  0.87405430  0.64211250  0.61994546  1
  O  O299  1  0.25286889  0.25443797  0.11530689  1
  O  O300  1  0.25949838  0.25357758  0.62084899  1
  O  O301  1  0.25866408  0.75797660  0.11925580  1
  O  O302  1  0.27076987  0.75731467  0.60712914  1
  O  O303  1  0.75890781  0.24788714  0.11451362  1
  O  O304  1  0.76227693  0.25476449  0.61736879  1
  O  O305  1  0.75703018  0.75634869  0.12454323  1
  O  O306  1  0.76169884  0.76250360  0.61671718  1
  O  O307  1  0.24510627  0.24312751  0.38569482  1
  O  O308  1  0.24041473  0.24249205  0.88190990  1
  O  O309  1  0.24578047  0.75066324  0.38213324  1
  O  O310  1  0.24339008  0.75624540  0.89028512  1
  O  O311  1  0.74549839  0.24240092  0.37856253  1
  O  O312  1  0.75261015  0.24226029  0.88963042  1
  O  O313  1  0.74725297  0.76283509  0.38148610  1
  O  O314  1  0.74580408  0.75203018  0.88268561  1
  O  O315  1  -0.07015637  0.08394614  -0.01638294  1
  O  O316  1  0.00643355  0.12254404  0.50520099  1
  O  O317  1  -0.00581989  0.61901140  0.01817541  1
  O  O318  1  0.00121543  0.61068529  0.49309943  1
  O  O319  1  0.51011491  0.12099503  0.00057859  1
  O  O320  1  0.50888677  0.12580097  0.50695803  1
  O  O321  1  0.49935801  0.61250804  0.00141918  1
  O  O322  1  0.51057511  0.63150955  0.51366579  1
  O  O323  1  0.48505155  0.33733150  0.49481590  1
  O  O324  1  0.49099147  0.37510612  0.99618730  1
  O  O325  1  0.50342983  0.88779356  0.48666099  1
  O  O326  1  0.48923217  0.87448173  0.99444961  1
  O  O327  1  0.99539870  0.38292152  0.49061347  1
  O  O328  1  0.98465883  0.37119217  0.99404740  1
  O  O329  1  0.99547509  0.88490862  0.49379971  1
  O  O330  1  0.98669778  0.88104218  0.99344109  1
  O  O331  1  0.48639700  0.49943335  0.36867634  1
  O  O332  1  0.49986792  0.48021775  0.89157719  1
  O  O333  1  0.49960826  0.99398043  0.37933892  1
  O  O334  1  0.49160902  0.98808824  0.88005956  1
  O  O335  1  0.99010553  0.49286631  0.38136779  1
  O  O336  1  0.98357193  0.48491951  0.88350684  1
  O  O337  1  0.99686090  0.99806076  0.38015217  1
  O  O338  1  0.99615974  0.98986993  0.87662359  1
  O  O339  1  0.01544638  -0.00165307  0.12412732  1
  O  O340  1  0.00572688  0.01005864  0.61859237  1
  O  O341  1  0.00326771  0.49553319  0.12772452  1
  O  O342  1  -0.00355671  0.49678572  0.60771650  1
  O  O343  1  0.51141881  -0.00029138  0.12264530  1
  O  O344  1  0.50498453  0.00554520  0.61653331  1
  O  O345  1  0.50637465  0.49854009  0.11562386  1
  O  O346  1  0.49158962  0.50423615  0.62275328  1
  O  O347  1  0.24464947  0.36954057  0.23806943  1
  O  O348  1  0.25094659  0.37283966  0.73387720  1
  O  O349  1  0.24582984  0.88059318  0.24513136  1
  O  O350  1  0.23599145  0.87357348  0.74203012  1
  O  O351  1  0.75871519  0.38926062  0.24942948  1
  O  O352  1  0.73945958  0.37229180  0.74445025  1
  O  O353  1  0.75911557  0.89047516  0.23840650  1
  O  O354  1  0.74683163  0.88318918  0.73814848  1
  O  O355  1  0.25427805  0.11761189  0.25799868  1
  O  O356  1  0.25697495  0.12314417  0.76220427  1
  O  O357  1  0.26310718  0.64026116  0.26287777  1
  O  O358  1  0.25408470  0.61013125  0.75810664  1
  O  O359  1  0.75929970  0.11509707  0.25634318  1
  O  O360  1  0.75276987  0.12400726  0.75476245  1
  O  O361  1  0.76040932  0.61494657  0.24909327  1
  O  O362  1  0.75555221  0.63126935  0.74329023  1
  O  O363  1  0.36350025  0.12457519  0.36567182  1
  O  O364  1  0.36828442  0.11984803  0.87009098  1
  O  O365  1  0.37108057  0.61915745  0.36789165  1
  O  O366  1  0.36486270  0.62478652  0.88070323  1
  O  O367  1  0.86684624  0.12402233  0.36789241  1
  O  O368  1  0.86016560  0.13047661  0.85995743  1
  O  O369  1  0.87758097  0.61763543  0.36935849  1
  O  O370  1  0.87980674  0.60923329  0.87477112  1
  O  O371  1  0.13317207  0.37191915  0.13705615  1
  O  O372  1  0.14311807  0.36725987  0.62524032  1
  O  O373  1  0.12979794  0.88009652  0.13244758  1
  O  O374  1  0.13303520  0.88043071  0.62931168  1
  O  O375  1  0.62622841  0.38545626  0.12435791  1
  O  O376  1  0.63636273  0.37342760  0.63670988  1
  O  O377  1  0.63713538  0.88137162  0.11804190  1
  O  O378  1  0.63295030  0.88291634  0.62788302  1
  O  O379  1  0.13049361  0.25704889  0.26448482  1
  O  O380  1  0.12794522  0.25437151  0.76349151  1
  O  O381  1  0.11850168  0.75946091  0.25652640  1
  O  O382  1  0.11255424  0.75806484  0.74553721  1
  O  O383  1  0.63393784  0.24974965  0.25966455  1
  O  O384  1  0.62265288  0.26542112  0.74882964  1
  O  O385  1  0.61365835  0.74125676  0.24542553  1
  O  O386  1  0.63286980  0.76629832  0.74431972  1
  O  O387  1  0.35828185  0.23459698  0.23292457  1
  O  O388  1  0.37362099  0.23818665  0.74605025  1
  O  O389  1  0.38282023  0.74646862  0.23795928  1
  O  O390  1  0.37405521  0.75074428  0.74051990  1
  O  O391  1  0.87076183  0.23784751  0.24375713  1
  O  O392  1  0.86786859  0.24303979  0.73975374  1
  O  O393  1  0.87713181  0.74466131  0.24369673  1
  O  O394  1  0.87543913  0.75551977  0.73133584  1
  O  O395  1  0.37889607  0.51028854  0.48685884  1
  O  O396  1  0.38301393  0.48604327  1.00826710  1
  O  O397  1  0.38997218  1.01039590  0.49777655  1
  O  O398  1  0.37418599  0.98915668  0.99544147  1
  O  O399  1  0.87827225  0.49560660  0.49289157  1
  O  O400  1  0.87094913  0.48902343  0.99456286  1
  O  O401  1  0.88093386  0.99798680  0.49312282  1
  O  O402  1  0.84030617  0.97144444  0.99367520  1
  O  O403  1  0.12684602  -0.00169114  0.01545911  1
  O  O404  1  0.12103768  0.00786521  0.50462089  1
  O  O405  1  0.11946468  0.49785467  0.00593214  1
  O  O406  1  0.11336410  0.49638881  0.49626932  1
  O  O407  1  0.62911330  0.00945308  0.00973598  1
  O  O408  1  0.61742603  0.00858154  0.50434239  1
  O  O409  1  0.61693174  0.49591315  0.00733971  1
  O  O410  1  0.62164230  0.51271202  0.49307171  1
  O  O411  1  0.36535207  0.36531524  0.11423102  1
  O  O412  1  0.36666678  0.36779564  0.62649861  1
  O  O413  1  0.37061891  0.86909723  0.11700993  1
  O  O414  1  0.36034129  0.87388450  0.63377430  1
  O  O415  1  0.87243619  0.36530000  0.12034685  1
  O  O416  1  0.87063380  0.36996340  0.62398056  1
  O  O417  1  0.86411511  0.86924295  0.11676679  1
  O  O418  1  0.86931163  0.87426359  0.61979273  1
  O  O419  1  0.13453311  0.13253255  0.37841677  1
  O  O420  1  0.13138002  0.13032999  0.87155056  1
  O  O421  1  0.13416756  0.63863114  0.36432545  1
  O  O422  1  0.08839289  0.63857494  0.89109864  1
  O  O423  1  0.63945698  0.12388365  0.37727068  1
  O  O424  1  0.63403356  0.11831985  0.88099378  1
  O  O425  1  0.61291796  0.63109446  0.38864835  1
  O  O426  1  0.61680169  0.61361056  0.86931359  1
