# generated using pymatgen
data_V85Zn86O256
_symmetry_space_group_name_H-M   'P 1'
_cell_length_a   16.97500804
_cell_length_b   16.98920126
_cell_length_c   16.96512686
_cell_angle_alpha   89.99594273
_cell_angle_beta   89.95566590
_cell_angle_gamma   90.03349684
_symmetry_Int_Tables_number   1
_chemical_formula_structural   V85Zn86O256
_chemical_formula_sum   'V85 Zn86 O256'
_cell_volume   4892.60163242
_cell_formula_units_Z   1
loop_
 _symmetry_equiv_pos_site_id
 _symmetry_equiv_pos_as_xyz
  1  'x, y, z'
loop_
 _atom_site_type_symbol
 _atom_site_label
 _atom_site_symmetry_multiplicity
 _atom_site_fract_x
 _atom_site_fract_y
 _atom_site_fract_z
 _atom_site_occupancy
  V  V0  1  0.62797620  0.24462471  0.37685078  1
  V  V1  1  0.25191570  0.23733699  0.50233577  1
  V  V2  1  0.75185344  0.49190081  0.24867041  1
  V  V3  1  0.24316194  0.00845805  0.25480116  1
  V  V4  1  0.12339805  0.88397485  0.24764395  1
  V  V5  1  0.25970571  0.74979060  0.00281512  1
  V  V6  1  0.50038383  0.37656284  0.37658160  1
  V  V7  1  0.31867348  0.56606393  0.81389096  1
  V  V8  1  0.74891259  0.87497318  0.62748480  1
  V  V9  1  0.60709132  0.75256614  0.36978128  1
  V  V10  1  0.37694353  0.87520146  0.50018048  1
  V  V11  1  0.12123359  0.75722127  0.37276890  1
  V  V12  1  -0.00099527  0.75489599  0.25055894  1
  V  V13  1  0.13353426  0.49554432  0.63638700  1
  V  V14  1  0.00397401  -0.00368523  0.00211823  1
  V  V15  1  0.87978990  0.24997318  0.62595348  1
  V  V16  1  0.24263539  0.24896714  0.00111054  1
  V  V17  1  0.50225423  0.12377381  0.62503363  1
  V  V18  1  0.13383023  0.62772580  -0.00184318  1
  V  V19  1  0.63450641  0.75817248  0.87596437  1
  V  V20  1  0.87759686  0.24657901  0.12029867  1
  V  V21  1  0.00244986  0.49873963  0.50159662  1
  V  V22  1  0.12494537  0.12094857  0.49341290  1
  V  V23  1  0.37419653  0.50005196  0.37634852  1
  V  V24  1  0.18012220  0.31086508  0.81536732  1
  V  V25  1  0.75069940  0.61991562  0.37589888  1
  V  V26  1  0.74817274  0.25136841  -0.00434308  1
  V  V27  1  0.37234439  0.88112867  -0.01153513  1
  V  V28  1  0.49921577  0.63431020  0.13056969  1
  V  V29  1  0.75113532  0.24475591  0.50009238  1
  V  V30  1  0.24574718  0.88765368  0.12310348  1
  V  V31  1  0.50343633  0.87890312  0.86315048  1
  V  V32  1  0.12559486  0.12611385  -0.01198370  1
  V  V33  1  0.24912995  0.62817333  0.37273231  1
  V  V34  1  0.63422187  0.63607324  0.00362518  1
  V  V35  1  0.49290172  0.12390746  0.13093875  1
  V  V36  1  0.87060831  0.75107086  0.10883049  1
  V  V37  1  0.00488852  0.24868449  0.75636504  1
  V  V38  1  0.74447937  0.12454417  0.87382278  1
  V  V39  1  0.00223468  0.62410926  0.62718195  1
  V  V40  1  0.87393193  -0.00655840  0.87978577  1
  V  V41  1  0.00505009  0.75665444  0.74945843  1
  V  V42  1  0.13675431  0.75137463  0.87019670  1
  V  V43  1  0.49968224  -0.00446633  0.49588770  1
  V  V44  1  0.37117727  0.25055977  0.12713378  1
  V  V45  1  0.38714789  0.77274477  0.15972021  1
  V  V46  1  0.00142014  0.37447996  0.87005065  1
  V  V47  1  0.50163242  0.49779781  0.50609934  1
  V  V48  1  0.87689732  0.62615540  0.75141889  1
  V  V49  1  0.87621392  0.12290984  0.75058677  1
  V  V50  1  0.62809330  0.36647125  0.75864176  1
  V  V51  1  0.37047689  0.37461840  0.50441218  1
  V  V52  1  0.50527617  0.73271303  0.74653798  1
  V  V53  1  0.49437491  0.00075663  -0.00433448  1
  V  V54  1  0.12545201  0.50092886  0.13038487  1
  V  V55  1  0.00485750  0.11726645  0.12701040  1
  V  V56  1  0.24355214  0.37655912  0.13016414  1
  V  V57  1  0.37859925  0.24994641  0.63096033  1
  V  V58  1  0.62615268  -0.00573611  0.62907887  1
  V  V59  1  0.24410981  0.49456587  0.25534319  1
  V  V60  1  0.87411651  0.87593903  0.48462704  1
  V  V61  1  0.12542751  -0.01352280  0.63140797  1
  V  V62  1  0.87756262  0.62223379  0.24912038  1
  V  V63  1  0.62692869  0.62013221  0.50600184  1
  V  V64  1  0.25102705  0.75316457  0.50110607  1
  V  V65  1  0.36403079  0.00898440  0.38454530  1
  V  V66  1  -0.00384662  -0.00800361  0.49049091  1
  V  V67  1  0.62409956  0.12712031  0.00005014  1
  V  V68  1  0.00380438  0.62430372  0.12604574  1
  V  V69  1  0.62596335  -0.00260983  0.14303058  1
  V  V70  1  0.00529346  0.25420466  0.24684496  1
  V  V71  1  0.00108291  0.12045136  0.62612053  1
  V  V72  1  0.00182977  0.49914689  -0.00144836  1
  V  V73  1  0.62236053  0.50096313  0.12222639  1
  V  V74  1  0.00793958  0.37614554  0.37086739  1
  V  V75  1  0.49622733  0.25287339  0.25366001  1
  V  V76  1  0.62315354  0.49963094  0.63088920  1
  V  V77  1  0.13202750  0.24936227  0.37216136  1
  V  V78  1  0.37552593  0.38385503  -0.00228080  1
  V  V79  1  0.12293076  0.62482150  0.49949701  1
  V  V80  1  0.75084980  0.74878730  0.49995583  1
  V  V81  1  0.87797222  0.37442352  0.49803374  1
  V  V82  1  0.74837404  -0.00632418  0.74959457  1
  V  V83  1  0.75245551  0.50133415  0.75353991  1
  V  V84  1  0.00038062  0.87153849  0.87919245  1
  Zn  Zn85  1  0.87441431  0.37525523  -0.00223672  1
  Zn  Zn86  1  0.50248929  0.37888327  0.87647247  1
  Zn  Zn87  1  0.51208540  0.24244679  0.75559507  1
  Zn  Zn88  1  0.25165451  0.37664760  0.63880550  1
  Zn  Zn89  1  0.74413033  0.86479215  0.12242665  1
  Zn  Zn90  1  0.25668556  -0.01195550  0.77025708  1
  Zn  Zn91  1  0.75423077  0.37437919  0.62759729  1
  Zn  Zn92  1  0.87664409  0.75203292  0.62419830  1
  Zn  Zn93  1  0.24884030  0.86705287  0.63515195  1
  Zn  Zn94  1  0.75508974  0.63098236  0.88107690  1
  Zn  Zn95  1  0.77410494  -0.02857208  0.28180687  1
  Zn  Zn96  1  0.87654660  0.49569432  0.37438933  1
  Zn  Zn97  1  0.63347666  0.11724459  0.49713053  1
  Zn  Zn98  1  0.49075608  0.51378278  -0.00441556  1
  Zn  Zn99  1  0.37515303  0.73491219  0.63788724  1
  Zn  Zn100  1  0.38591766  0.62520276  0.25747257  1
  Zn  Zn101  1  0.74968790  0.37477682  0.11964281  1
  Zn  Zn102  1  0.37849973  0.10481088  0.77220655  1
  Zn  Zn103  1  0.84702393  0.12192819  0.24656385  1
  Zn  Zn104  1  0.87573799  0.50005747  0.87604484  1
  Zn  Zn105  1  0.62252490  0.37697552  0.24742499  1
  Zn  Zn106  1  0.36341316  0.13115222  0.26361873  1
  Zn  Zn107  1  0.18010361  0.18470468  0.18401312  1
  Zn  Zn108  1  0.19265480  0.17828361  0.68356745  1
  Zn  Zn109  1  0.19824720  0.69449280  0.18890575  1
  Zn  Zn110  1  0.19096173  0.68098876  0.69012046  1
  Zn  Zn111  1  0.68174001  0.18675984  0.18292440  1
  Zn  Zn112  1  0.69176623  0.18354156  0.68204970  1
  Zn  Zn113  1  0.68976630  0.68761716  0.19242178  1
  Zn  Zn114  1  0.68633801  0.68811515  0.69107421  1
  Zn  Zn115  1  0.31084562  0.31455698  0.31621535  1
  Zn  Zn116  1  0.35747963  0.26501648  0.84579671  1
  Zn  Zn117  1  0.32549512  0.82403537  0.31162289  1
  Zn  Zn118  1  0.31823284  0.81048095  0.80745582  1
  Zn  Zn119  1  0.79876746  0.28398848  0.29641656  1
  Zn  Zn120  1  0.81537400  0.31243098  0.81513396  1
  Zn  Zn121  1  0.80670692  0.80222489  0.30762386  1
  Zn  Zn122  1  0.81677457  0.81293083  0.81234528  1
  Zn  Zn123  1  0.18728788  0.43533967  0.44398732  1
  Zn  Zn124  1  0.19704786  0.44709840  0.93956175  1
  Zn  Zn125  1  0.18590550  0.93778016  0.43924029  1
  Zn  Zn126  1  0.18016822  0.93443923  0.93637843  1
  Zn  Zn127  1  0.69036746  0.43083762  0.43877774  1
  Zn  Zn128  1  0.68485083  0.44205124  0.93744936  1
  Zn  Zn129  1  0.67982975  0.92981213  0.43778004  1
  Zn  Zn130  1  0.68479911  0.93588925  0.94751901  1
  Zn  Zn131  1  0.31024854  0.07170097  -0.06014708  1
  Zn  Zn132  1  0.31594787  0.05571538  0.62643784  1
  Zn  Zn133  1  0.31611724  0.56941367  0.07065385  1
  Zn  Zn134  1  0.31337260  0.56625696  0.56801306  1
  Zn  Zn135  1  0.79389252  0.02998594  0.05197172  1
  Zn  Zn136  1  0.81651774  0.06524837  0.43379750  1
  Zn  Zn137  1  0.81427368  0.56368197  0.06417596  1
  Zn  Zn138  1  0.81450164  0.55974704  0.56755993  1
  Zn  Zn139  1  0.43501375  0.44228397  0.18607152  1
  Zn  Zn140  1  0.44049510  0.44008675  0.69366686  1
  Zn  Zn141  1  0.42465565  0.94612006  0.18767163  1
  Zn  Zn142  1  0.43847493  0.92574615  0.67916360  1
  Zn  Zn143  1  0.93688287  0.43206695  0.18613862  1
  Zn  Zn144  1  0.94203356  0.43726508  0.68857666  1
  Zn  Zn145  1  0.93011168  0.93205561  0.18548416  1
  Zn  Zn146  1  0.93310171  0.93538762  0.68403049  1
  Zn  Zn147  1  -0.02723281  0.05714284  0.31352277  1
  Zn  Zn148  1  0.06626810  0.05836074  0.81288913  1
  Zn  Zn149  1  0.06425783  0.56339013  0.31323848  1
  Zn  Zn150  1  0.06788057  0.56615449  0.81551050  1
  Zn  Zn151  1  0.55448886  0.06583917  0.31851100  1
  Zn  Zn152  1  0.56378575  0.06091040  0.81020653  1
  Zn  Zn153  1  0.56570680  0.56489699  0.31305517  1
  Zn  Zn154  1  0.56384160  0.56103103  0.82204808  1
  Zn  Zn155  1  0.44029093  0.18447503  0.44576874  1
  Zn  Zn156  1  0.44958239  0.19603260  0.94734523  1
  Zn  Zn157  1  0.43146135  0.67680868  0.46549301  1
  Zn  Zn158  1  0.44367954  0.68991398  0.93490003  1
  Zn  Zn159  1  0.94439905  0.19194643  0.43811020  1
  Zn  Zn160  1  0.93589938  0.18333467  0.93703788  1
  Zn  Zn161  1  0.93620333  0.68763386  0.43577128  1
  Zn  Zn162  1  0.94475279  0.68264727  0.93437874  1
  Zn  Zn163  1  0.06384496  0.31435771  0.06035733  1
  Zn  Zn164  1  0.06684647  0.31305138  0.56563960  1
  Zn  Zn165  1  0.06289042  0.81190800  0.06353053  1
  Zn  Zn166  1  0.05935538  0.81077607  0.55948091  1
  Zn  Zn167  1  0.56240510  0.31317358  0.06418522  1
  Zn  Zn168  1  0.56572728  0.31466362  0.56732944  1
  Zn  Zn169  1  0.56018056  0.81759428  0.06203294  1
  Zn  Zn170  1  0.56433582  0.81119202  0.56003111  1
  O  O171  1  0.10837017  0.12909350  0.11247433  1
  O  O172  1  0.11423199  0.11835460  0.61468243  1
  O  O173  1  0.12324093  0.62311835  0.11835087  1
  O  O174  1  0.12162881  0.61673651  0.61826389  1
  O  O175  1  0.60781379  0.12346625  0.12229949  1
  O  O176  1  0.61847475  0.11598243  0.62229803  1
  O  O177  1  0.62130852  0.62308258  0.12155032  1
  O  O178  1  0.63603405  0.61040672  0.61861704  1
  O  O179  1  0.38374178  0.37887569  0.38337917  1
  O  O180  1  0.36627092  0.37575060  0.89779574  1
  O  O181  1  0.36669840  0.89541728  0.39046291  1
  O  O182  1  0.38697145  0.87163602  0.88320801  1
  O  O183  1  0.88990642  0.37346785  0.38872991  1
  O  O184  1  0.88707532  0.37967393  0.87785609  1
  O  O185  1  0.86920727  0.86614278  0.38545873  1
  O  O186  1  0.88695064  0.88167946  0.87376001  1
  O  O187  1  0.25117650  0.00148884  0.36878326  1
  O  O188  1  0.24332153  0.00529373  0.88113427  1
  O  O189  1  0.25130929  0.50333127  0.37171560  1
  O  O190  1  0.24801528  0.51581807  0.86905296  1
  O  O191  1  0.73801341  0.00563445  0.38024883  1
  O  O192  1  0.75675041  0.00396931  0.86986637  1
  O  O193  1  0.75244124  0.50193169  0.36812323  1
  O  O194  1  0.75249473  0.50483333  0.86457459  1
  O  O195  1  0.24656435  0.49555511  0.13614345  1
  O  O196  1  0.23845539  0.49771542  0.61908853  1
  O  O197  1  0.25297941  0.98744710  0.13697112  1
  O  O198  1  0.22731494  0.98782306  0.60793834  1
  O  O199  1  0.74467749  0.49847322  0.13319667  1
  O  O200  1  0.74750068  0.49717896  0.63957993  1
  O  O201  1  0.72574704  1.02561217  0.14836985  1
  O  O202  1  0.74167079  0.99005725  0.63177804  1
  O  O203  1  0.00135300  0.36898819  0.26001786  1
  O  O204  1  0.00153440  0.36793053  0.76177620  1
  O  O205  1  0.00718105  0.86137491  0.24235799  1
  O  O206  1  -0.00641941  0.86095113  0.75494396  1
  O  O207  1  0.49582245  0.37074586  0.25918491  1
  O  O208  1  0.52101075  0.37407685  0.74783977  1
  O  O209  1  0.42371963  0.84294923  0.23533359  1
  O  O210  1  0.50294532  0.87687424  0.76191842  1
  O  O211  1  0.49208492  0.13606025  0.24641652  1
  O  O212  1  0.49753130  0.12511255  0.74096326  1
  O  O213  1  0.50182539  0.62165063  0.23680319  1
  O  O214  1  0.51106140  0.63395573  0.75082294  1
  O  O215  1  1.00806663  0.13378770  0.23386455  1
  O  O216  1  0.99894824  0.13035023  0.74611386  1
  O  O217  1  0.99775292  0.63032510  0.24401704  1
  O  O218  1  0.99470225  0.63264778  0.74806564  1
  O  O219  1  0.36233255  0.25985084  0.01189533  1
  O  O220  1  0.36945539  0.25639009  0.50654936  1
  O  O221  1  0.36532516  0.75899062  -0.00698099  1
  O  O222  1  0.35836862  0.76541144  0.47561970  1
  O  O223  1  0.86815257  0.24955283  0.00450169  1
  O  O224  1  0.87299348  0.25678992  0.50507936  1
  O  O225  1  0.87896245  0.73677195  0.01086953  1
  O  O226  1  0.86757521  0.75418062  0.50247917  1
  O  O227  1  0.13235225  0.24409930  0.49715269  1
  O  O228  1  0.13606596  0.24570953  1.00371209  1
  O  O229  1  0.12848404  0.74588968  0.49153993  1
  O  O230  1  0.13676201  0.74472152  0.99676821  1
  O  O231  1  0.63485155  0.25213730  0.49617417  1
  O  O232  1  0.63082043  0.23649984  1.00624581  1
  O  O233  1  0.63380669  0.73669369  0.49708505  1
  O  O234  1  0.62267208  0.74771870  0.99076890  1
  O  O235  1  0.49158730  0.24823358  0.13543409  1
  O  O236  1  0.49769002  0.24169294  0.62642773  1
  O  O237  1  0.48943099  0.74936061  0.12392577  1
  O  O238  1  0.51367402  0.75390442  0.64600053  1
  O  O239  1  0.99781705  0.24634284  0.12838179  1
  O  O240  1  1.00199789  0.24382780  0.63673945  1
  O  O241  1  0.99574516  0.74014480  0.13056936  1
  O  O242  1  1.00124209  0.74229807  0.63313309  1
  O  O243  1  0.01122514  0.25778217  0.36708593  1
  O  O244  1  -0.00327062  0.25594778  0.86420403  1
  O  O245  1  0.00888297  0.74215792  0.36313087  1
  O  O246  1  0.00783506  0.75506551  0.86962165  1
  O  O247  1  0.50186355  0.25804261  0.37228022  1
  O  O248  1  0.48144652  0.26618397  0.86503743  1
  O  O249  1  0.51078377  0.73032191  0.38622373  1
  O  O250  1  0.51217158  0.75904773  0.86736748  1
  O  O251  1  0.24056346  0.13575717  0.50820256  1
  O  O252  1  0.23847661  0.13773100  1.00523515  1
  O  O253  1  0.23969152  0.62962510  0.48771795  1
  O  O254  1  0.24397141  0.63653961  1.01117708  1
  O  O255  1  0.75237263  0.14136243  0.49760155  1
  O  O256  1  0.74121424  0.12482647  0.99353076  1
  O  O257  1  0.74795849  0.62639332  0.49543681  1
  O  O258  1  0.73836014  0.62194667  1.00017839  1
  O  O259  1  0.25624661  0.37258741  0.01121900  1
  O  O260  1  0.26257197  0.36709481  0.50066722  1
  O  O261  1  0.25381137  0.87122952  0.00486041  1
  O  O262  1  0.25153554  0.86550727  0.50366919  1
  O  O263  1  0.75026812  0.36502501  -0.00250933  1
  O  O264  1  0.76400545  0.37085450  0.50629056  1
  O  O265  1  0.76132367  0.92132256  0.02494372  1
  O  O266  1  0.75580813  0.86401836  0.50462584  1
  O  O267  1  0.13149238  0.50090454  0.24264415  1
  O  O268  1  0.12325334  0.50757318  0.73454928  1
  O  O269  1  0.12761289  0.98491207  0.25591263  1
  O  O270  1  0.12517742  1.00392670  0.73272367  1
  O  O271  1  0.63354765  0.49953914  0.24012319  1
  O  O272  1  0.63475892  0.49379733  0.74675687  1
  O  O273  1  0.60431380  1.00022888  0.24056618  1
  O  O274  1  0.63160744  1.00143503  0.73695680  1
  O  O275  1  0.36148866  0.00780731  0.26442028  1
  O  O276  1  0.36860910  0.00135032  0.72191971  1
  O  O277  1  0.36490009  0.50437596  0.25834497  1
  O  O278  1  0.37090032  0.50087344  0.75450541  1
  O  O279  1  0.88210821  0.01035789  0.25148018  1
  O  O280  1  0.87173611  0.00473872  0.75924990  1
  O  O281  1  0.86897945  0.50346480  0.25013776  1
  O  O282  1  0.87064446  0.50704930  0.75045586  1
  O  O283  1  0.11487584  0.36606855  0.38422248  1
  O  O284  1  0.12398964  0.37603425  0.87426293  1
  O  O285  1  0.12903699  0.86161871  0.36774378  1
  O  O286  1  0.11031670  0.86296128  0.87752083  1
  O  O287  1  0.61077355  0.37057483  0.37547862  1
  O  O288  1  0.63112414  0.37271867  0.86096001  1
  O  O289  1  0.61726816  0.85190472  0.38454228  1
  O  O290  1  0.61939979  0.86576432  0.88497860  1
  O  O291  1  0.38358996  0.14271673  0.12826739  1
  O  O292  1  0.39402493  0.13701056  0.61036263  1
  O  O293  1  0.38631237  0.64046836  0.12921536  1
  O  O294  1  0.38941200  0.64472083  0.57359527  1
  O  O295  1  0.88805886  0.13819760  0.12596608  1
  O  O296  1  0.89259368  0.13190627  0.63264971  1
  O  O297  1  0.88406109  0.62922429  0.13119423  1
  O  O298  1  0.88334663  0.62587729  0.63588782  1
  O  O299  1  0.25287365  0.25768691  0.12255511  1
  O  O300  1  0.25851652  0.25509924  0.61634864  1
  O  O301  1  0.26310508  0.76395232  0.11820035  1
  O  O302  1  0.24864382  0.74547601  0.61016351  1
  O  O303  1  0.75833394  0.24896623  0.10953738  1
  O  O304  1  0.76127566  0.25171738  0.61785385  1
  O  O305  1  0.76597214  0.74441884  0.12570941  1
  O  O306  1  0.74948412  0.75390397  0.61549001  1
  O  O307  1  0.23887924  0.25494650  0.38328936  1
  O  O308  1  0.24318768  0.26038427  0.88185330  1
  O  O309  1  0.23889228  0.74190214  0.37931713  1
  O  O310  1  0.24065690  0.75687047  0.88433088  1
  O  O311  1  0.73538718  0.27255666  0.39089253  1
  O  O312  1  0.75735051  0.23827712  0.88664638  1
  O  O313  1  0.74684688  0.73722475  0.38698005  1
  O  O314  1  0.73869929  0.75320660  0.87323864  1
  O  O315  1  0.00461428  0.12119949  0.00850938  1
  O  O316  1  0.00402094  0.11374021  0.50825317  1
  O  O317  1  0.01088417  0.61675087  0.00621939  1
  O  O318  1  0.00412356  0.61970273  0.50538163  1
  O  O319  1  0.50471661  0.12081877  0.00975601  1
  O  O320  1  0.50876851  0.11510780  0.50851671  1
  O  O321  1  0.51252255  0.63016445  0.01320443  1
  O  O322  1  0.52300808  0.61033809  0.49333277  1
  O  O323  1  0.49105352  0.37717012  0.49525789  1
  O  O324  1  0.48152565  0.37162561  1.00703817  1
  O  O325  1  0.49021098  0.88233900  0.50630384  1
  O  O326  1  0.49133385  0.88471580  0.99332960  1
  O  O327  1  0.99725259  0.37918941  0.49590953  1
  O  O328  1  1.00365077  0.38247983  0.98824740  1
  O  O329  1  0.98874206  0.88469401  0.50654355  1
  O  O330  1  1.00399468  0.88400398  0.99325151  1
  O  O331  1  0.49656870  0.49299199  0.38115718  1
  O  O332  1  0.51298886  0.48987069  0.88830512  1
  O  O333  1  0.49027474  1.00438422  0.39106282  1
  O  O334  1  0.50933297  0.99241714  0.88478924  1
  O  O335  1  1.00090622  0.49232005  0.38160065  1
  O  O336  1  1.00404354  0.49308086  0.88220889  1
  O  O337  1  1.01443215  0.99089862  0.39273585  1
  O  O338  1  0.99570467  0.99003149  0.87884854  1
  O  O339  1  -0.00889346  0.01171318  0.11716233  1
  O  O340  1  0.00630197  0.00429199  0.61944196  1
  O  O341  1  0.00678736  0.50233282  0.11888236  1
  O  O342  1  0.01016071  0.50489160  0.62051687  1
  O  O343  1  0.49780173  0.00970325  0.12140294  1
  O  O344  1  0.50821300  0.00368201  0.61770666  1
  O  O345  1  0.50731705  0.51015083  0.12210883  1
  O  O346  1  0.51290894  0.49371802  0.61959691  1
  O  O347  1  0.25248615  0.38651858  0.24651199  1
  O  O348  1  0.24017651  0.36243453  0.75718836  1
  O  O349  1  0.24230202  0.88271895  0.24366894  1
  O  O350  1  0.25085763  0.87428833  0.74749628  1
  O  O351  1  0.75023772  0.38359447  0.24844500  1
  O  O352  1  0.74539608  0.38174501  0.75046140  1
  O  O353  1  0.76144364  0.87292505  0.23536964  1
  O  O354  1  0.75765921  0.88219461  0.74094758  1
  O  O355  1  0.24465471  0.11195384  0.24345610  1
  O  O356  1  0.26621692  0.10812658  0.72595609  1
  O  O357  1  0.24025411  0.61148318  0.26414358  1
  O  O358  1  0.27107811  0.63220516  0.75050564  1
  O  O359  1  0.75357413  0.17907353  0.26480106  1
  O  O360  1  0.75432397  0.11712159  0.75682696  1
  O  O361  1  0.75572160  0.61194491  0.25839439  1
  O  O362  1  0.76020004  0.61950821  0.75254952  1
  O  O363  1  0.37491073  0.11504136  0.38180764  1
  O  O364  1  0.37192904  0.14641407  0.87816739  1
  O  O365  1  0.36433624  0.61615038  0.37877375  1
  O  O366  1  0.38029123  0.61588418  0.87910442  1
  O  O367  1  0.89121803  0.12274092  0.36777050  1
  O  O368  1  0.86543701  0.11718546  0.86871193  1
  O  O369  1  0.86496712  0.62004736  0.37042136  1
  O  O370  1  0.87592956  0.62225012  0.86396136  1
  O  O371  1  0.13772397  0.38186148  0.12126245  1
  O  O372  1  0.12905741  0.39101928  0.62275636  1
  O  O373  1  0.13459756  0.86784743  0.13472759  1
  O  O374  1  0.11752209  0.88479935  0.62468780  1
  O  O375  1  0.62667990  0.38573642  0.12673304  1
  O  O376  1  0.63274344  0.38527317  0.63381521  1
  O  O377  1  0.62256292  0.89413071  0.12339115  1
  O  O378  1  0.63947321  0.88002424  0.61837524  1
  O  O379  1  0.11757497  0.24815399  0.25926596  1
  O  O380  1  0.12401418  0.24635715  0.75278551  1
  O  O381  1  0.11976375  0.75465313  0.25578727  1
  O  O382  1  0.11741000  0.73889341  0.76059518  1
  O  O383  1  0.60830955  0.25693942  0.25756111  1
  O  O384  1  0.63189614  0.26332505  0.74344548  1
  O  O385  1  0.62633351  0.73936133  0.27054123  1
  O  O386  1  0.62079741  0.74846513  0.76684089  1
  O  O387  1  0.37954322  0.25042688  0.24813733  1
  O  O388  1  0.37584910  0.25127987  0.73301592  1
  O  O389  1  0.33719235  0.72919536  0.24627834  1
  O  O390  1  0.39939350  0.74933239  0.75183176  1
  O  O391  1  0.89487014  0.25360787  0.23943385  1
  O  O392  1  0.88449466  0.24394947  0.74614113  1
  O  O393  1  0.88547252  0.73839966  0.24593694  1
  O  O394  1  0.88408533  0.74148023  0.74779861  1
  O  O395  1  0.37900856  0.48959157  0.49558130  1
  O  O396  1  0.37419492  0.48714716  1.01501402  1
  O  O397  1  0.38124106  0.99258275  0.50254733  1
  O  O398  1  0.38646707  0.99700381  0.99664913  1
  O  O399  1  0.88412725  0.49180139  0.50124394  1
  O  O400  1  0.89077672  0.50066603  0.99996954  1
  O  O401  1  0.88806320  0.99250895  0.49656721  1
  O  O402  1  0.88912049  1.01280201  0.98375112  1
  O  O403  1  0.10997214  0.00886066  -0.00109948  1
  O  O404  1  0.11327294  0.00403401  0.50756432  1
  O  O405  1  0.12038840  0.50857468  0.00766838  1
  O  O406  1  0.11864053  0.50641204  0.50611660  1
  O  O407  1  0.61226184  0.01395877  0.01362880  1
  O  O408  1  0.61714199  -0.00208427  0.51142116  1
  O  O409  1  0.62772377  0.50958249  0.01373645  1
  O  O410  1  0.62642924  0.50061760  0.51026133  1
  O  O411  1  0.36367421  0.36735671  0.12476603  1
  O  O412  1  0.37507488  0.36936054  0.61909265  1
  O  O413  1  0.36678625  0.87401547  0.10450736  1
  O  O414  1  0.37232393  0.85718302  0.61055985  1
  O  O415  1  0.87461139  0.36158689  0.11844121  1
  O  O416  1  0.88148336  0.36787365  0.61579095  1
  O  O417  1  0.88417993  0.85159931  0.11916718  1
  O  O418  1  0.86249325  0.87326101  0.61515842  1
  O  O419  1  0.11724967  0.13744518  0.39164542  1
  O  O420  1  0.11397938  0.12854384  0.88856138  1
  O  O421  1  0.12934889  0.63276683  0.38114296  1
  O  O422  1  0.11990777  0.63664553  0.89093308  1
  O  O423  1  0.61697818  0.14190896  0.37886677  1
  O  O424  1  0.63609564  0.11967684  0.88333748  1
  O  O425  1  0.63961083  0.62259273  0.38408083  1
  O  O426  1  0.62857882  0.63990563  0.88657776  1
