# generated using pymatgen
data_V85Zn86O256
_symmetry_space_group_name_H-M   'P 1'
_cell_length_a   16.92334601
_cell_length_b   16.92289698
_cell_length_c   16.92642503
_cell_angle_alpha   90.05847254
_cell_angle_beta   89.93892977
_cell_angle_gamma   90.01522668
_symmetry_Int_Tables_number   1
_chemical_formula_structural   V85Zn86O256
_chemical_formula_sum   'V85 Zn86 O256'
_cell_volume   4847.58796599
_cell_formula_units_Z   1
loop_
 _symmetry_equiv_pos_site_id
 _symmetry_equiv_pos_as_xyz
  1  'x, y, z'
loop_
 _atom_site_type_symbol
 _atom_site_label
 _atom_site_symmetry_multiplicity
 _atom_site_fract_x
 _atom_site_fract_y
 _atom_site_fract_z
 _atom_site_occupancy
  V  V0  1  0.25224582  0.87070227  0.12700382  1
  V  V1  1  0.75292316  0.74943805  0.50165358  1
  V  V2  1  0.61757497  0.23954573  0.88152305  1
  V  V3  1  0.24329580  0.00084619  0.74700008  1
  V  V4  1  0.44433399  0.68372145  0.18595205  1
  V  V5  1  0.62124746  0.12172408  0.50001587  1
  V  V6  1  0.75154590  0.12722394  0.37827896  1
  V  V7  1  0.86536398  -0.00288322  0.87293655  1
  V  V8  1  0.49856267  0.62179389  0.62462274  1
  V  V9  1  0.87178867  0.73953988  0.13168999  1
  V  V10  1  0.62177315  0.25210913  0.37566606  1
  V  V11  1  0.13155760  0.38144084  0.75455872  1
  V  V12  1  0.25262295  0.38089244  0.62509594  1
  V  V13  1  0.25010801  0.74799172  -0.00157489  1
  V  V14  1  0.61939025  0.75048555  0.37368379  1
  V  V15  1  0.37935382  -0.00264011  0.38863386  1
  V  V16  1  0.62241882  0.37673804  0.25296453  1
  V  V17  1  0.49887084  0.87435806  0.87321373  1
  V  V18  1  0.88128124  0.49406499  0.36888716  1
  V  V19  1  0.00228870  0.25501436  0.26036183  1
  V  V20  1  0.50194838  0.00362601  -0.00170820  1
  V  V21  1  0.74518269  0.23919716  0.00246992  1
  V  V22  1  0.49445216  0.37545336  0.88472020  1
  V  V23  1  0.12582610  0.62965824  0.48743089  1
  V  V24  1  0.12071513  0.62345357  0.00186476  1
  V  V25  1  0.87327778  0.11852386  0.74922018  1
  V  V26  1  0.62957799  0.87690560  0.74967466  1
  V  V27  1  0.74941018  0.26146233  0.50926481  1
  V  V28  1  0.13302049  0.25225131  0.38091921  1
  V  V29  1  0.13204699  0.12796378  0.50458383  1
  V  V30  1  0.49728024  0.25566944  0.25302141  1
  V  V31  1  0.37375445  0.25324445  0.11861256  1
  V  V32  1  0.49766093  0.49459846  0.48890096  1
  V  V33  1  0.00503767  0.00497701  0.00091686  1
  V  V34  1  0.75310129  0.88215133  0.62897028  1
  V  V35  1  0.87945235  0.00102360  0.37687966  1
  V  V36  1  0.62780120  0.00651975  0.12170627  1
  V  V37  1  0.88096460  0.61765345  0.75097448  1
  V  V38  1  0.49628352  0.24960711  0.74981394  1
  V  V39  1  0.00154628  0.87318454  0.87505306  1
  V  V40  1  0.25153143  0.75230337  0.48764417  1
  V  V41  1  0.62677418  0.74701128  0.87289987  1
  V  V42  1  0.49907253  0.74874838  0.74827884  1
  V  V43  1  0.62242761  0.37444438  0.74729009  1
  V  V44  1  0.75027083  0.87361196  0.12866438  1
  V  V45  1  0.36498605  0.61817592  0.74816541  1
  V  V46  1  0.62936989  0.49502334  0.62594228  1
  V  V47  1  0.00362993  0.13535871  0.62929381  1
  V  V48  1  0.12675288  0.38437658  0.25606557  1
  V  V49  1  0.36371815  0.49515943  0.87777746  1
  V  V50  1  0.25072987  0.38507363  0.12594717  1
  V  V51  1  0.87913130  0.12659428  0.25198708  1
  V  V52  1  0.12509291  0.87434940  0.74468659  1
  V  V53  1  0.37333481  0.37471918  0.48453237  1
  V  V54  1  0.62109546  -0.00056623  0.62581451  1
  V  V55  1  0.24315398  0.12293541  0.88149659  1
  V  V56  1  0.37374921  0.12054135  0.24988293  1
  V  V57  1  -0.04586919  0.30973912  0.80976184  1
  V  V58  1  0.61903160  0.49665105  0.11511696  1
  V  V59  1  0.62568263  0.62404959  0.49986570  1
  V  V60  1  0.12710971  0.00474351  0.12499750  1
  V  V61  1  0.37388947  0.75381043  0.61900738  1
  V  V62  1  0.24426676  0.25220561  0.00290595  1
  V  V63  1  0.37699798  0.86971347  0.00419100  1
  V  V64  1  0.12469050  0.87297826  0.25739837  1
  V  V65  1  0.61741293  0.87945888  0.25168607  1
  V  V66  1  0.26497984  0.60899341  0.36211959  1
  V  V67  1  0.00629529  0.00219343  0.50921870  1
  V  V68  1  0.87733620  0.87657200  0.50101744  1
  V  V69  1  0.50114005  0.12501417  0.12160507  1
  V  V70  1  0.75043413  0.74615179  0.00072410  1
  V  V71  1  0.12545770  0.25159633  0.87400064  1
  V  V72  1  0.12955543  0.50609444  0.62542358  1
  V  V73  1  0.88027194  0.25160124  0.12540939  1
  V  V74  1  0.00029196  0.74443923  0.25546053  1
  V  V75  1  -0.00777136  0.49196592  -0.00839735  1
  V  V76  1  0.87630865  0.87349422  0.00221014  1
  V  V77  1  0.75405480  0.62663562  0.36423315  1
  V  V78  1  0.49660466  0.12151718  0.62176307  1
  V  V79  1  0.36713114  0.25268461  0.62044901  1
  V  V80  1  0.36990493  0.12448422  0.74894160  1
  V  V81  1  0.75167052  0.60978925  0.87181707  1
  V  V82  1  0.75235054  0.37272417  0.12429883  1
  V  V83  1  0.24991178  0.87783971  0.61812153  1
  V  V84  1  0.50050961  0.88090519  0.39170236  1
  Zn  Zn85  1  0.87769848  0.74860655  0.62730528  1
  Zn  Zn86  1  0.00150407  0.62806553  0.61943812  1
  Zn  Zn87  1  0.87678060  0.37398626  -0.01354071  1
  Zn  Zn88  1  0.00557614  0.49316015  0.49296722  1
  Zn  Zn89  1  0.25251231  -0.00297524  0.25261744  1
  Zn  Zn90  1  -0.00522263  0.62022840  0.12629660  1
  Zn  Zn91  1  0.74185537  0.11762904  0.87214805  1
  Zn  Zn92  1  0.37196281  -0.00187164  0.87477707  1
  Zn  Zn93  1  0.48924163  0.50876593  0.00124496  1
  Zn  Zn94  1  0.87530982  0.25995059  0.62886655  1
  Zn  Zn95  1  0.75990603  0.48951850  0.74410107  1
  Zn  Zn96  1  0.62161053  0.62501861  -0.00008269  1
  Zn  Zn97  1  0.00853614  0.12839968  0.12452871  1
  Zn  Zn98  1  0.75245633  0.00223069  0.25094864  1
  Zn  Zn99  1  0.25307639  0.12512212  0.37972531  1
  Zn  Zn100  1  0.12433654  0.74813648  0.87424362  1
  Zn  Zn101  1  0.12218534  0.50175263  0.12647854  1
  Zn  Zn102  1  0.75029769  0.50391106  0.24567745  1
  Zn  Zn103  1  0.24491927  0.62171924  0.87121059  1
  Zn  Zn104  1  0.00522513  0.87105539  0.37928279  1
  Zn  Zn105  1  0.88097706  0.38050593  0.50589253  1
  Zn  Zn106  1  -0.00008452  0.74949186  0.74661162  1
  Zn  Zn107  1  0.18855064  0.18906157  0.19167695  1
  Zn  Zn108  1  0.18419282  0.19249424  0.68872245  1
  Zn  Zn109  1  0.18736559  0.68879151  0.18719450  1
  Zn  Zn110  1  0.18646079  0.69211173  0.68368816  1
  Zn  Zn111  1  0.68865450  0.18640849  0.19052550  1
  Zn  Zn112  1  0.68632190  0.18587808  0.68958739  1
  Zn  Zn113  1  0.64038773  0.67030482  0.20658818  1
  Zn  Zn114  1  0.69119268  0.68547110  0.68765854  1
  Zn  Zn115  1  0.30786560  0.31064475  0.30797277  1
  Zn  Zn116  1  0.30916977  0.31379562  0.81075390  1
  Zn  Zn117  1  0.32312269  0.81092380  0.30656391  1
  Zn  Zn118  1  0.31272479  0.81060153  0.81165004  1
  Zn  Zn119  1  0.80943908  0.31434247  0.31401717  1
  Zn  Zn120  1  0.79232797  0.30304617  0.80798547  1
  Zn  Zn121  1  0.81226352  0.81479991  0.31153984  1
  Zn  Zn122  1  0.81402251  0.80630052  0.81138817  1
  Zn  Zn123  1  0.19184988  0.44031667  0.43714432  1
  Zn  Zn124  1  0.18539748  0.43694462  0.94228993  1
  Zn  Zn125  1  0.19014888  0.94196215  0.43715220  1
  Zn  Zn126  1  0.18625492  0.93579181  0.93756000  1
  Zn  Zn127  1  0.68519715  0.44155255  0.43292543  1
  Zn  Zn128  1  0.68857381  0.42546869  0.93486530  1
  Zn  Zn129  1  0.68993453  0.94006816  0.44060476  1
  Zn  Zn130  1  0.68582910  0.93333705  0.94112846  1
  Zn  Zn131  1  0.31219295  0.06062028  0.06158057  1
  Zn  Zn132  1  0.30996342  0.06069495  0.56462212  1
  Zn  Zn133  1  0.31462501  0.56705177  0.06360968  1
  Zn  Zn134  1  0.31212985  0.56288867  0.55457758  1
  Zn  Zn135  1  0.81679055  0.06244585  0.06306602  1
  Zn  Zn136  1  0.81261196  0.06635266  0.56455810  1
  Zn  Zn137  1  0.81032281  0.55846234  0.05906717  1
  Zn  Zn138  1  0.81433272  0.56119856  0.56096257  1
  Zn  Zn139  1  0.42591701  0.44241617  0.18973873  1
  Zn  Zn140  1  0.43980218  0.43880160  0.68839064  1
  Zn  Zn141  1  0.43893833  0.93329374  0.18856376  1
  Zn  Zn142  1  0.43515837  0.93789827  0.68554068  1
  Zn  Zn143  1  0.94008315  0.44022383  0.18898725  1
  Zn  Zn144  1  0.94022877  0.44279461  0.67383077  1
  Zn  Zn145  1  0.93998709  0.93470957  0.18872113  1
  Zn  Zn146  1  0.93879569  0.94040032  0.68806791  1
  Zn  Zn147  1  0.06425931  0.06387909  0.31455584  1
  Zn  Zn148  1  0.06064819  0.06208784  0.81185626  1
  Zn  Zn149  1  0.06489352  0.56756617  0.31267896  1
  Zn  Zn150  1  0.06311361  0.55910312  0.81481309  1
  Zn  Zn151  1  0.55944425  0.06360972  0.31132622  1
  Zn  Zn152  1  0.55935450  0.05978060  0.80718872  1
  Zn  Zn153  1  0.51936452  0.54395739  0.28618799  1
  Zn  Zn154  1  0.55767343  0.56137473  0.81511774  1
  Zn  Zn155  1  0.43705890  0.18893966  0.43669517  1
  Zn  Zn156  1  0.43047903  0.18512807  0.93764546  1
  Zn  Zn157  1  0.43836013  0.68772313  0.43521576  1
  Zn  Zn158  1  0.43616037  0.68429547  0.93934747  1
  Zn  Zn159  1  0.94048117  0.19176000  0.44204917  1
  Zn  Zn160  1  0.93231634  0.18021194  0.94318839  1
  Zn  Zn161  1  0.93560756  0.68398899  0.43525580  1
  Zn  Zn162  1  0.93645658  0.68334871  0.93579222  1
  Zn  Zn163  1  0.06378526  0.31596147  0.06390980  1
  Zn  Zn164  1  0.06132070  0.31737428  0.56187990  1
  Zn  Zn165  1  0.06337899  0.81212842  0.06748307  1
  Zn  Zn166  1  0.06448851  0.80975997  0.56296423  1
  Zn  Zn167  1  0.56142379  0.31356950  0.06323143  1
  Zn  Zn168  1  0.55711156  0.31194361  0.56149634  1
  Zn  Zn169  1  0.56360381  0.81179057  0.06385810  1
  Zn  Zn170  1  0.56432128  0.81137193  0.56312893  1
  O  O171  1  0.12810346  0.10971662  0.13169251  1
  O  O172  1  0.11722986  0.13054779  0.61896097  1
  O  O173  1  0.12446465  0.62410929  0.11284385  1
  O  O174  1  0.13012683  0.61992357  0.61369836  1
  O  O175  1  0.62090326  0.11336328  0.12936626  1
  O  O176  1  0.61955359  0.11825391  0.62104175  1
  O  O177  1  0.63791541  0.60045970  0.11658558  1
  O  O178  1  0.61798134  0.62020296  0.61941288  1
  O  O179  1  0.37084409  0.36911911  0.38568818  1
  O  O180  1  0.37921619  0.38671078  0.86634861  1
  O  O181  1  0.38580595  0.88893558  0.37091614  1
  O  O182  1  0.38301581  0.87650707  0.87998358  1
  O  O183  1  0.86567377  0.39157804  0.37845917  1
  O  O184  1  0.88365479  0.36070467  0.86378626  1
  O  O185  1  0.87632745  0.88513823  0.38297301  1
  O  O186  1  0.88069804  0.87996929  0.87895599  1
  O  O187  1  0.26553369  0.00228076  0.37237937  1
  O  O188  1  0.24911628  0.00762818  0.87003014  1
  O  O189  1  0.25510285  0.50918269  0.37123508  1
  O  O190  1  0.26023490  0.49834827  0.87418704  1
  O  O191  1  0.76331108  0.00816681  0.37802601  1
  O  O192  1  0.76091630  -0.00079966  0.88299701  1
  O  O193  1  0.75172877  0.51463317  0.37191761  1
  O  O194  1  0.74454388  0.50692473  0.87164324  1
  O  O195  1  0.24919032  0.48809179  0.11771340  1
  O  O196  1  0.24195940  0.49383218  0.61967260  1
  O  O197  1  0.24393226  0.98918729  0.12526720  1
  O  O198  1  0.25341481  0.98929258  0.63389831  1
  O  O199  1  0.74594157  0.48469435  0.12458521  1
  O  O200  1  0.73315823  0.50604577  0.62552491  1
  O  O201  1  0.74358393  0.99417814  0.12328507  1
  O  O202  1  0.74375950  0.98824073  0.62104670  1
  O  O203  1  0.01495181  0.36680219  0.24615711  1
  O  O204  1  0.00801671  0.37426786  0.74982297  1
  O  O205  1  0.00830689  0.86733740  0.25312704  1
  O  O206  1  0.00807842  0.87728028  0.75676068  1
  O  O207  1  0.50576846  0.36145766  0.24169446  1
  O  O208  1  0.50457857  0.36736451  0.75851482  1
  O  O209  1  0.51382753  0.88208271  0.26098100  1
  O  O210  1  0.50733554  0.86976104  0.75282507  1
  O  O211  1  0.49174220  0.13363372  0.24249612  1
  O  O212  1  0.48934307  0.12981671  0.74380878  1
  O  O213  1  0.53101686  0.64769370  0.24063199  1
  O  O214  1  0.49082381  0.63074298  0.74382146  1
  O  O215  1  0.99463971  0.13344686  0.24784895  1
  O  O216  1  0.98908301  0.11824138  0.74121871  1
  O  O217  1  1.00488551  0.64015913  0.24559875  1
  O  O218  1  0.99001841  0.62567533  0.75254047  1
  O  O219  1  0.36696198  0.24713261  0.01299228  1
  O  O220  1  0.38246201  0.26507545  0.50687745  1
  O  O221  1  0.36749917  0.76263510  -0.00627735  1
  O  O222  1  0.36924594  0.74534198  0.51263255  1
  O  O223  1  0.86969628  0.25176732  0.00970280  1
  O  O224  1  0.85731295  0.24985476  0.49806694  1
  O  O225  1  0.86609127  0.75318382  0.00515148  1
  O  O226  1  0.86593487  0.75511781  0.50018457  1
  O  O227  1  0.11983163  0.24193691  0.49106073  1
  O  O228  1  0.12987836  0.25372136  0.98696008  1
  O  O229  1  0.13601343  0.73783903  0.50241273  1
  O  O230  1  0.13060808  0.74448257  0.99834216  1
  O  O231  1  0.63154134  0.24542607  0.49651887  1
  O  O232  1  0.63056351  0.25134030  0.99315303  1
  O  O233  1  0.63698407  0.74863305  0.49457295  1
  O  O234  1  0.63784931  0.75178664  0.99544021  1
  O  O235  1  0.49226747  0.24420263  0.12820186  1
  O  O236  1  0.48872738  0.24322765  0.63030983  1
  O  O237  1  0.49440728  0.75295324  0.12865021  1
  O  O238  1  0.49319246  0.74370503  0.62685584  1
  O  O239  1  0.99469240  0.24848309  0.13287257  1
  O  O240  1  0.99720237  0.23865734  0.62343366  1
  O  O241  1  0.98789983  0.74945419  0.13270010  1
  O  O242  1  0.99686790  0.74572095  0.62741351  1
  O  O243  1  0.00881672  0.24654235  0.36508781  1
  O  O244  1  0.00494943  0.24815717  0.87679716  1
  O  O245  1  -0.00676561  0.75213180  0.35999489  1
  O  O246  1  -0.00134893  0.76431272  0.87551185  1
  O  O247  1  0.50790031  0.24513045  0.36398857  1
  O  O248  1  0.49956469  0.25321832  0.87144401  1
  O  O249  1  0.51318166  0.76061873  0.38480066  1
  O  O250  1  0.50593431  0.75611390  0.86829674  1
  O  O251  1  0.23616781  0.12177215  0.50207950  1
  O  O252  1  0.25321367  0.13537929  0.99216181  1
  O  O253  1  0.24444106  0.63280627  0.48890951  1
  O  O254  1  0.24276128  0.63369360  0.99839276  1
  O  O255  1  0.73900135  0.13273747  0.49708729  1
  O  O256  1  0.75483406  0.13570892  0.99804461  1
  O  O257  1  0.74496854  0.63382125  0.49500218  1
  O  O258  1  0.74859322  0.63012412  0.98925631  1
  O  O259  1  0.24518597  0.36104132  0.00971236  1
  O  O260  1  0.26591368  0.38028538  0.50859876  1
  O  O261  1  0.25732724  0.87044507  0.00497576  1
  O  O262  1  0.24192516  0.86940782  0.51092952  1
  O  O263  1  0.75666242  0.36101655  0.00571198  1
  O  O264  1  0.74363797  0.36217234  0.49600411  1
  O  O265  1  0.75599053  0.86646141  0.00695090  1
  O  O266  1  0.75617587  0.86865863  0.50674973  1
  O  O267  1  0.12027994  0.48750873  0.24942707  1
  O  O268  1  0.12349637  0.49188190  0.74157133  1
  O  O269  1  0.12722879  0.99239781  0.24406511  1
  O  O270  1  0.13616511  0.99287352  0.75419382  1
  O  O271  1  0.62188874  0.48985480  0.23646787  1
  O  O272  1  0.61943270  0.49064112  0.74261929  1
  O  O273  1  0.62879034  0.99680847  0.24285018  1
  O  O274  1  0.62411642  0.99380475  0.73665854  1
  O  O275  1  0.37675265  0.00790653  0.25479786  1
  O  O276  1  0.36248514  0.00570083  0.75192190  1
  O  O277  1  0.41682712  0.53741668  0.24060812  1
  O  O278  1  0.37958043  0.50917040  0.75882110  1
  O  O279  1  0.87758965  0.00686126  0.25902094  1
  O  O280  1  0.87546009  0.00563283  0.76048515  1
  O  O281  1  0.86862095  0.49789541  0.26230327  1
  O  O282  1  0.87574511  0.51209421  0.74701268  1
  O  O283  1  0.13341249  0.36909290  0.36426745  1
  O  O284  1  0.13226662  0.36963450  0.86390063  1
  O  O285  1  0.12579108  0.88073248  0.36151450  1
  O  O286  1  0.11727624  0.87515032  0.86494052  1
  O  O287  1  0.62899622  0.36991974  0.36006860  1
  O  O288  1  0.61363679  0.36218591  0.86878926  1
  O  O289  1  0.62067603  0.87526398  0.37193665  1
  O  O290  1  0.62009906  0.86918530  0.86830429  1
  O  O291  1  0.37963658  0.13052558  0.13128005  1
  O  O292  1  0.37641706  0.13302207  0.62705129  1
  O  O293  1  0.38649898  0.63209457  0.11819753  1
  O  O294  1  0.37869083  0.62891662  0.62969619  1
  O  O295  1  0.87596135  0.13681175  0.13323039  1
  O  O296  1  0.88057802  0.13172338  0.63323043  1
  O  O297  1  0.86956325  0.63675537  0.12305032  1
  O  O298  1  0.87575920  0.62540951  0.63673943  1
  O  O299  1  0.25452637  0.25350056  0.11884029  1
  O  O300  1  0.26165067  0.25732869  0.62642069  1
  O  O301  1  0.24400075  0.76254728  0.11280278  1
  O  O302  1  0.25723153  0.75839822  0.61645720  1
  O  O303  1  0.75509707  0.25494477  0.12109068  1
  O  O304  1  0.74808356  0.24660431  0.61152834  1
  O  O305  1  0.75526064  0.75744189  0.11764467  1
  O  O306  1  0.74978379  0.76071603  0.61634934  1
  O  O307  1  0.23798554  0.24428560  0.37234446  1
  O  O308  1  0.24441197  0.24479208  0.88258245  1
  O  O309  1  0.25954081  0.75662452  0.38685187  1
  O  O310  1  0.24775174  0.75058368  0.88708175  1
  O  O311  1  0.74163949  0.24410650  0.38268558  1
  O  O312  1  0.73571201  0.24403849  0.88542372  1
  O  O313  1  0.74774064  0.74402886  0.38180400  1
  O  O314  1  0.74488771  0.74385493  0.88313931  1
  O  O315  1  -0.00198801  0.10951722  0.00459916  1
  O  O316  1  0.00697990  0.12054862  0.50893778  1
  O  O317  1  0.00435014  0.61755738  0.00226351  1
  O  O318  1  0.01563236  0.62575777  0.49538971  1
  O  O319  1  0.49214626  0.11119965  0.00388796  1
  O  O320  1  0.51382045  0.13264151  0.50565570  1
  O  O321  1  0.50991499  0.62001858  -0.01060464  1
  O  O322  1  0.50510303  0.61483859  0.50405150  1
  O  O323  1  0.48859957  0.38535460  0.50217003  1
  O  O324  1  0.49848556  0.37351247  0.98671637  1
  O  O325  1  0.50624388  0.87904617  0.49155439  1
  O  O326  1  0.49431021  0.88177361  0.99547868  1
  O  O327  1  0.99695604  0.37943897  0.49769447  1
  O  O328  1  0.99653411  0.38604443  1.00236058  1
  O  O329  1  0.99743520  0.88383883  0.49973660  1
  O  O330  1  0.99557783  0.88092446  0.99421182  1
  O  O331  1  0.51402638  0.49872740  0.39155525  1
  O  O332  1  0.48941409  0.48911753  0.87528188  1
  O  O333  1  0.48932917  0.99647574  0.37455839  1
  O  O334  1  0.49913803  0.99352943  0.88176192  1
  O  O335  1  0.98416149  0.50922708  0.37184554  1
  O  O336  1  1.00195939  0.50014634  0.89245427  1
  O  O337  1  0.99031160  1.00162506  0.38485201  1
  O  O338  1  0.99407387  0.99027606  0.88219238  1
  O  O339  1  0.00818453  -0.00083853  0.11795384  1
  O  O340  1  -0.00563676  0.01086316  0.61379070  1
  O  O341  1  0.00143787  0.50311129  0.11600505  1
  O  O342  1  0.01734353  0.50820396  0.61837296  1
  O  O343  1  0.50740330  0.00380316  0.11802527  1
  O  O344  1  0.50659963  0.00902630  0.62808072  1
  O  O345  1  0.51708215  0.48162296  0.11363819  1
  O  O346  1  0.50735289  0.50601979  0.61726295  1
  O  O347  1  0.23683544  0.36975373  0.24034980  1
  O  O348  1  0.24389908  0.37371603  0.73585387  1
  O  O349  1  0.24504961  0.87248844  0.24223580  1
  O  O350  1  0.24372606  0.88097107  0.74460623  1
  O  O351  1  0.74006963  0.37378846  0.24057395  1
  O  O352  1  0.72962388  0.37623792  0.75205849  1
  O  O353  1  0.74378118  0.88207152  0.24353055  1
  O  O354  1  0.74156704  0.86817267  0.74140351  1
  O  O355  1  0.26438047  0.12328691  0.25107742  1
  O  O356  1  0.25089287  0.11819443  0.75405764  1
  O  O357  1  0.24566465  0.63271506  0.26533072  1
  O  O358  1  0.26176241  0.63317326  0.75055503  1
  O  O359  1  0.76002022  0.12494047  0.25943679  1
  O  O360  1  0.76672088  0.13482632  0.75393921  1
  O  O361  1  0.73876819  0.62687851  0.26259748  1
  O  O362  1  0.75939586  0.62059825  0.75617785  1
  O  O363  1  0.37698030  0.11574016  0.36878368  1
  O  O364  1  0.36016231  0.12404345  0.86730849  1
  O  O365  1  0.36358326  0.62607559  0.37901420  1
  O  O366  1  0.37124937  0.61323601  0.86522216  1
  O  O367  1  0.87325887  0.12051652  0.37236270  1
  O  O368  1  0.87516235  0.11301468  0.86866498  1
  O  O369  1  0.85886484  0.61981443  0.37536239  1
  O  O370  1  0.86529299  0.62798632  0.86196773  1
  O  O371  1  0.13374788  0.37483728  0.13672114  1
  O  O372  1  0.13500262  0.38106539  0.63095667  1
  O  O373  1  0.13194451  0.88367720  0.13410562  1
  O  O374  1  0.13325023  0.87241755  0.63686392  1
  O  O375  1  0.63425160  0.37581641  0.13117660  1
  O  O376  1  0.61329282  0.38264803  0.63426786  1
  O  O377  1  0.62963602  0.88468529  0.13312359  1
  O  O378  1  0.63094632  0.88187950  0.62876046  1
  O  O379  1  0.11916439  0.25609710  0.25831548  1
  O  O380  1  0.12697751  0.26120243  0.76352825  1
  O  O381  1  0.10931561  0.75969386  0.24110037  1
  O  O382  1  0.12306553  0.75924332  0.75430371  1
  O  O383  1  0.61697330  0.25435305  0.25389617  1
  O  O384  1  0.61573013  0.25390674  0.75586440  1
  O  O385  1  0.63759368  0.76798180  0.26584874  1
  O  O386  1  0.61911961  0.75528048  0.75226484  1
  O  O387  1  0.38104489  0.24284464  0.24301884  1
  O  O388  1  0.37691425  0.24429163  0.74229987  1
  O  O389  1  0.38740991  0.74080255  0.24729658  1
  O  O390  1  0.38024959  0.74346222  0.74003244  1
  O  O391  1  0.88320836  0.24789852  0.24756602  1
  O  O392  1  0.88574847  0.24768241  0.75600381  1
  O  O393  1  0.88614884  0.75790612  0.24174276  1
  O  O394  1  0.87734985  0.73635703  0.74731197  1
  O  O395  1  0.38779612  0.48905315  0.50184279  1
  O  O396  1  0.37195525  0.50226489  0.98221325  1
  O  O397  1  0.37604267  1.00535958  0.48750451  1
  O  O398  1  0.38211680  0.98855070  0.99746821  1
  O  O399  1  0.87507351  0.50304080  0.48431985  1
  O  O400  1  0.88571798  0.49418850  1.00058801  1
  O  O401  1  0.88206027  0.99808921  0.49507612  1
  O  O402  1  0.88282881  0.99260811  0.99464463  1
  O  O403  1  0.11626509  -0.00806918  0.01007735  1
  O  O404  1  0.11466309  0.01102239  0.49343194  1
  O  O405  1  0.11576334  0.50641657  0.00308661  1
  O  O406  1  0.12870111  0.51355318  0.50377241  1
  O  O407  1  0.61452144  -0.00597457  0.00919776  1
  O  O408  1  0.62949833  0.00934195  0.51292191  1
  O  O409  1  0.62945339  0.49065073  0.00917083  1
  O  O410  1  0.61638221  0.50107536  0.50735583  1
  O  O411  1  0.36471243  0.36476339  0.13406528  1
  O  O412  1  0.36993706  0.37008195  0.62243436  1
  O  O413  1  0.36571196  0.88035731  0.11643487  1
  O  O414  1  0.36451620  0.86525585  0.62988635  1
  O  O415  1  0.86830717  0.36270940  0.13022974  1
  O  O416  1  0.87139327  0.37334207  0.62201848  1
  O  O417  1  0.86829052  0.86964095  0.12026600  1
  O  O418  1  0.86809017  0.87553763  0.61993589  1
  O  O419  1  0.12736640  0.13308324  0.38369376  1
  O  O420  1  0.13546453  0.13314009  0.86860388  1
  O  O421  1  0.13735317  0.62335305  0.38445436  1
  O  O422  1  0.12670083  0.62676689  0.88601208  1
  O  O423  1  0.62929548  0.12804874  0.38282733  1
  O  O424  1  0.62169985  0.13513001  0.86852283  1
  O  O425  1  0.63647032  0.63813510  0.38426193  1
  O  O426  1  0.63537110  0.63135449  0.86979970  1
