# generated using pymatgen
data_V85Zn86O256
_symmetry_space_group_name_H-M   'P 1'
_cell_length_a   16.96292376
_cell_length_b   16.94775202
_cell_length_c   16.94926920
_cell_angle_alpha   89.98871947
_cell_angle_beta   89.79274933
_cell_angle_gamma   90.02422495
_symmetry_Int_Tables_number   1
_chemical_formula_structural   V85Zn86O256
_chemical_formula_sum   'V85 Zn86 O256'
_cell_volume   4872.60155898
_cell_formula_units_Z   1
loop_
 _symmetry_equiv_pos_site_id
 _symmetry_equiv_pos_as_xyz
  1  'x, y, z'
loop_
 _atom_site_type_symbol
 _atom_site_label
 _atom_site_symmetry_multiplicity
 _atom_site_fract_x
 _atom_site_fract_y
 _atom_site_fract_z
 _atom_site_occupancy
  V  V0  1  0.49012527  0.23733512  0.24529388  1
  V  V1  1  0.87499419  0.62500753  0.24890776  1
  V  V2  1  0.37704947  0.74928310  0.62636990  1
  V  V3  1  0.87409920  0.25082928  0.12791915  1
  V  V4  1  0.87620115  0.87229390  0.49883438  1
  V  V5  1  0.87698431  0.13092037  0.75009706  1
  V  V6  1  0.87187480  0.74213233  0.62403130  1
  V  V7  1  0.75206661  0.87299850  0.62266337  1
  V  V8  1  -0.00136814  0.13135323  0.62856837  1
  V  V9  1  0.49473237  0.12675824  0.63387795  1
  V  V10  1  0.75059242  0.63130903  0.38465199  1
  V  V11  1  0.24828632  0.25924206  0.50557136  1
  V  V12  1  0.74550438  0.87421084  0.12564453  1
  V  V13  1  0.00722730  0.62465498  0.61989467  1
  V  V14  1  0.87547720  0.75075477  0.12458799  1
  V  V15  1  0.12869677  0.12646420  0.50182873  1
  V  V16  1  0.87462547  0.37980758  0.50248143  1
  V  V17  1  0.62267116  0.25165092  0.86988961  1
  V  V18  1  0.62590316  0.12884443  0.50281414  1
  V  V19  1  0.49900913  0.87587768  0.87791358  1
  V  V20  1  0.00227507  0.00158364  0.49646976  1
  V  V21  1  0.25106338  0.74623888  -0.00078142  1
  V  V22  1  0.74510154  0.49745856  0.25215857  1
  V  V23  1  0.50494337  0.38014037  0.36829476  1
  V  V24  1  0.74769754  0.25133199  0.00181701  1
  V  V25  1  -0.00083928  0.74533428  0.74584238  1
  V  V26  1  0.37205942  0.25172134  0.63168527  1
  V  V27  1  0.62538945  0.00167133  0.62698487  1
  V  V28  1  0.12813235  0.48208808  0.12774170  1
  V  V29  1  0.87712769  0.12432930  0.25203098  1
  V  V30  1  0.12525875  0.62488258  0.00413143  1
  V  V31  1  0.49754875  0.75058543  0.75342276  1
  V  V32  1  0.37612896  0.87193406  0.49356620  1
  V  V33  1  0.87479134  0.87606300  -0.00454337  1
  V  V34  1  0.74337390  0.37565604  0.12925943  1
  V  V35  1  0.62629123  0.62950713  0.50238556  1
  V  V36  1  0.74090208  0.38824611  0.62473469  1
  V  V37  1  0.63139524  0.74541718  0.87715646  1
  V  V38  1  0.87579180  0.00187696  0.87268149  1
  V  V39  1  0.62583334  0.25613052  0.36789879  1
  V  V40  1  -0.00134961  0.12360508  0.12148841  1
  V  V41  1  0.37771253  0.51111653  0.36803748  1
  V  V42  1  0.62475535  0.62551609  0.00361058  1
  V  V43  1  0.24268086  0.87288298  0.63178104  1
  V  V44  1  0.00110344  0.00100998  -0.00399422  1
  V  V45  1  0.37363595  0.37967715  0.50318687  1
  V  V46  1  0.36956085  0.49127795  0.88365904  1
  V  V47  1  0.11920307  0.25167646  0.86616708  1
  V  V48  1  0.61868864  0.12292905  0.00815724  1
  V  V49  1  0.13291199  0.49745655  0.61888607  1
  V  V50  1  0.87722305  0.50186921  0.37485176  1
  V  V51  1  0.12124827  -0.00738343  0.13506338  1
  V  V52  1  0.00487292  0.75590526  0.24977835  1
  V  V53  1  0.74522981  -0.00343048  0.25084899  1
  V  V54  1  0.62010340  0.39259800  0.74885236  1
  V  V55  1  0.24830661  0.49102475  0.74486213  1
  V  V56  1  0.37253647  0.87547885  0.00365060  1
  V  V57  1  0.00677798  0.25285581  0.24909176  1
  V  V58  1  0.24653289  0.87370800  0.13448697  1
  V  V59  1  0.88076924  0.37855291  -0.00280529  1
  V  V60  1  0.37336166  0.00750281  0.87161577  1
  V  V61  1  0.75145551  0.12584452  0.37540763  1
  V  V62  1  0.87357499  0.25631539  0.63521425  1
  V  V63  1  0.49499464  0.49655035  0.00410250  1
  V  V64  1  0.24973149  0.62785189  0.36402917  1
  V  V65  1  0.12609233  0.75246901  0.86827364  1
  V  V66  1  0.75064628  0.00138945  0.74952269  1
  V  V67  1  0.00036879  0.37515806  0.36951235  1
  V  V68  1  0.61645636  0.50434981  0.13121103  1
  V  V69  1  0.01432346  0.50435138  0.49404215  1
  V  V70  1  0.13549371  0.12299418  -0.00246793  1
  V  V71  1  0.37687581  0.73184080  0.13128890  1
  V  V72  1  0.35930640  0.24466401  0.12159778  1
  V  V73  1  0.75015337  0.13002113  0.87444757  1
  V  V74  1  0.62838320  0.75978985  0.37270853  1
  V  V75  1  0.50775918  0.74522240  0.24243693  1
  V  V76  1  0.24578550  0.74319709  0.50238106  1
  V  V77  1  0.37260568  0.62205806  0.75324459  1
  V  V78  1  0.12606784  0.75634013  0.37423934  1
  V  V79  1  0.49922039  -0.00322405  0.49818102  1
  V  V80  1  0.50575314  0.50210827  0.50656158  1
  V  V81  1  0.00181768  0.87701304  0.86220442  1
  V  V82  1  0.62541343  0.87714810  0.75112547  1
  V  V83  1  0.24797067  0.00456032  0.74472916  1
  V  V84  1  0.13414456  0.24977243  0.37269882  1
  Zn  Zn85  1  0.75046646  0.25287599  0.49949136  1
  Zn  Zn86  1  0.76050436  0.73694370  -0.00958371  1
  Zn  Zn87  1  0.24710983  0.62438405  0.87201972  1
  Zn  Zn88  1  0.61865238  -0.00210321  0.13233956  1
  Zn  Zn89  1  0.49180528  0.00678599  0.00739781  1
  Zn  Zn90  1  0.12159861  -0.00390973  0.62881228  1
  Zn  Zn91  1  0.86737130  0.52571802  0.85496096  1
  Zn  Zn92  1  0.49292999  0.24908735  0.75417397  1
  Zn  Zn93  1  0.87792940  -0.00014547  0.37489541  1
  Zn  Zn94  1  0.25551211  0.12929338  0.86981805  1
  Zn  Zn95  1  0.00183200  0.62166826  0.12519134  1
  Zn  Zn96  1  0.24887034  0.26758285  -0.00258033  1
  Zn  Zn97  1  0.37802694  0.02943785  0.35278797  1
  Zn  Zn98  1  0.25239851  0.48996472  0.24015105  1
  Zn  Zn99  1  0.00574033  0.88186219  0.36999473  1
  Zn  Zn100  1  -0.00494367  0.38028493  0.85199994  1
  Zn  Zn101  1  0.49536765  0.37204192  0.88208964  1
  Zn  Zn102  1  0.25503028  0.00568799  0.26049289  1
  Zn  Zn103  1  -0.00020799  0.50210003  -0.00589320  1
  Zn  Zn104  1  0.12399023  0.36355773  0.73509434  1
  Zn  Zn105  1  0.50542393  0.87823146  0.36502233  1
  Zn  Zn106  1  0.50417398  0.62190586  0.62775608  1
  Zn  Zn107  1  0.18919630  0.17966979  0.18860439  1
  Zn  Zn108  1  0.19263605  0.18198353  0.68398413  1
  Zn  Zn109  1  0.19008178  0.68627571  0.18734418  1
  Zn  Zn110  1  0.18468873  0.68284785  0.68645920  1
  Zn  Zn111  1  0.68539038  0.18762211  0.19141286  1
  Zn  Zn112  1  0.69051162  0.19391575  0.68722071  1
  Zn  Zn113  1  0.68936788  0.68532308  0.18733152  1
  Zn  Zn114  1  0.68146547  0.69579061  0.68171204  1
  Zn  Zn115  1  0.31724632  0.31747070  0.31082010  1
  Zn  Zn116  1  0.30440343  0.31348251  0.81606313  1
  Zn  Zn117  1  0.31643560  0.81538907  0.31027378  1
  Zn  Zn118  1  0.31221102  0.81679104  0.81320511  1
  Zn  Zn119  1  0.81434635  0.31309933  0.31268959  1
  Zn  Zn120  1  0.79294813  0.35672117  0.82841762  1
  Zn  Zn121  1  0.81535989  0.81467262  0.31297687  1
  Zn  Zn122  1  0.81264147  0.69835441  0.81058504  1
  Zn  Zn123  1  0.20026052  0.42564839  0.40445611  1
  Zn  Zn124  1  0.18043700  0.44015461  0.93127881  1
  Zn  Zn125  1  0.19297609  0.93870916  0.43836107  1
  Zn  Zn126  1  0.18805020  0.93580303  0.93586732  1
  Zn  Zn127  1  0.68809993  0.44199888  0.43965449  1
  Zn  Zn128  1  0.68770466  0.44416058  0.94000599  1
  Zn  Zn129  1  0.69050161  0.93941799  0.43941465  1
  Zn  Zn130  1  0.68989586  0.93750930  0.93738649  1
  Zn  Zn131  1  0.31533665  0.06049051  0.07473145  1
  Zn  Zn132  1  0.33208448  0.08271289  0.52178872  1
  Zn  Zn133  1  0.31273339  0.43087836  0.06605899  1
  Zn  Zn134  1  0.31602392  0.56447201  0.55928285  1
  Zn  Zn135  1  0.80912194  0.06265091  0.06302901  1
  Zn  Zn136  1  0.81487931  0.06257973  0.56160378  1
  Zn  Zn137  1  0.80913837  0.56163274  0.06083886  1
  Zn  Zn138  1  0.80954311  0.56328658  0.68228977  1
  Zn  Zn139  1  0.43887316  0.43023436  0.19129475  1
  Zn  Zn140  1  0.43720273  0.43655461  0.68759580  1
  Zn  Zn141  1  0.43981352  0.93606477  0.18923536  1
  Zn  Zn142  1  0.43346942  0.93841526  0.68626750  1
  Zn  Zn143  1  0.94079425  0.43912034  0.18211415  1
  Zn  Zn144  1  0.94626605  0.43636741  0.68614154  1
  Zn  Zn145  1  0.93527055  0.93804030  0.18672623  1
  Zn  Zn146  1  0.93710728  0.93975299  0.68428465  1
  Zn  Zn147  1  0.08391889  0.07081163  0.30521025  1
  Zn  Zn148  1  0.06730656  0.06586894  0.80938829  1
  Zn  Zn149  1  0.06776209  0.56921054  0.30898732  1
  Zn  Zn150  1  0.05685172  0.56059096  0.81035269  1
  Zn  Zn151  1  0.56439921  0.06346862  0.31640561  1
  Zn  Zn152  1  0.56070715  0.06386892  0.81722498  1
  Zn  Zn153  1  0.56206323  0.57084385  0.31287486  1
  Zn  Zn154  1  0.55650162  0.56535951  0.82018619  1
  Zn  Zn155  1  0.44413189  0.19592796  0.44058455  1
  Zn  Zn156  1  0.43642157  0.19085742  0.94387908  1
  Zn  Zn157  1  0.44203898  0.68996545  0.43285842  1
  Zn  Zn158  1  0.43831821  0.68020071  0.94234859  1
  Zn  Zn159  1  0.93861642  0.19062298  0.44036409  1
  Zn  Zn160  1  0.93754342  0.19214541  0.93849868  1
  Zn  Zn161  1  0.93896782  0.68897656  0.43817774  1
  Zn  Zn162  1  0.94454878  0.68787892  0.93821156  1
  Zn  Zn163  1  0.06510986  0.30730656  0.05826619  1
  Zn  Zn164  1  0.05912870  0.31600093  0.56297221  1
  Zn  Zn165  1  0.06110598  0.81179998  0.05856722  1
  Zn  Zn166  1  0.06417320  0.81241742  0.55728421  1
  Zn  Zn167  1  0.56054664  0.31332401  0.06712533  1
  Zn  Zn168  1  0.56040267  0.31347563  0.56175332  1
  Zn  Zn169  1  0.55890576  0.81308286  0.06315774  1
  Zn  Zn170  1  0.56444973  0.81024000  0.56052053  1
  O  O171  1  0.11534488  0.11345806  0.11335861  1
  O  O172  1  0.11426537  0.12468990  0.61900398  1
  O  O173  1  0.12597602  0.62890141  0.11163261  1
  O  O174  1  0.11507852  0.61702090  0.61992587  1
  O  O175  1  0.63208364  0.12429974  0.11064021  1
  O  O176  1  0.62166261  0.12288354  0.61962650  1
  O  O177  1  0.62637994  0.61453393  0.12031509  1
  O  O178  1  0.62093841  0.63496901  0.60704458  1
  O  O179  1  0.38830594  0.38330154  0.38744150  1
  O  O180  1  0.37758947  0.38875280  0.86407976  1
  O  O181  1  0.38385075  0.85998969  0.39154298  1
  O  O182  1  0.38031237  0.88118038  0.88457064  1
  O  O183  1  0.88255456  0.37918452  0.38133211  1
  O  O184  1  0.88652753  0.35279140  0.89548684  1
  O  O185  1  0.87898482  0.87816809  0.38558682  1
  O  O186  1  0.88634578  0.88535148  0.88274273  1
  O  O187  1  0.27081978  -0.02071997  0.37282672  1
  O  O188  1  0.25638510  -0.00184596  0.86353925  1
  O  O189  1  0.26119336  0.52315830  0.38918688  1
  O  O190  1  0.25369832  0.50515836  0.86291553  1
  O  O191  1  0.75365699  0.00723034  0.36848535  1
  O  O192  1  0.75647672  0.00715903  0.86858937  1
  O  O193  1  0.75693883  0.50683090  0.36790007  1
  O  O194  1  0.77138350  0.46229982  0.87162121  1
  O  O195  1  0.23442281  0.49686894  0.12530827  1
  O  O196  1  0.24358680  0.51008225  0.63013129  1
  O  O197  1  0.23752245  0.99007910  0.12824921  1
  O  O198  1  0.25253343  0.99013349  0.63692906  1
  O  O199  1  0.74187342  0.49405961  0.13385185  1
  O  O200  1  0.74806412  0.48625897  0.61847334  1
  O  O201  1  0.74797370  0.99192231  0.13223909  1
  O  O202  1  0.74412410  0.99822604  0.63000543  1
  O  O203  1  -0.01013881  0.36520023  0.25790145  1
  O  O204  1  0.01079578  0.36588761  0.74016931  1
  O  O205  1  -0.01366627  0.85899614  0.25349568  1
  O  O206  1  -0.00154794  0.87225244  0.75814470  1
  O  O207  1  0.50123531  0.36624712  0.26574908  1
  O  O208  1  0.51300344  0.37112487  0.74663192  1
  O  O209  1  0.49393030  0.85368850  0.25224500  1
  O  O210  1  0.50309799  0.87307050  0.76111488  1
  O  O211  1  0.49992881  0.13931448  0.25925432  1
  O  O212  1  0.50303059  0.12607815  0.73760220  1
  O  O213  1  0.49534005  0.64467741  0.25655794  1
  O  O214  1  0.48804032  0.62906065  0.74880407  1
  O  O215  1  0.99457664  0.13191244  0.24284774  1
  O  O216  1  0.99330590  0.11939577  0.73668950  1
  O  O217  1  0.98815674  0.63406897  0.24893705  1
  O  O218  1  1.00404722  0.63487851  0.73547533  1
  O  O219  1  0.37029779  0.24956665  0.01642714  1
  O  O220  1  0.36700246  0.26210796  0.50717380  1
  O  O221  1  0.36919595  0.75351876  0.00564644  1
  O  O222  1  0.37326501  0.75404691  0.51054816  1
  O  O223  1  0.86802267  0.25408449  0.01152111  1
  O  O224  1  0.87372017  0.26512792  0.50484737  1
  O  O225  1  0.87699717  0.76009301  0.00790284  1
  O  O226  1  0.88269110  0.76440254  0.50829669  1
  O  O227  1  0.13163953  0.24917054  0.49802187  1
  O  O228  1  0.12823487  0.23868598  0.99162738  1
  O  O229  1  0.13583545  0.75048211  0.49133299  1
  O  O230  1  0.13132569  0.74513263  0.99222771  1
  O  O231  1  0.62473774  0.24227675  0.49176091  1
  O  O232  1  0.62761891  0.24227562  0.99389140  1
  O  O233  1  0.62119234  0.74216342  0.48657007  1
  O  O234  1  0.62253833  0.74186950  0.99341395  1
  O  O235  1  0.49763159  0.25326323  0.14286134  1
  O  O236  1  0.49197706  0.24268986  0.62529510  1
  O  O237  1  0.48935423  0.75049289  0.13153596  1
  O  O238  1  0.49232312  0.75099946  0.63454345  1
  O  O239  1  0.99617659  0.24454954  0.13233757  1
  O  O240  1  0.98764987  0.24176081  0.61683533  1
  O  O241  1  0.99009056  0.75003206  0.13078384  1
  O  O242  1  0.99872464  0.74483248  0.62799914  1
  O  O243  1  0.00091899  0.25800246  0.36703705  1
  O  O244  1  0.01711174  0.24533502  0.87650510  1
  O  O245  1  0.01019661  0.74876618  0.36757706  1
  O  O246  1  0.00545814  0.75787287  0.86463577  1
  O  O247  1  0.50700273  0.25980019  0.37061658  1
  O  O248  1  0.50572194  0.25286061  0.87417781  1
  O  O249  1  0.51275785  0.75279870  0.36566533  1
  O  O250  1  0.50369551  0.75687617  0.87131789  1
  O  O251  1  0.23218614  0.13710126  0.50842086  1
  O  O252  1  0.23844188  0.11794022  1.00078092  1
  O  O253  1  0.25700264  0.64099907  0.49498892  1
  O  O254  1  0.24248996  0.64105213  0.99302745  1
  O  O255  1  0.73967263  0.12489791  0.49631545  1
  O  O256  1  0.74448557  0.13362507  0.99371317  1
  O  O257  1  0.74262416  0.62380167  0.48516994  1
  O  O258  1  0.73287393  0.62459009  1.00486453  1
  O  O259  1  0.25277238  0.37947109  -0.01142204  1
  O  O260  1  0.25956597  0.36854344  0.49215957  1
  O  O261  1  0.25644271  0.86404559  0.00201723  1
  O  O262  1  0.26067147  0.86421720  0.51102450  1
  O  O263  1  0.75799634  0.36778592  0.01187752  1
  O  O264  1  0.75474454  0.37612717  0.50906477  1
  O  O265  1  0.76452813  0.87607819  0.00381093  1
  O  O266  1  0.76110620  0.88540978  0.51311266  1
  O  O267  1  0.12351251  0.50797101  0.22981730  1
  O  O268  1  0.13451634  0.50592068  0.73699474  1
  O  O269  1  0.09442273  0.97939109  0.23048252  1
  O  O270  1  0.14151191  1.00012093  0.74820877  1
  O  O271  1  0.63447389  0.50757063  0.24548846  1
  O  O272  1  0.61759117  0.49110196  0.75284813  1
  O  O273  1  0.64046375  1.00731285  0.25043887  1
  O  O274  1  0.62865298  0.99634931  0.74699757  1
  O  O275  1  0.36915939  -0.00043132  0.24563377  1
  O  O276  1  0.36459369  -0.00717249  0.76080409  1
  O  O277  1  0.37516063  0.49628374  0.26545874  1
  O  O278  1  0.36821917  0.50633651  0.75223960  1
  O  O279  1  0.86790391  0.00948702  0.25129755  1
  O  O280  1  0.87035744  0.00850736  0.75391170  1
  O  O281  1  0.87111264  0.50823244  0.25369862  1
  O  O282  1  0.87837652  0.50129357  0.74301531  1
  O  O283  1  0.10522394  0.36231346  0.38426556  1
  O  O284  1  0.11847945  0.36014625  0.87224327  1
  O  O285  1  0.12405438  0.86100914  0.38030881  1
  O  O286  1  0.11433203  0.86238413  0.88162109  1
  O  O287  1  0.61906507  0.36692770  0.38319796  1
  O  O288  1  0.62184222  0.37008532  0.86165695  1
  O  O289  1  0.62939613  0.86389450  0.37858144  1
  O  O290  1  0.61570263  0.87166413  0.87339001  1
  O  O291  1  0.37174699  0.14349621  0.12965187  1
  O  O292  1  0.38531222  0.13754396  0.61425349  1
  O  O293  1  0.37150965  0.63764106  0.12181964  1
  O  O294  1  0.37740639  0.63667241  0.63222014  1
  O  O295  1  0.87897692  0.13096639  0.13032019  1
  O  O296  1  0.87918299  0.13474033  0.62806008  1
  O  O297  1  0.87485713  0.63241988  0.13098467  1
  O  O298  1  0.88433602  0.63935910  0.61864445  1
  O  O299  1  0.25395795  0.24755103  0.12539789  1
  O  O300  1  0.25655699  0.25005272  0.61484637  1
  O  O301  1  0.25882155  0.75381433  0.11790181  1
  O  O302  1  0.25502651  0.75366807  0.62109047  1
  O  O303  1  0.75250411  0.25795142  0.12502288  1
  O  O304  1  0.75812759  0.25899913  0.61883504  1
  O  O305  1  0.76301907  0.75538402  0.12415700  1
  O  O306  1  0.76009714  0.76316198  0.62492883  1
  O  O307  1  0.23716408  0.24988886  0.38437392  1
  O  O308  1  0.24000768  0.24476320  0.87912799  1
  O  O309  1  0.24767839  0.74383625  0.37951851  1
  O  O310  1  0.24190711  0.75181554  0.87955910  1
  O  O311  1  0.74294889  0.24571426  0.37621620  1
  O  O312  1  0.74011593  0.25253585  0.88246477  1
  O  O313  1  0.74243981  0.74150982  0.36363711  1
  O  O314  1  0.73403795  0.76115199  0.87641087  1
  O  O315  1  0.00495895  0.11879892  0.00349360  1
  O  O316  1  0.00269455  0.11991107  0.51104828  1
  O  O317  1  0.01199085  0.62601893  0.00468392  1
  O  O318  1  -0.00425935  0.61528315  0.50572434  1
  O  O319  1  0.51553225  0.12463968  -0.00223022  1
  O  O320  1  0.51385519  0.11776190  0.51067715  1
  O  O321  1  0.51103566  0.60995238  -0.00020713  1
  O  O322  1  0.50772522  0.61869569  0.49864969  1
  O  O323  1  0.49680994  0.38423709  0.49265151  1
  O  O324  1  0.50835616  0.38988452  0.99988480  1
  O  O325  1  0.49665833  0.88234143  0.49988428  1
  O  O326  1  0.49019640  0.87064862  0.98816662  1
  O  O327  1  0.99168660  0.38337358  0.49329339  1
  O  O328  1  0.98493800  0.37318227  1.00755100  1
  O  O329  1  0.99414177  0.88509627  0.49920431  1
  O  O330  1  0.99064485  0.88051073  0.99148407  1
  O  O331  1  0.49586315  0.49761401  0.38033365  1
  O  O332  1  0.48880102  0.49710933  0.88592232  1
  O  O333  1  0.49845314  0.99657875  0.38480898  1
  O  O334  1  0.49173209  0.99240337  0.87994604  1
  O  O335  1  0.99868769  0.49586820  0.37534484  1
  O  O336  1  0.98967565  0.49674082  0.87672851  1
  O  O337  1  1.00307015  1.00317091  0.38696518  1
  O  O338  1  0.99842213  0.99487763  0.87682155  1
  O  O339  1  -0.00085405  0.00229338  0.11164878  1
  O  O340  1  0.00141014  0.00754146  0.61407397  1
  O  O341  1  0.01172282  0.50306695  0.11870544  1
  O  O342  1  0.00818324  0.50911625  0.61205486  1
  O  O343  1  0.51009376  -0.01904076  0.11494323  1
  O  O344  1  0.50710462  0.00605398  0.62207042  1
  O  O345  1  0.51119058  0.49251423  0.12480346  1
  O  O346  1  0.49541979  0.50282611  0.61050247  1
  O  O347  1  0.23937912  0.39340341  0.29786761  1
  O  O348  1  0.24323388  0.38796040  0.74848754  1
  O  O349  1  0.24749957  0.86900826  0.23588534  1
  O  O350  1  0.25387358  0.88190368  0.74004012  1
  O  O351  1  0.75696583  0.38887568  0.24519616  1
  O  O352  1  0.73114623  0.36890908  0.73313868  1
  O  O353  1  0.76043778  0.88573026  0.23926417  1
  O  O354  1  0.74132006  0.88616961  0.73601316  1
  O  O355  1  0.19046186  0.09880116  0.26255801  1
  O  O356  1  0.25484006  0.10876869  0.74907463  1
  O  O357  1  0.25224555  0.62100046  0.26213753  1
  O  O358  1  0.26185234  0.62147639  0.75026343  1
  O  O359  1  0.75806345  0.12078700  0.25557791  1
  O  O360  1  0.75569604  0.12191880  0.75573021  1
  O  O361  1  0.76013916  0.61620329  0.25479952  1
  O  O362  1  0.74975365  0.63552811  0.74233921  1
  O  O363  1  0.37173818  0.11767374  0.41908114  1
  O  O364  1  0.37517768  0.11128994  0.88357831  1
  O  O365  1  0.36559697  0.62265884  0.37902491  1
  O  O366  1  0.37364417  0.61387347  0.86805891  1
  O  O367  1  0.86865430  0.12573119  0.37129727  1
  O  O368  1  0.86992162  0.12354739  0.87033413  1
  O  O369  1  0.86902420  0.62327005  0.36818293  1
  O  O370  1  0.86301850  0.63434280  0.88802225  1
  O  O371  1  0.12070509  0.38317950  0.12374172  1
  O  O372  1  0.12518671  0.39257913  0.61755934  1
  O  O373  1  0.13563236  0.88152051  0.11032757  1
  O  O374  1  0.13923300  0.87603679  0.61847070  1
  O  O375  1  0.63824798  0.38202035  0.12387983  1
  O  O376  1  0.63257509  0.37271488  0.63141504  1
  O  O377  1  0.64361858  0.87093837  0.11498064  1
  O  O378  1  0.63244308  0.87993406  0.62796421  1
  O  O379  1  0.11260952  0.24835490  0.25806283  1
  O  O380  1  0.13449602  0.24471814  0.76253283  1
  O  O381  1  0.11510364  0.74422160  0.25621773  1
  O  O382  1  0.11587392  0.74731334  0.75708139  1
  O  O383  1  0.61595965  0.24649588  0.26293196  1
  O  O384  1  0.62256047  0.25064800  0.76252908  1
  O  O385  1  0.61629077  0.74682314  0.25310308  1
  O  O386  1  0.61536842  0.75881218  0.75787157  1
  O  O387  1  0.38435313  0.24920112  0.24977859  1
  O  O388  1  0.37217325  0.25889227  0.73569134  1
  O  O389  1  0.37903214  0.74935317  0.23543719  1
  O  O390  1  0.37828756  0.74357738  0.74701789  1
  O  O391  1  0.88231319  0.24286058  0.24605988  1
  O  O392  1  0.86795411  0.24697478  0.73768361  1
  O  O393  1  0.87866361  0.74166391  0.24314212  1
  O  O394  1  0.89062774  0.75477767  0.73835566  1
  O  O395  1  0.38410433  0.49687652  0.49223018  1
  O  O396  1  0.38163841  0.50004024  0.99449328  1
  O  O397  1  0.39174963  0.98337365  0.51757412  1
  O  O398  1  0.37130987  0.99053771  0.99497017  1
  O  O399  1  0.88591032  0.48731231  0.48919699  1
  O  O400  1  0.87524528  0.48310052  1.00743440  1
  O  O401  1  0.88449354  0.99201964  0.50008234  1
  O  O402  1  0.88051903  0.99653852  0.99334177  1
  O  O403  1  0.11692966  0.00502495  0.00039304  1
  O  O404  1  0.12052755  0.00914310  0.50245453  1
  O  O405  1  0.12309022  0.50949690  0.00743354  1
  O  O406  1  0.11649598  0.49623469  0.49730575  1
  O  O407  1  0.62974496  0.01783618  -0.00381811  1
  O  O408  1  0.61690971  0.00597471  0.50569387  1
  O  O409  1  0.62008941  0.50575379  0.00947031  1
  O  O410  1  0.61585056  0.51432833  0.49099838  1
  O  O411  1  0.37125470  0.35880873  0.13577956  1
  O  O412  1  0.38162470  0.36943982  0.61074852  1
  O  O413  1  0.36444908  0.86919464  0.11176999  1
  O  O414  1  0.36917575  0.86164767  0.62220535  1
  O  O415  1  0.86565537  0.36900296  0.12049497  1
  O  O416  1  0.86408576  0.37197285  0.61824745  1
  O  O417  1  0.86951475  0.86907189  0.11611383  1
  O  O418  1  0.86973452  0.86939293  0.61959148  1
  O  O419  1  0.10484806  0.14321988  0.39417127  1
  O  O420  1  0.12833124  0.13149281  0.88176687  1
  O  O421  1  0.14124345  0.63550399  0.37342567  1
  O  O422  1  0.12310541  0.63660126  0.88235814  1
  O  O423  1  0.63141549  0.13270416  0.38461015  1
  O  O424  1  0.63113859  0.13377968  0.88187730  1
  O  O425  1  0.63359571  0.63576635  0.37939143  1
  O  O426  1  0.61942498  0.63599509  0.88447589  1
