# generated using pymatgen
data_V85Zn86O256
_symmetry_space_group_name_H-M   'P 1'
_cell_length_a   16.92657448
_cell_length_b   16.92857678
_cell_length_c   16.92633612
_cell_angle_alpha   89.99586358
_cell_angle_beta   89.93126562
_cell_angle_gamma   89.92473865
_symmetry_Int_Tables_number   1
_chemical_formula_structural   V85Zn86O256
_chemical_formula_sum   'V85 Zn86 O256'
_cell_volume   4850.11232733
_cell_formula_units_Z   1
loop_
 _symmetry_equiv_pos_site_id
 _symmetry_equiv_pos_as_xyz
  1  'x, y, z'
loop_
 _atom_site_type_symbol
 _atom_site_label
 _atom_site_symmetry_multiplicity
 _atom_site_fract_x
 _atom_site_fract_y
 _atom_site_fract_z
 _atom_site_occupancy
  V  V0  1  0.24839081  0.88234282  0.62287130  1
  V  V1  1  0.86674504  0.87636324  0.00741751  1
  V  V2  1  0.87353506  0.01445194  0.86861276  1
  V  V3  1  0.24858929  0.37342077  0.62383604  1
  V  V4  1  0.75782999  0.36924747  0.12260890  1
  V  V5  1  0.37712180  0.50381163  0.36723502  1
  V  V6  1  0.25116382  0.01594107  0.24659086  1
  V  V7  1  0.24828184  0.75450908  0.00627338  1
  V  V8  1  0.11379522  0.37499530  0.75036021  1
  V  V9  1  0.12061546  0.25582011  0.87516907  1
  V  V10  1  0.86399530  0.13325945  0.24862409  1
  V  V11  1  0.50046695  0.74250001  0.25146778  1
  V  V12  1  0.74853557  0.63309782  0.87914649  1
  V  V13  1  0.75419990  0.37288242  0.62627624  1
  V  V14  1  0.88073187  0.62993667  0.25836495  1
  V  V15  1  0.49912853  0.49933503  0.50098275  1
  V  V16  1  0.87828265  0.23810994  0.62739242  1
  V  V17  1  0.37495939  0.74903060  0.62652319  1
  V  V18  1  0.49786032  0.37314879  0.88330293  1
  V  V19  1  0.37192017  0.87536203  0.00717779  1
  V  V20  1  0.87929853  0.75247022  0.62423423  1
  V  V21  1  0.37392048  0.37059690  0.49700629  1
  V  V22  1  0.01454965  0.37119911  0.37401637  1
  V  V23  1  0.00011011  0.49589744  -0.00143963  1
  V  V24  1  0.49638499  0.87230226  0.37362647  1
  V  V25  1  0.86939132  0.00943136  0.37766929  1
  V  V26  1  0.87530040  0.37542409  0.49063836  1
  V  V27  1  0.13460564  0.87022984  0.24421128  1
  V  V28  1  0.12247992  0.63065928  0.50041680  1
  V  V29  1  0.01366854  0.25053337  0.25731012  1
  V  V30  1  0.12085898  0.49823281  0.13047649  1
  V  V31  1  0.62852937  0.74629364  0.37789707  1
  V  V32  1  0.37317612  0.49466344  0.88498016  1
  V  V33  1  0.87680179  0.49166456  0.87683466  1
  V  V34  1  0.75408744  0.01712549  0.75077105  1
  V  V35  1  0.25258477  0.62839313  0.36880503  1
  V  V36  1  0.49716225  0.62183645  0.12770320  1
  V  V37  1  0.37394518  0.00021037  0.87587202  1
  V  V38  1  0.25966196  0.25590299  -0.00310375  1
  V  V39  1  -0.00698131  0.87177493  0.35703173  1
  V  V40  1  0.25193048  0.37851554  0.12234916  1
  V  V41  1  0.75630730  0.49413598  0.25797041  1
  V  V42  1  0.37135178  0.74799002  0.13277495  1
  V  V43  1  0.49369578  0.12395606  0.12806230  1
  V  V44  1  0.24867462  0.49899864  0.75036604  1
  V  V45  1  0.23962551  0.24078579  0.48543813  1
  V  V46  1  0.12435427  0.87723283  0.75035908  1
  V  V47  1  0.37489338  0.62310473  0.75160940  1
  V  V48  1  0.24823348  0.75056965  0.50058483  1
  V  V49  1  0.50532962  0.74872690  0.75449361  1
  V  V50  1  0.00063683  0.00393554  0.00162544  1
  V  V51  1  0.62487422  0.49917639  0.62693389  1
  V  V52  1  0.50122429  0.12423252  0.62193313  1
  V  V53  1  0.24608214  0.49467849  0.25276454  1
  V  V54  1  0.75319127  0.87605142  0.62574591  1
  V  V55  1  0.51036021  0.37542820  0.36741543  1
  V  V56  1  0.74474068  0.24638131  0.48711458  1
  V  V57  1  0.12361683  0.50185020  0.62440555  1
  V  V58  1  0.63234797  0.24538850  0.87471222  1
  V  V59  1  0.12747511  0.12815278  0.00181356  1
  V  V60  1  0.62640786  0.00049833  0.62215563  1
  V  V61  1  -0.00262210  0.62655934  0.62398692  1
  V  V62  1  -0.00450710  0.87784341  0.87640314  1
  V  V63  1  0.87582799  0.62599795  0.75467560  1
  V  V64  1  0.12349233  0.75034423  0.87954066  1
  V  V65  1  0.88086942  0.87725775  0.49751990  1
  V  V66  1  0.62363325  0.37422961  0.75353083  1
  V  V67  1  0.63151516  0.12474898  -0.00266264  1
  V  V68  1  0.49823745  0.00083868  0.00106559  1
  V  V69  1  -0.00159666  0.13335572  0.12826854  1
  V  V70  1  0.37308974  0.24976665  0.62357744  1
  V  V71  1  -0.00513064  0.50164251  0.49222231  1
  V  V72  1  0.62605199  0.49297116  0.13096340  1
  V  V73  1  0.06741913  0.05716579  0.54167375  1
  V  V74  1  0.24663412  0.00251149  0.74880040  1
  V  V75  1  0.24854437  0.62524937  0.87647517  1
  V  V76  1  0.63342720  -0.00660142  0.12423698  1
  V  V77  1  0.62976677  0.87315630  0.75592647  1
  V  V78  1  0.51252293  0.25446365  0.24842982  1
  V  V79  1  0.62435754  0.62878951  -0.00081044  1
  V  V80  1  0.37446024  0.25395771  0.13132272  1
  V  V81  1  0.50106062  0.87246325  0.87523116  1
  V  V82  1  0.37093558  0.01408552  0.37265668  1
  V  V83  1  -0.00118648  0.23561935  0.74581529  1
  V  V84  1  0.37294247  0.12493298  0.74849836  1
  Zn  Zn85  1  0.62779221  0.62338108  0.50188653  1
  Zn  Zn86  1  0.37619879  0.87533072  0.49830006  1
  Zn  Zn87  1  0.87075983  0.75115605  0.13223650  1
  Zn  Zn88  1  0.50201307  -0.00281920  0.49607548  1
  Zn  Zn89  1  0.74929798  0.74599310  0.50195247  1
  Zn  Zn90  1  -0.00253409  0.62966917  0.12986084  1
  Zn  Zn91  1  0.50241162  0.62453378  0.62694407  1
  Zn  Zn92  1  0.49800404  0.49723680  0.00404709  1
  Zn  Zn93  1  0.12064834  0.62633436  0.00522493  1
  Zn  Zn94  1  0.74178120  0.75720642  0.00677715  1
  Zn  Zn95  1  0.75245573  0.61643724  0.38027212  1
  Zn  Zn96  1  0.49863708  0.24861298  0.75084576  1
  Zn  Zn97  1  0.63023260  0.86603994  0.24218247  1
  Zn  Zn98  1  0.75038637  0.50034063  0.75400388  1
  Zn  Zn99  1  0.11735080  0.75155788  0.37279688  1
  Zn  Zn100  1  0.24995892  0.12787789  0.87353143  1
  Zn  Zn101  1  0.88414446  0.36722436  0.00119144  1
  Zn  Zn102  1  0.75975264  0.24496956  -0.00049733  1
  Zn  Zn103  1  0.12864809  -0.00062103  0.12651097  1
  Zn  Zn104  1  0.64242966  0.11424495  0.47949630  1
  Zn  Zn105  1  -0.00051425  0.75319667  0.75112434  1
  Zn  Zn106  1  0.74959855  -0.00447483  0.25133301  1
  Zn  Zn107  1  0.18843765  0.19006333  0.18696586  1
  Zn  Zn108  1  0.18010364  0.18252121  0.67319871  1
  Zn  Zn109  1  0.18542151  0.68490262  0.18925711  1
  Zn  Zn110  1  0.18548975  0.69083192  0.68957126  1
  Zn  Zn111  1  0.68393321  0.18522425  0.18378630  1
  Zn  Zn112  1  0.68546815  0.19053115  0.68133109  1
  Zn  Zn113  1  0.69408797  0.68433100  0.18657937  1
  Zn  Zn114  1  0.69089328  0.68725193  0.68854727  1
  Zn  Zn115  1  0.31585375  0.31381158  0.31242188  1
  Zn  Zn116  1  0.31005539  0.31351273  0.81069611  1
  Zn  Zn117  1  0.30961049  0.81527548  0.31126141  1
  Zn  Zn118  1  0.31348512  0.81320996  0.81500458  1
  Zn  Zn119  1  0.81609459  0.31463144  0.30895358  1
  Zn  Zn120  1  0.81395568  0.30864334  0.81156961  1
  Zn  Zn121  1  0.80543136  0.81448477  0.30694657  1
  Zn  Zn122  1  0.81293156  0.81428861  0.81538122  1
  Zn  Zn123  1  0.18789053  0.43869697  0.44016389  1
  Zn  Zn124  1  0.18327794  0.43678744  0.93972121  1
  Zn  Zn125  1  0.16930204  0.97019285  0.42313047  1
  Zn  Zn126  1  0.18774158  0.93905356  0.93840993  1
  Zn  Zn127  1  0.68662340  0.43270688  0.44021600  1
  Zn  Zn128  1  0.68915817  0.44339235  0.94155839  1
  Zn  Zn129  1  0.69029247  0.93056125  0.43425668  1
  Zn  Zn130  1  0.68921857  0.94416754  0.93287655  1
  Zn  Zn131  1  0.31078807  0.06575437  0.06592462  1
  Zn  Zn132  1  0.31283648  0.06307475  0.55690190  1
  Zn  Zn133  1  0.30988380  0.56738189  0.06432832  1
  Zn  Zn134  1  0.31329597  0.56326296  0.56087661  1
  Zn  Zn135  1  0.81711362  0.06574163  0.06191556  1
  Zn  Zn136  1  0.81819047  0.06310667  0.56080249  1
  Zn  Zn137  1  0.81317357  0.56263912  0.06679579  1
  Zn  Zn138  1  0.81196409  0.56140547  0.56262935  1
  Zn  Zn139  1  0.43346484  0.43577033  0.18640143  1
  Zn  Zn140  1  0.43740050  0.43606764  0.69111252  1
  Zn  Zn141  1  0.43645698  0.93513388  0.19129729  1
  Zn  Zn142  1  0.43760214  0.93672027  0.68713433  1
  Zn  Zn143  1  0.93671730  0.43676517  0.19190294  1
  Zn  Zn144  1  0.93558670  0.43766795  0.68448571  1
  Zn  Zn145  1  0.93704025  0.94813677  0.18791387  1
  Zn  Zn146  1  0.94353428  0.94986023  0.68210946  1
  Zn  Zn147  1  0.05938772  0.06368003  0.32573274  1
  Zn  Zn148  1  0.06532645  0.06323444  0.81470807  1
  Zn  Zn149  1  0.06419588  0.56173808  0.31547024  1
  Zn  Zn150  1  0.05947260  0.56283667  0.81535690  1
  Zn  Zn151  1  0.55938995  0.05976763  0.30511656  1
  Zn  Zn152  1  0.56304715  0.06173931  0.81013804  1
  Zn  Zn153  1  0.56667744  0.56295543  0.31056216  1
  Zn  Zn154  1  0.56253353  0.56177506  0.81591127  1
  Zn  Zn155  1  0.48035343  0.16804403  0.41462765  1
  Zn  Zn156  1  0.44035142  0.18757297  0.93726366  1
  Zn  Zn157  1  0.43874695  0.68489995  0.43968007  1
  Zn  Zn158  1  0.43700278  0.68564376  0.93957377  1
  Zn  Zn159  1  0.93951061  0.18759427  0.43943232  1
  Zn  Zn160  1  0.94064614  0.19332134  0.93626361  1
  Zn  Zn161  1  0.93349292  0.69078707  0.43282338  1
  Zn  Zn162  1  0.93826213  0.68742691  0.94525506  1
  Zn  Zn163  1  0.06445531  0.31465265  0.06741209  1
  Zn  Zn164  1  0.06165472  0.30882190  0.56175692  1
  Zn  Zn165  1  0.05320516  0.81286317  0.06955992  1
  Zn  Zn166  1  0.08089466  0.85528392  0.54331902  1
  Zn  Zn167  1  0.56699563  0.31266821  0.06213738  1
  Zn  Zn168  1  0.56256697  0.31217980  0.56104215  1
  Zn  Zn169  1  0.55941782  0.80970064  0.06149006  1
  Zn  Zn170  1  0.56192065  0.81443895  0.56294020  1
  O  O171  1  0.12070449  0.12779787  0.11404540  1
  O  O172  1  0.12731472  0.11081223  0.60392767  1
  O  O173  1  0.12327901  0.61220244  0.12581583  1
  O  O174  1  0.11725940  0.62404093  0.62085856  1
  O  O175  1  0.61381130  0.11684366  0.11642376  1
  O  O176  1  0.61807434  0.11453107  0.62285332  1
  O  O177  1  0.61342107  0.61708093  0.12111760  1
  O  O178  1  0.62535856  0.61013083  0.62822383  1
  O  O179  1  0.38098196  0.38615276  0.38237818  1
  O  O180  1  0.38417235  0.38313436  0.86716663  1
  O  O181  1  0.38666694  0.87064117  0.37532404  1
  O  O182  1  0.37924086  0.87964939  0.88594165  1
  O  O183  1  0.88438407  0.37104659  0.38777551  1
  O  O184  1  0.86939231  0.38925415  0.87351848  1
  O  O185  1  0.87803049  0.87874962  0.37687183  1
  O  O186  1  0.88589894  0.88314989  0.87870917  1
  O  O187  1  0.26400909  -0.00383282  0.36353424  1
  O  O188  1  0.25672278  0.00271131  0.86716554  1
  O  O189  1  0.25583566  0.50547582  0.37057703  1
  O  O190  1  0.25481822  0.50344298  0.87097787  1
  O  O191  1  0.76330880  -0.00213404  0.37296158  1
  O  O192  1  0.76057179  0.00036320  0.86285697  1
  O  O193  1  0.74308587  0.49354360  0.36133920  1
  O  O194  1  0.75958170  0.51105227  0.87462904  1
  O  O195  1  0.24725913  0.49707168  0.13259147  1
  O  O196  1  0.24362121  0.49541855  0.62882478  1
  O  O197  1  0.24964472  1.00346849  0.14038100  1
  O  O198  1  0.26033690  0.98729904  0.63224609  1
  O  O199  1  0.74294871  0.49195469  0.13335521  1
  O  O200  1  0.74321511  0.48800054  0.62764555  1
  O  O201  1  0.73456995  1.00516029  0.12105122  1
  O  O202  1  0.74509106  0.99558366  0.63034051  1
  O  O203  1  -0.00683988  0.35938930  0.25874184  1
  O  O204  1  0.01167204  0.37205185  0.74453750  1
  O  O205  1  0.00430762  0.87844858  0.25375762  1
  O  O206  1  0.00859308  0.87794735  0.75784803  1
  O  O207  1  0.49765943  0.36636383  0.25279735  1
  O  O208  1  0.51121207  0.37427523  0.75848325  1
  O  O209  1  0.50405822  0.86009340  0.25457162  1
  O  O210  1  0.50674965  0.86857968  0.75496992  1
  O  O211  1  0.49882297  0.14044933  0.23757280  1
  O  O212  1  0.49298442  0.12402970  0.73893366  1
  O  O213  1  0.49908874  0.63402475  0.24389878  1
  O  O214  1  0.49541883  0.63212142  0.75011727  1
  O  O215  1  0.99845733  0.13301745  0.24839672  1
  O  O216  1  1.00986710  0.13628447  0.74747135  1
  O  O217  1  0.98466764  0.61530441  0.25334704  1
  O  O218  1  0.98975647  0.62763835  0.74580064  1
  O  O219  1  0.36376101  0.24737583  0.00412002  1
  O  O220  1  0.36959615  0.26495142  0.50514928  1
  O  O221  1  0.36835543  0.75600879  0.00808797  1
  O  O222  1  0.37052386  0.74588693  0.51425633  1
  O  O223  1  0.87200117  0.25508701  -0.00498147  1
  O  O224  1  0.86698310  0.25770064  0.50821414  1
  O  O225  1  0.87372860  0.77071068  -0.00606665  1
  O  O226  1  0.87243554  0.75670487  0.50877624  1
  O  O227  1  0.14060940  0.25499341  0.50212418  1
  O  O228  1  0.13088322  0.24761361  0.99259490  1
  O  O229  1  0.13281138  0.75160995  0.49738228  1
  O  O230  1  0.13077021  0.75411074  0.99384313  1
  O  O231  1  0.64270188  0.25020360  0.50687260  1
  O  O232  1  0.62579086  0.24079745  0.99221396  1
  O  O233  1  0.62436124  0.74636952  0.49415152  1
  O  O234  1  0.62257506  0.73505470  1.00275679  1
  O  O235  1  0.49398310  0.24935427  0.12981042  1
  O  O236  1  0.49332511  0.24263255  0.62616446  1
  O  O237  1  0.49369560  0.74211523  0.13261093  1
  O  O238  1  0.49226565  0.74954900  0.63579244  1
  O  O239  1  1.00534820  0.24135350  0.13803921  1
  O  O240  1  0.98954305  0.25578692  0.63289825  1
  O  O241  1  0.98487972  0.74279998  0.11850830  1
  O  O242  1  0.98755937  0.74525532  0.62785787  1
  O  O243  1  0.00065920  0.25478265  0.36633523  1
  O  O244  1  0.01448344  0.24995335  0.86484097  1
  O  O245  1  -0.00184432  0.76682557  0.37354301  1
  O  O246  1  0.00719629  0.75968845  0.87701339  1
  O  O247  1  0.48478216  0.26383139  0.35411749  1
  O  O248  1  0.50804215  0.25787760  0.87245584  1
  O  O249  1  0.50494791  0.75037536  0.36918378  1
  O  O250  1  0.49179670  0.75486489  0.86198029  1
  O  O251  1  0.25813816  0.14272743  0.49927344  1
  O  O252  1  0.24257572  0.13521428  0.99953361  1
  O  O253  1  0.24431450  0.63432461  0.49550507  1
  O  O254  1  0.24708067  0.63825329  0.99419372  1
  O  O255  1  0.75341446  0.14085778  0.50053460  1
  O  O256  1  0.73578219  0.12538298  1.00484478  1
  O  O257  1  0.74705676  0.62629482  0.49788270  1
  O  O258  1  0.74258564  0.62363464  0.99425504  1
  O  O259  1  0.24645257  0.36689482  0.00777266  1
  O  O260  1  0.25754666  0.37444378  0.50736212  1
  O  O261  1  0.25687902  0.86402026  -0.00333541  1
  O  O262  1  0.25632890  0.85959312  0.50947342  1
  O  O263  1  0.75035297  0.37714150  0.01450605  1
  O  O264  1  0.75737415  0.36908249  0.50740846  1
  O  O265  1  0.76333798  0.87821678  -0.00818303  1
  O  O266  1  0.76100621  0.87125927  0.50786570  1
  O  O267  1  0.13470325  0.50190600  0.24474545  1
  O  O268  1  0.12811320  0.49442007  0.74612512  1
  O  O269  1  0.13785323  0.99647445  0.25357293  1
  O  O270  1  0.13804562  0.99187613  0.75609954  1
  O  O271  1  0.63748165  0.50542073  0.23980563  1
  O  O272  1  0.62607716  0.49164766  0.74469460  1
  O  O273  1  0.62386757  1.00097371  0.23286091  1
  O  O274  1  0.63263416  0.99318808  0.74283108  1
  O  O275  1  0.36215000  -0.00584394  0.25854729  1
  O  O276  1  0.36579247  0.00391043  0.75449030  1
  O  O277  1  0.36934865  0.49981186  0.26210478  1
  O  O278  1  0.36828746  0.50482734  0.75774000  1
  O  O279  1  0.87113565  0.01404439  0.25731339  1
  O  O280  1  0.86613667  -0.00415462  0.75554695  1
  O  O281  1  0.86112272  0.50348311  0.25152575  1
  O  O282  1  0.87542657  0.50872484  0.75696177  1
  O  O283  1  0.11384281  0.37896112  0.37797842  1
  O  O284  1  0.13173891  0.36745763  0.86271199  1
  O  O285  1  0.10855076  0.87912427  0.36115841  1
  O  O286  1  0.11798417  0.87070367  0.86936646  1
  O  O287  1  0.60904224  0.37591438  0.37893191  1
  O  O288  1  0.61997632  0.37204179  0.86971620  1
  O  O289  1  0.61146992  0.86592340  0.37448502  1
  O  O290  1  0.62022486  0.88010424  0.86273563  1
  O  O291  1  0.38639444  0.13698343  0.11622252  1
  O  O292  1  0.37918131  0.12738271  0.63241818  1
  O  O293  1  0.38795168  0.63284262  0.11961979  1
  O  O294  1  0.37635591  0.63087910  0.63331192  1
  O  O295  1  0.88437559  0.12191711  0.13873009  1
  O  O296  1  0.86639215  0.13940503  0.62990042  1
  O  O297  1  0.87522787  0.61935266  0.14376693  1
  O  O298  1  0.87758995  0.63149932  0.63393505  1
  O  O299  1  0.25558137  0.25823426  0.11900911  1
  O  O300  1  0.25537247  0.25787177  0.62017160  1
  O  O301  1  0.25831023  0.74287747  0.11800065  1
  O  O302  1  0.25745714  0.75452407  0.62198282  1
  O  O303  1  0.74032013  0.26670570  0.12408386  1
  O  O304  1  0.75647066  0.26146577  0.62207994  1
  O  O305  1  0.75658059  0.74694824  0.11911622  1
  O  O306  1  0.76272864  0.75719377  0.62789549  1
  O  O307  1  0.25295044  0.25780586  0.38669981  1
  O  O308  1  0.24176081  0.25001809  0.88119970  1
  O  O309  1  0.25163232  0.74335474  0.38394450  1
  O  O310  1  0.24307399  0.74688392  0.88242666  1
  O  O311  1  0.75206046  0.25835643  0.38866192  1
  O  O312  1  0.73566300  0.25435957  0.87595745  1
  O  O313  1  0.73525914  0.75019260  0.37719562  1
  O  O314  1  0.75365647  0.73715852  0.87974948  1
  O  O315  1  0.00746605  0.12448678  0.00872179  1
  O  O316  1  -0.00882295  0.12255733  0.51308260  1
  O  O317  1  0.00104558  0.61142601  0.00429403  1
  O  O318  1  0.00126754  0.61967042  0.50235809  1
  O  O319  1  0.50702543  0.11885392  0.00593946  1
  O  O320  1  0.49062336  0.11723582  0.51787978  1
  O  O321  1  0.50540806  0.62145259  0.00763929  1
  O  O322  1  0.50071188  0.60981692  0.50520890  1
  O  O323  1  0.49322942  0.38229863  0.49415056  1
  O  O324  1  0.50402504  0.37745295  0.98736146  1
  O  O325  1  0.49614427  0.87690747  0.49105181  1
  O  O326  1  0.49218714  0.87894585  0.99346987  1
  O  O327  1  0.99475015  0.38069843  0.49475615  1
  O  O328  1  1.00206314  0.38895575  1.00593957  1
  O  O329  1  0.98448891  0.87193493  0.48394689  1
  O  O330  1  0.99450803  0.88557277  0.99212578  1
  O  O331  1  0.49402318  0.49676643  0.37980488  1
  O  O332  1  0.48999764  0.49228099  0.87636023  1
  O  O333  1  0.48577850  0.98779637  0.36806423  1
  O  O334  1  0.49347664  0.99380194  0.88040222  1
  O  O335  1  1.00284193  0.49264965  0.38736120  1
  O  O336  1  0.99002110  0.50364085  0.88430487  1
  O  O337  1  0.97800396  0.98444985  0.36665516  1
  O  O338  1  0.99654920  0.99399574  0.87954030  1
  O  O339  1  0.00545386  0.01590122  0.12056255  1
  O  O340  1  0.00767028  -0.00094277  0.60650967  1
  O  O341  1  0.00794324  0.49902835  0.12275254  1
  O  O342  1  0.00516294  0.50658836  0.61640058  1
  O  O343  1  0.50094278  0.00822331  0.12077148  1
  O  O344  1  0.50995509  0.00346544  0.62559391  1
  O  O345  1  0.50493590  0.50541258  0.12713614  1
  O  O346  1  0.50688951  0.49726911  0.61871664  1
  O  O347  1  0.25623218  0.38824225  0.24310794  1
  O  O348  1  0.24197928  0.38096046  0.74118973  1
  O  O349  1  0.23678359  0.88283583  0.25207500  1
  O  O350  1  0.24605642  0.88216457  0.74670908  1
  O  O351  1  0.75451923  0.38435028  0.23968336  1
  O  O352  1  0.73988782  0.37574526  0.74384037  1
  O  O353  1  0.74124568  0.88180832  0.24836635  1
  O  O354  1  0.74338702  0.87850231  0.74507931  1
  O  O355  1  0.24760662  0.11542286  0.25172542  1
  O  O356  1  0.25182618  0.11715143  0.74697147  1
  O  O357  1  0.24789611  0.61649564  0.26343693  1
  O  O358  1  0.25293067  0.61933778  0.75661497  1
  O  O359  1  0.76088379  0.12535907  0.24496788  1
  O  O360  1  0.74291214  0.11575002  0.74701566  1
  O  O361  1  0.75748033  0.60999532  0.25529332  1
  O  O362  1  0.76101902  0.62365069  0.75724208  1
  O  O363  1  0.38334369  0.11150829  0.37462472  1
  O  O364  1  0.37405276  0.11986820  0.86628965  1
  O  O365  1  0.36478530  0.61505526  0.38466120  1
  O  O366  1  0.36839094  0.61764493  0.87038200  1
  O  O367  1  0.87956057  0.11555744  0.36572651  1
  O  O368  1  0.88501408  0.11292970  0.87443189  1
  O  O369  1  0.87120898  0.62217492  0.36506964  1
  O  O370  1  0.87084049  0.62078505  0.86978699  1
  O  O371  1  0.13863338  0.38685343  0.12431356  1
  O  O372  1  0.12993512  0.38169854  0.63057971  1
  O  O373  1  0.11787833  0.88034572  0.14089515  1
  O  O374  1  0.13734144  0.85622231  0.64623124  1
  O  O375  1  0.63131358  0.38831765  0.12111055  1
  O  O376  1  0.62970711  0.38172694  0.63240888  1
  O  O377  1  0.61515796  0.89093089  0.12044745  1
  O  O378  1  0.62913561  0.88389103  0.63399152  1
  O  O379  1  0.11301455  0.24712943  0.25256584  1
  O  O380  1  0.12182471  0.25628817  0.75235295  1
  O  O381  1  0.13278128  0.76511274  0.25423427  1
  O  O382  1  0.12386173  0.75616419  0.76618794  1
  O  O383  1  0.61117122  0.25135763  0.24488895  1
  O  O384  1  0.62201762  0.25734905  0.75532693  1
  O  O385  1  0.61614064  0.74510816  0.25773224  1
  O  O386  1  0.61638214  0.75898619  0.74385001  1
  O  O387  1  0.37799671  0.25436167  0.23413498  1
  O  O388  1  0.37481332  0.24267122  0.74325824  1
  O  O389  1  0.37891562  0.75385796  0.23814685  1
  O  O390  1  0.37915410  0.74527512  0.74251372  1
  O  O391  1  0.88439076  0.23580640  0.25623125  1
  O  O392  1  0.88734602  0.25661990  0.74172960  1
  O  O393  1  0.86926335  0.73333926  0.25454783  1
  O  O394  1  0.87746445  0.74398278  0.74555095  1
  O  O395  1  0.38086473  0.49152706  0.49488502  1
  O  O396  1  0.37338803  0.50405753  0.98796716  1
  O  O397  1  0.37413923  0.99532039  0.48367233  1
  O  O398  1  0.37607725  0.99284169  0.99774607  1
  O  O399  1  0.88496208  0.48934910  0.50844023  1
  O  O400  1  0.88194415  0.49726356  0.99308648  1
  O  O401  1  0.86948532  0.99333006  0.48654623  1
  O  O402  1  0.87933103  0.99437910  0.99074476  1
  O  O403  1  0.12163906  0.01046862  0.00136775  1
  O  O404  1  0.13012812  -0.04148067  0.52758843  1
  O  O405  1  0.11868158  0.50290828  0.00849203  1
  O  O406  1  0.11805718  0.50940805  0.50639322  1
  O  O407  1  0.61850449  0.00507355  0.00575795  1
  O  O408  1  0.62627901  -0.00131322  0.50870204  1
  O  O409  1  0.62220416  0.51067474  0.01164234  1
  O  O410  1  0.61654907  0.49636915  0.51010776  1
  O  O411  1  0.36277775  0.37061235  0.12113628  1
  O  O412  1  0.36954714  0.37245638  0.61911659  1
  O  O413  1  0.38139036  0.86562025  0.11359542  1
  O  O414  1  0.36687275  0.86560663  0.62624219  1
  O  O415  1  0.86097081  0.37923408  0.12363453  1
  O  O416  1  0.86731875  0.37036293  0.61772934  1
  O  O417  1  0.87910068  0.88436004  0.10868725  1
  O  O418  1  0.87511880  0.87065374  0.61783316  1
  O  O419  1  0.10502481  0.06687513  0.42888938  1
  O  O420  1  0.12757490  0.13359072  0.88657691  1
  O  O421  1  0.13291380  0.62931781  0.38293293  1
  O  O422  1  0.12918376  0.63479780  0.87812534  1
  O  O423  1  0.58603644  0.13002256  0.38561825  1
  O  O424  1  0.61625726  0.13335074  0.88352820  1
  O  O425  1  0.62578781  0.63255093  0.38006796  1
  O  O426  1  0.63486885  0.61742263  0.88524456  1
