# generated using pymatgen
data_V85Zn86O256
_symmetry_space_group_name_H-M   'P 1'
_cell_length_a   16.91488368
_cell_length_b   16.91662347
_cell_length_c   16.91724973
_cell_angle_alpha   89.99787247
_cell_angle_beta   89.94589381
_cell_angle_gamma   90.06364280
_symmetry_Int_Tables_number   1
_chemical_formula_structural   V85Zn86O256
_chemical_formula_sum   'V85 Zn86 O256'
_cell_volume   4840.74267423
_cell_formula_units_Z   1
loop_
 _symmetry_equiv_pos_site_id
 _symmetry_equiv_pos_as_xyz
  1  'x, y, z'
loop_
 _atom_site_type_symbol
 _atom_site_label
 _atom_site_symmetry_multiplicity
 _atom_site_fract_x
 _atom_site_fract_y
 _atom_site_fract_z
 _atom_site_occupancy
  V  V0  1  0.62481760  0.62089434  0.00046151  1
  V  V1  1  -0.00937404  0.38057345  0.38480950  1
  V  V2  1  0.12713950  0.62917968  0.00299403  1
  V  V3  1  0.25023563  0.63122261  0.87885843  1
  V  V4  1  0.24676029  0.86497962  0.12086204  1
  V  V5  1  0.37291713  0.37558170  0.49698191  1
  V  V6  1  0.49630872  0.12144197  0.11608470  1
  V  V7  1  0.74738753  0.12216863  0.38032793  1
  V  V8  1  0.49970518  0.62783621  0.62654079  1
  V  V9  1  -0.00718618  0.24348104  0.75256495  1
  V  V10  1  0.37452790  0.25931169  0.12237081  1
  V  V11  1  0.00211368  0.37740901  0.87425556  1
  V  V12  1  0.49931295  0.25161315  0.74041898  1
  V  V13  1  0.24526156  0.12349466  0.37839253  1
  V  V14  1  0.12432989  0.25018739  0.38207056  1
  V  V15  1  0.37108675  0.49071409  0.87861701  1
  V  V16  1  0.63041778  0.74709123  0.37367665  1
  V  V17  1  0.62619090  0.75091769  0.87485111  1
  V  V18  1  0.50249822  0.01607765  0.49890542  1
  V  V19  1  0.13320042  -0.00245845  0.12723879  1
  V  V20  1  0.86944828  0.50340954  0.87094244  1
  V  V21  1  0.88247110  0.87792255  0.49808105  1
  V  V22  1  0.00804939  0.00556810  0.49512910  1
  V  V23  1  0.00349575  0.50094689  0.00669392  1
  V  V24  1  0.62637573  0.37148836  0.25415437  1
  V  V25  1  0.87573571  0.37413244  0.00053890  1
  V  V26  1  0.38457430  0.00158687  0.88058075  1
  V  V27  1  0.36818754  0.12354623  0.24657355  1
  V  V28  1  0.49974895  0.87637382  0.37855261  1
  V  V29  1  0.50392363  0.49985733  0.49898682  1
  V  V30  1  0.25568909  0.62949623  0.37947921  1
  V  V31  1  0.75414979  0.01348834  0.75204256  1
  V  V32  1  0.24907740  0.37591585  0.62188478  1
  V  V33  1  0.49058144  0.74542800  0.25157913  1
  V  V34  1  0.74948486  0.37319703  0.12483584  1
  V  V35  1  0.12536658  -0.00097307  0.62858157  1
  V  V36  1  0.24879811  -0.00925342  0.75102415  1
  V  V37  1  -0.00043807  0.74571727  0.73873038  1
  V  V38  1  -0.00130103  0.87322258  0.86865348  1
  V  V39  1  0.12753792  0.12478732  0.00179307  1
  V  V40  1  0.25188013  0.12442397  0.87360192  1
  V  V41  1  0.49340093  0.62291742  0.12876459  1
  V  V42  1  0.75117876  0.74679843  0.00180602  1
  V  V43  1  0.37757430  0.12348076  0.73852217  1
  V  V44  1  0.87994593  0.00198774  0.37023557  1
  V  V45  1  0.61979042  -0.00111818  0.11725280  1
  V  V46  1  0.12857688  0.87617040  0.26388223  1
  V  V47  1  0.75326457  0.50443628  0.25580867  1
  V  V48  1  0.37078716  -0.00046518  0.36983308  1
  V  V49  1  0.87847714  0.74951759  0.12735032  1
  V  V50  1  -0.00009024  0.12265396  0.12821002  1
  V  V51  1  0.62566058  0.87552884  0.24983500  1
  V  V52  1  0.00113379  -0.00296137  -0.00121979  1
  V  V53  1  0.87423310  0.24235235  0.13018511  1
  V  V54  1  0.12538422  0.75556917  0.87285026  1
  V  V55  1  0.49422088  0.49144987  0.00138989  1
  V  V56  1  0.37167215  0.75323509  0.62301799  1
  V  V57  1  0.25206688  0.50740886  0.24575403  1
  V  V58  1  0.75439552  0.00858825  0.24639285  1
  V  V59  1  0.00426614  0.75583531  0.26466912  1
  V  V60  1  0.62226165  0.24431180  0.38518910  1
  V  V61  1  0.87258486  0.62643381  0.73711615  1
  V  V62  1  0.62610169  0.87663206  0.74815766  1
  V  V63  1  0.12396676  0.38155610  0.24539991  1
  V  V64  1  0.25471361  0.25962016  -0.00067537  1
  V  V65  1  0.37395989  0.62533237  0.75078740  1
  V  V66  1  -0.00255092  0.12378357  0.62527387  1
  V  V67  1  0.11034771  0.63103365  0.49693035  1
  V  V68  1  0.62516601  0.24548145  0.87286674  1
  V  V69  1  0.62172173  0.01172296  0.61962490  1
  V  V70  1  0.11298968  0.50494376  0.61633061  1
  V  V71  1  0.75099033  0.87405231  0.12623644  1
  V  V72  1  0.50194821  0.37467227  0.37414612  1
  V  V73  1  0.87405240  0.01052577  0.87076692  1
  V  V74  1  0.24739230  0.50146720  0.74795678  1
  V  V75  1  0.75568144  0.75281198  0.50011034  1
  V  V76  1  0.00467851  0.62345349  0.13112956  1
  V  V77  1  0.12601454  0.25042735  0.87423982  1
  V  V78  1  0.74947019  0.24023599  -0.00626480  1
  V  V79  1  0.75466571  0.87579128  0.62504593  1
  V  V80  1  0.62949155  0.62589850  0.49771342  1
  V  V81  1  -0.00155956  0.24688442  0.25264527  1
  V  V82  1  0.37859134  0.86946341  0.00090296  1
  V  V83  1  0.63041362  0.49934659  0.63693490  1
  V  V84  1  0.75706611  0.25050667  0.50584076  1
  Zn  Zn85  1  0.37668257  0.24767228  0.62072304  1
  Zn  Zn86  1  0.74967717  0.62037079  0.87020906  1
  Zn  Zn87  1  0.24342428  0.75411667  0.49651133  1
  Zn  Zn88  1  0.49867583  0.37253591  0.87510751  1
  Zn  Zn89  1  0.62310941  0.11772496  -0.00787061  1
  Zn  Zn90  1  0.50017722  0.75302029  0.75251292  1
  Zn  Zn91  1  0.37283132  0.87743858  0.50317412  1
  Zn  Zn92  1  0.24745225  0.38347043  0.12178840  1
  Zn  Zn93  1  0.87545352  0.24896024  0.62980831  1
  Zn  Zn94  1  0.37795024  0.50329895  0.37009799  1
  Zn  Zn95  1  0.63351659  0.37632286  0.75178824  1
  Zn  Zn96  1  0.87194492  0.62639965  0.25932017  1
  Zn  Zn97  1  0.12408090  0.37535897  0.74556330  1
  Zn  Zn98  1  0.49933351  0.24801200  0.24849814  1
  Zn  Zn99  1  0.77744835  0.39427230  0.62720848  1
  Zn  Zn100  1  0.87564122  0.87306993  -0.00287918  1
  Zn  Zn101  1  0.88272662  0.51028793  0.40002302  1
  Zn  Zn102  1  0.36843699  0.74443253  0.12403166  1
  Zn  Zn103  1  0.50667352  0.88095248  0.88278518  1
  Zn  Zn104  1  0.24296574  0.87154680  0.62540894  1
  Zn  Zn105  1  0.24554505  0.24714930  0.50284614  1
  Zn  Zn106  1  0.62379585  0.49589985  0.12302151  1
  Zn  Zn107  1  0.18773665  0.19033794  0.19101936  1
  Zn  Zn108  1  0.18333991  0.18362726  0.68667507  1
  Zn  Zn109  1  0.18389974  0.68795610  0.19261634  1
  Zn  Zn110  1  0.18375190  0.68662841  0.68653026  1
  Zn  Zn111  1  0.68474934  0.18565206  0.18711872  1
  Zn  Zn112  1  0.68558890  0.18896180  0.69016701  1
  Zn  Zn113  1  0.68232025  0.68608336  0.18581100  1
  Zn  Zn114  1  0.69167687  0.68900091  0.68557042  1
  Zn  Zn115  1  0.31006064  0.31391185  0.31021068  1
  Zn  Zn116  1  0.31139965  0.31162740  0.80638622  1
  Zn  Zn117  1  0.30830340  0.81456014  0.31181400  1
  Zn  Zn118  1  0.31597348  0.81157581  0.81399939  1
  Zn  Zn119  1  0.81207577  0.30998179  0.31440397  1
  Zn  Zn120  1  0.80991988  0.31537505  0.80892541  1
  Zn  Zn121  1  0.81522682  0.81600945  0.31399763  1
  Zn  Zn122  1  0.81415160  0.81265502  0.81095895  1
  Zn  Zn123  1  0.18368902  0.44142350  0.43286577  1
  Zn  Zn124  1  0.18493224  0.44217690  0.93867167  1
  Zn  Zn125  1  0.19167214  0.93956358  0.44230166  1
  Zn  Zn126  1  0.19207915  0.93503653  0.93876226  1
  Zn  Zn127  1  0.71876081  0.45035685  0.45862663  1
  Zn  Zn128  1  0.68599922  0.43129419  0.93644873  1
  Zn  Zn129  1  0.68795836  0.93857051  0.43786418  1
  Zn  Zn130  1  0.69434021  0.93608937  0.93661466  1
  Zn  Zn131  1  0.31164874  0.06091679  0.05980026  1
  Zn  Zn132  1  0.31079411  0.05898722  0.55798481  1
  Zn  Zn133  1  0.31139972  0.56277088  0.06246115  1
  Zn  Zn134  1  0.31167992  0.56183225  0.55901214  1
  Zn  Zn135  1  0.81495919  0.06042775  0.05973316  1
  Zn  Zn136  1  0.81455916  0.06468125  0.56246416  1
  Zn  Zn137  1  0.81577513  0.56198283  0.06656792  1
  Zn  Zn138  1  0.81481014  0.56819087  0.56145277  1
  Zn  Zn139  1  0.43582373  0.43846433  0.18999464  1
  Zn  Zn140  1  0.43847392  0.43705921  0.68754703  1
  Zn  Zn141  1  0.43642465  0.93552872  0.18785453  1
  Zn  Zn142  1  0.44067733  0.93854258  0.68850464  1
  Zn  Zn143  1  0.93661519  0.43464060  0.19101082  1
  Zn  Zn144  1  0.93775863  0.43591736  0.68945190  1
  Zn  Zn145  1  0.94096181  0.93500752  0.18842238  1
  Zn  Zn146  1  0.93816596  0.93627137  0.68773034  1
  Zn  Zn147  1  0.06509473  0.06219947  0.31102840  1
  Zn  Zn148  1  0.06400806  0.06193708  0.81120425  1
  Zn  Zn149  1  0.06450689  0.56320614  0.31694008  1
  Zn  Zn150  1  0.06111779  0.56477010  0.81003143  1
  Zn  Zn151  1  0.56020470  0.06371307  0.30481155  1
  Zn  Zn152  1  0.56271433  0.06647889  0.80699448  1
  Zn  Zn153  1  0.56848490  0.56025775  0.31176751  1
  Zn  Zn154  1  0.55785420  0.56422658  0.81619072  1
  Zn  Zn155  1  0.43235539  0.19040327  0.43489318  1
  Zn  Zn156  1  0.43829669  0.18864066  0.93445924  1
  Zn  Zn157  1  0.43762421  0.68792144  0.43892312  1
  Zn  Zn158  1  0.43914822  0.68676641  0.93969084  1
  Zn  Zn159  1  0.93647027  0.18154009  0.43498274  1
  Zn  Zn160  1  0.93902336  0.18769661  0.94075641  1
  Zn  Zn161  1  0.93305986  0.68813052  0.43636205  1
  Zn  Zn162  1  0.93866287  0.68606668  0.93673448  1
  Zn  Zn163  1  0.06433188  0.31188406  0.06408116  1
  Zn  Zn164  1  0.05762004  0.31445677  0.56448279  1
  Zn  Zn165  1  0.06210380  0.81073647  0.06045749  1
  Zn  Zn166  1  0.06371764  0.81609566  0.56102467  1
  Zn  Zn167  1  0.56328927  0.30870265  0.06162857  1
  Zn  Zn168  1  0.56534416  0.31270435  0.56075296  1
  Zn  Zn169  1  0.55924056  0.81128036  0.06266493  1
  Zn  Zn170  1  0.56357782  0.81575044  0.56229399  1
  O  O171  1  0.12257107  0.11672485  0.12341866  1
  O  O172  1  0.11557342  0.11167983  0.62563826  1
  O  O173  1  0.11364658  0.63141471  0.11797902  1
  O  O174  1  0.13137834  0.61307751  0.61190960  1
  O  O175  1  0.61454971  0.11655486  0.12474196  1
  O  O176  1  0.62298562  0.10977145  0.62867254  1
  O  O177  1  0.61487890  0.62271478  0.11308379  1
  O  O178  1  0.61747811  0.61979648  0.62187571  1
  O  O179  1  0.38228996  0.37576098  0.38047755  1
  O  O180  1  0.37121987  0.38795071  0.87227480  1
  O  O181  1  0.38157762  0.88275642  0.37355283  1
  O  O182  1  0.37777408  0.88040905  0.88567612  1
  O  O183  1  0.88890009  0.37446828  0.36983236  1
  O  O184  1  0.88582163  0.37994608  0.88051478  1
  O  O185  1  0.86836686  0.89056234  0.38512434  1
  O  O186  1  0.88431004  0.87995785  0.87708172  1
  O  O187  1  0.25960414  0.00854332  0.37709329  1
  O  O188  1  0.25759712  0.00437463  0.86818585  1
  O  O189  1  0.25210356  0.51033005  0.36677480  1
  O  O190  1  0.25341259  0.50940729  0.87029975  1
  O  O191  1  0.75248692  0.00605558  0.36660000  1
  O  O192  1  0.76147454  -0.00451498  0.86538830  1
  O  O193  1  0.73897779  0.49596120  0.35440978  1
  O  O194  1  0.76574531  0.49701553  0.88169488  1
  O  O195  1  0.24981429  0.50272966  0.13956053  1
  O  O196  1  0.24607932  0.49135203  0.62830459  1
  O  O197  1  0.23766977  0.99233268  0.12175525  1
  O  O198  1  0.24353709  1.00068135  0.63296314  1
  O  O199  1  0.74994664  0.48512537  0.12863618  1
  O  O200  1  0.73280758  0.50629324  0.62883884  1
  O  O201  1  0.74684760  0.99485983  0.13071561  1
  O  O202  1  0.74038728  0.99651920  0.62859893  1
  O  O203  1  0.00629955  0.36485459  0.25407707  1
  O  O204  1  0.00511608  0.36772884  0.76147950  1
  O  O205  1  0.01209506  0.86326704  0.24550854  1
  O  O206  1  -0.00465712  0.86274672  0.76070536  1
  O  O207  1  0.50833131  0.37352824  0.25552743  1
  O  O208  1  0.49982175  0.36569240  0.75360641  1
  O  O209  1  0.50573570  0.86844282  0.25976219  1
  O  O210  1  0.51524605  0.87427536  0.75260643  1
  O  O211  1  0.48688567  0.12716359  0.23880909  1
  O  O212  1  0.48731977  0.13473154  0.75233488  1
  O  O213  1  0.50864646  0.63230714  0.24135039  1
  O  O214  1  0.49291439  0.62838009  0.74288540  1
  O  O215  1  1.00577896  0.13853401  0.24354423  1
  O  O216  1  1.00634907  0.13266608  0.74208704  1
  O  O217  1  1.00480136  0.63766874  0.24575680  1
  O  O218  1  0.99040959  0.63803366  0.75435181  1
  O  O219  1  0.36494375  0.24509964  0.00723610  1
  O  O220  1  0.37163161  0.26293076  0.50145201  1
  O  O221  1  0.37702878  0.76381506  0.00134357  1
  O  O222  1  0.37519735  0.75061551  0.51335785  1
  O  O223  1  0.86889634  0.25530720  0.00601758  1
  O  O224  1  0.85875614  0.24553263  0.49426044  1
  O  O225  1  0.86984076  0.74753239  0.00960551  1
  O  O226  1  0.86373754  0.76152630  0.49394822  1
  O  O227  1  0.12463248  0.25527459  0.48574253  1
  O  O228  1  0.13110115  0.24452085  0.99393686  1
  O  O229  1  0.12563148  0.73568870  0.50706956  1
  O  O230  1  0.11842760  0.73668668  0.98982522  1
  O  O231  1  0.62956195  0.24539154  0.48945389  1
  O  O232  1  0.63289407  0.24699217  0.99260862  1
  O  O233  1  0.63049890  0.74728901  0.49221889  1
  O  O234  1  0.62926179  0.74234331  0.99528663  1
  O  O235  1  0.49100053  0.24207406  0.12489601  1
  O  O236  1  0.49912556  0.25354659  0.63560705  1
  O  O237  1  0.50009524  0.74179527  0.13517030  1
  O  O238  1  0.49685033  0.74034122  0.62532984  1
  O  O239  1  0.99320096  0.24495330  0.13108297  1
  O  O240  1  1.00656944  0.24074626  0.63616417  1
  O  O241  1  0.99322894  0.74381123  0.13032744  1
  O  O242  1  1.00258179  0.75609983  0.64064620  1
  O  O243  1  0.00399467  0.25382318  0.36831515  1
  O  O244  1  0.00658718  0.25659755  0.87356066  1
  O  O245  1  -0.00185969  0.75394739  0.36285827  1
  O  O246  1  0.00640673  0.75617471  0.87057211  1
  O  O247  1  0.50679192  0.25488836  0.37179788  1
  O  O248  1  0.50554501  0.25266555  0.86653739  1
  O  O249  1  0.50741828  0.75603961  0.37053450  1
  O  O250  1  0.51462719  0.75167811  0.87583977  1
  O  O251  1  0.25686245  0.12956287  0.48389180  1
  O  O252  1  0.24501121  0.13358501  0.99352108  1
  O  O253  1  0.24532044  0.62672996  0.48942710  1
  O  O254  1  0.23930819  0.62001077  0.99187680  1
  O  O255  1  0.74841428  0.12692323  0.48587900  1
  O  O256  1  0.74723805  0.13728052  1.00704041  1
  O  O257  1  0.73686022  0.64009559  0.50832331  1
  O  O258  1  0.74173408  0.62818375  1.00179650  1
  O  O259  1  0.24186076  0.36435549  0.00239339  1
  O  O260  1  0.25674503  0.37721666  0.50382888  1
  O  O261  1  0.26192915  0.87557632  0.00918685  1
  O  O262  1  0.25484916  0.87077015  0.50524611  1
  O  O263  1  0.75468371  0.36559624  0.00870280  1
  O  O264  1  0.73582657  0.35132660  0.51703913  1
  O  O265  1  0.75251830  0.86485173  0.00922210  1
  O  O266  1  0.75664657  0.87274275  0.50626178  1
  O  O267  1  0.13520041  0.49219277  0.25538780  1
  O  O268  1  0.13159550  0.50268626  0.73910680  1
  O  O269  1  0.11630989  0.98432575  0.24043992  1
  O  O270  1  0.13764701  1.00342180  0.74419413  1
  O  O271  1  0.63222628  0.48703658  0.24341668  1
  O  O272  1  0.61848684  0.50257446  0.74020800  1
  O  O273  1  0.63305615  0.99466107  0.23928730  1
  O  O274  1  0.63052601  0.99423642  0.74134122  1
  O  O275  1  0.37982264  0.00672758  0.26134786  1
  O  O276  1  0.37061631  0.00680230  0.75581226  1
  O  O277  1  0.35772266  0.49662922  0.25241278  1
  O  O278  1  0.36837563  0.50661100  0.75698634  1
  O  O279  1  0.86671078  -0.00746273  0.25596797  1
  O  O280  1  0.86640246  -0.00512747  0.75780227  1
  O  O281  1  0.85940011  0.49873875  0.24763192  1
  O  O282  1  0.88525685  0.51581159  0.75826700  1
  O  O283  1  0.11631172  0.36886171  0.36535650  1
  O  O284  1  0.11467498  0.37155273  0.87648538  1
  O  O285  1  0.12985203  0.88101175  0.36241609  1
  O  O286  1  0.12125097  0.86194575  0.87976554  1
  O  O287  1  0.62065352  0.36435915  0.36860997  1
  O  O288  1  0.62135970  0.36267655  0.87191367  1
  O  O289  1  0.61780880  0.87005755  0.37042721  1
  O  O290  1  0.62636734  0.86926650  0.86849985  1
  O  O291  1  0.37745210  0.12822176  0.12955616  1
  O  O292  1  0.36844726  0.12586731  0.63482145  1
  O  O293  1  0.38826545  0.62771673  0.11966767  1
  O  O294  1  0.38179269  0.62975002  0.62854554  1
  O  O295  1  0.88139221  0.13550279  0.12046812  1
  O  O296  1  0.89124244  0.12723581  0.62275705  1
  O  O297  1  0.88421886  0.63468612  0.13240796  1
  O  O298  1  0.87598016  0.62534853  0.63748074  1
  O  O299  1  0.25675130  0.25021161  0.11618246  1
  O  O300  1  0.24642864  0.26359492  0.62398546  1
  O  O301  1  0.25022493  0.75949647  0.12967316  1
  O  O302  1  0.25847657  0.75113063  0.62666851  1
  O  O303  1  0.75645750  0.25587820  0.12237948  1
  O  O304  1  0.75489721  0.22778887  0.60882056  1
  O  O305  1  0.75779782  0.75289616  0.12401277  1
  O  O306  1  0.74340623  0.76377623  0.61297755  1
  O  O307  1  0.24083003  0.24417231  0.37430751  1
  O  O308  1  0.24611986  0.24667336  0.88079305  1
  O  O309  1  0.25216600  0.73438024  0.37319031  1
  O  O310  1  0.24238700  0.73927019  0.86832691  1
  O  O311  1  0.74363688  0.24240288  0.38282041  1
  O  O312  1  0.74279855  0.25382017  0.88468392  1
  O  O313  1  0.73762722  0.75932580  0.38178672  1
  O  O314  1  0.74051647  0.74946321  0.88232052  1
  O  O315  1  0.00891194  0.11939865  0.00794916  1
  O  O316  1  -0.00084498  0.11643331  0.50746576  1
  O  O317  1  0.00428927  0.61867071  0.00900020  1
  O  O318  1  0.01111588  0.62723837  0.49730019  1
  O  O319  1  0.49962318  0.12539887  0.01198994  1
  O  O320  1  0.49733497  0.11542844  0.49325442  1
  O  O321  1  0.50697756  0.61561955  0.00544169  1
  O  O322  1  0.51056300  0.62269248  0.50675624  1
  O  O323  1  0.49439814  0.37887098  0.49366442  1
  O  O324  1  0.50366335  0.38791314  1.00013807  1
  O  O325  1  0.49963373  0.88011391  0.48728261  1
  O  O326  1  0.48550631  0.87670581  1.00199217  1
  O  O327  1  1.00175873  0.37209975  0.48305194  1
  O  O328  1  0.99764925  0.38182354  0.99653905  1
  O  O329  1  0.98774360  0.88313555  0.50466683  1
  O  O330  1  1.00017007  0.87936303  0.98826882  1
  O  O331  1  0.50129004  0.49356824  0.38058749  1
  O  O332  1  0.48852651  0.49969954  0.88335687  1
  O  O333  1  0.49735481  0.99396171  0.37888253  1
  O  O334  1  0.48856446  1.00008165  0.87010547  1
  O  O335  1  0.99694774  0.48541894  0.37014143  1
  O  O336  1  0.99409409  0.49374442  0.88195775  1
  O  O337  1  0.99236055  1.00737272  0.38149762  1
  O  O338  1  0.99740770  0.99071907  0.87663289  1
  O  O339  1  0.00825356  0.00293814  0.11931892  1
  O  O340  1  0.00502709  0.00556122  0.62047846  1
  O  O341  1  -0.00670632  0.50994745  0.11955605  1
  O  O342  1  0.01536723  0.50011457  0.62896494  1
  O  O343  1  0.50922681  0.00621184  0.13058955  1
  O  O344  1  0.51279882  -0.00572575  0.61456975  1
  O  O345  1  0.50022309  0.50520430  0.11972607  1
  O  O346  1  0.50391509  0.51309062  0.61964862  1
  O  O347  1  0.24109826  0.38716680  0.25012826  1
  O  O348  1  0.24646469  0.38288303  0.74105875  1
  O  O349  1  0.23506630  0.87221904  0.24163798  1
  O  O350  1  0.25625414  0.88771837  0.74983006  1
  O  O351  1  0.74473897  0.37796231  0.24315738  1
  O  O352  1  0.74569968  0.36507530  0.73424259  1
  O  O353  1  0.74445273  0.88318026  0.24465931  1
  O  O354  1  0.74273751  0.87996568  0.74256514  1
  O  O355  1  0.26137994  0.12739656  0.25699489  1
  O  O356  1  0.25804148  0.11945637  0.75664430  1
  O  O357  1  0.24095699  0.61504827  0.26178846  1
  O  O358  1  0.25402566  0.61972689  0.75745473  1
  O  O359  1  0.74828834  0.11306300  0.25418666  1
  O  O360  1  0.74897616  0.11266799  0.74886790  1
  O  O361  1  0.74712052  0.60760170  0.23851632  1
  O  O362  1  0.76695265  0.63291765  0.75272156  1
  O  O363  1  0.36952289  0.11995984  0.36502466  1
  O  O364  1  0.36938860  0.11734606  0.86987434  1
  O  O365  1  0.36185919  0.62186418  0.38066572  1
  O  O366  1  0.36674711  0.62120154  0.87220118  1
  O  O367  1  0.86424383  0.11160677  0.37345372  1
  O  O368  1  0.88387853  0.10981004  0.87887030  1
  O  O369  1  0.87479867  0.61956762  0.37163392  1
  O  O370  1  0.87339347  0.61662971  0.87103930  1
  O  O371  1  0.12646389  0.37008656  0.14037750  1
  O  O372  1  0.13079246  0.38735201  0.62232263  1
  O  O373  1  0.13155873  0.87960946  0.12468743  1
  O  O374  1  0.12416531  0.89182561  0.62358742  1
  O  O375  1  0.63378290  0.37085217  0.13245296  1
  O  O376  1  0.61377951  0.39640658  0.62597262  1
  O  O377  1  0.62878265  0.88015185  0.12962982  1
  O  O378  1  0.63334727  0.88233140  0.63139991  1
  O  O379  1  0.11808072  0.25795007  0.25838468  1
  O  O380  1  0.11996426  0.25179563  0.76089991  1
  O  O381  1  0.11375384  0.76240371  0.24911107  1
  O  O382  1  0.11106181  0.74193821  0.75933540  1
  O  O383  1  0.62552713  0.25926892  0.25634720  1
  O  O384  1  0.61552530  0.24976416  0.75494636  1
  O  O385  1  0.61929226  0.75498319  0.25734617  1
  O  O386  1  0.62706305  0.75741339  0.75781429  1
  O  O387  1  0.37445467  0.24238753  0.24042709  1
  O  O388  1  0.38054171  0.24138547  0.74697465  1
  O  O389  1  0.38799685  0.75463373  0.24886388  1
  O  O390  1  0.37882197  0.74426292  0.74133405  1
  O  O391  1  0.88326379  0.25285400  0.24087644  1
  O  O392  1  0.89037210  0.24697364  0.75731377  1
  O  O393  1  0.88661825  0.75231115  0.24528327  1
  O  O394  1  0.88713708  0.73875755  0.75615771  1
  O  O395  1  0.38403952  0.48994399  0.49804658  1
  O  O396  1  0.38151852  0.50411910  0.99131110  1
  O  O397  1  0.38475027  0.99918016  0.48808488  1
  O  O398  1  0.36971710  0.98925139  0.99002623  1
  O  O399  1  0.82568593  0.48360252  0.49282727  1
  O  O400  1  0.88578215  0.49539063  0.99546655  1
  O  O401  1  0.88315807  0.99609696  0.49259013  1
  O  O402  1  0.88325539  0.99577541  0.99290683  1
  O  O403  1  0.12096835  0.00402285  0.00606931  1
  O  O404  1  0.11283207  -0.00243444  0.50468492  1
  O  O405  1  0.11126976  0.51136693  -0.00364682  1
  O  O406  1  0.12723362  0.50929112  0.51001454  1
  O  O407  1  0.63312919  -0.00049655  0.01267745  1
  O  O408  1  0.61968548  -0.00305786  0.51163989  1
  O  O409  1  0.61850917  0.50595718  0.00008941  1
  O  O410  1  0.62386895  0.51022454  0.50826819  1
  O  O411  1  0.37150119  0.36245824  0.12860454  1
  O  O412  1  0.36642483  0.37534651  0.61637084  1
  O  O413  1  0.36710334  0.87481747  0.11673795  1
  O  O414  1  0.37712359  0.86567278  0.62558272  1
  O  O415  1  0.86978505  0.36390872  0.12003063  1
  O  O416  1  0.88547012  0.36269431  0.62570767  1
  O  O417  1  0.87241758  0.86315038  0.12332599  1
  O  O418  1  0.86195101  0.88393507  0.61604523  1
  O  O419  1  0.13521836  0.13445715  0.36640184  1
  O  O420  1  0.13145077  0.13053320  0.88122570  1
  O  O421  1  0.13406984  0.61971688  0.39125652  1
  O  O422  1  0.13096694  0.63168152  0.88151672  1
  O  O423  1  0.63292806  0.13400514  0.36317643  1
  O  O424  1  0.62059961  0.13777881  0.87625634  1
  O  O425  1  0.62143294  0.63519216  0.38472049  1
  O  O426  1  0.62779066  0.63016207  0.88426356  1
