# generated using pymatgen
data_V85Zn86O256
_symmetry_space_group_name_H-M   'P 1'
_cell_length_a   16.93881147
_cell_length_b   16.92653846
_cell_length_c   16.93815634
_cell_angle_alpha   90.02070572
_cell_angle_beta   90.09633646
_cell_angle_gamma   90.03249077
_symmetry_Int_Tables_number   1
_chemical_formula_structural   V85Zn86O256
_chemical_formula_sum   'V85 Zn86 O256'
_cell_volume   4856.42304924
_cell_formula_units_Z   1
loop_
 _symmetry_equiv_pos_site_id
 _symmetry_equiv_pos_as_xyz
  1  'x, y, z'
loop_
 _atom_site_type_symbol
 _atom_site_label
 _atom_site_symmetry_multiplicity
 _atom_site_fract_x
 _atom_site_fract_y
 _atom_site_fract_z
 _atom_site_occupancy
  V  V0  1  0.13087894  0.49875224  0.62992865  1
  V  V1  1  0.50183695  0.87912293  0.86664476  1
  V  V2  1  0.00371470  0.86431678  0.37601786  1
  V  V3  1  0.75287869  0.12138989  0.37595434  1
  V  V4  1  0.25628172  0.37074622  0.63261809  1
  V  V5  1  0.00058905  -0.00033216  0.49796530  1
  V  V6  1  0.87078971  -0.00274530  0.86883512  1
  V  V7  1  0.36516706  0.62386869  0.75408447  1
  V  V8  1  -0.00070678  -0.00219219  -0.00192019  1
  V  V9  1  0.87839775  0.00051615  0.36978807  1
  V  V10  1  0.49562735  0.12951240  0.62380897  1
  V  V11  1  0.75791719  0.49282779  0.25288120  1
  V  V12  1  0.12604320  0.12488436  0.49930823  1
  V  V13  1  0.64417980  0.26837573  0.39472170  1
  V  V14  1  0.37848922  0.62914207  0.25087168  1
  V  V15  1  0.74842640  0.87770763  0.63763093  1
  V  V16  1  0.24630956  0.62410752  0.37296069  1
  V  V17  1  0.62058847  -0.00003402  0.12565168  1
  V  V18  1  0.24458074  0.75027359  0.49653757  1
  V  V19  1  0.62127379  0.62039826  0.50009142  1
  V  V20  1  0.00075812  0.62569851  0.62980011  1
  V  V21  1  0.25048366  0.00117925  0.75149031  1
  V  V22  1  -0.01261555  0.49643753  0.49936795  1
  V  V23  1  0.50471887  0.75134200  0.74647184  1
  V  V24  1  0.62105381  0.37610182  0.24620142  1
  V  V25  1  -0.00206911  0.37225120  0.87642333  1
  V  V26  1  0.87314909  0.87390142  0.50056544  1
  V  V27  1  0.12787194  0.86588807  0.25400063  1
  V  V28  1  0.37226870  0.13370245  0.74847546  1
  V  V29  1  0.50001768  0.63037997  0.12723569  1
  V  V30  1  0.25760298  0.12511107  0.37322432  1
  V  V31  1  0.82850083  0.17490173  0.19871429  1
  V  V32  1  0.87632497  0.62840754  0.75140186  1
  V  V33  1  0.13138553  0.12787160  0.00156806  1
  V  V34  1  0.12440079  0.00086496  0.62550687  1
  V  V35  1  0.11749945  0.87395481  0.75014926  1
  V  V36  1  0.50734530  0.24866377  0.75491518  1
  V  V37  1  0.36953327  0.25356614  0.12189362  1
  V  V38  1  -0.00487851  0.75123589  0.24020763  1
  V  V39  1  0.49425944  0.38638001  0.37751171  1
  V  V40  1  0.49901949  0.61597604  0.62413032  1
  V  V41  1  -0.00037832  0.24742214  0.24784395  1
  V  V42  1  0.74989157  0.49199558  0.74697332  1
  V  V43  1  0.25291587  -0.00049702  0.25054472  1
  V  V44  1  0.75547148  0.62386804  0.37718012  1
  V  V45  1  0.87130102  0.37093636  0.01693897  1
  V  V46  1  0.74554167  0.13139178  0.87984214  1
  V  V47  1  0.00028314  0.25255886  0.74813415  1
  V  V48  1  0.62898861  -0.00414659  0.63657432  1
  V  V49  1  0.12830987  0.37818632  0.25008032  1
  V  V50  1  0.37600558  0.37669945  0.50334043  1
  V  V51  1  0.00016913  0.50034687  0.00376763  1
  V  V52  1  -0.00646908  0.37827797  0.38036573  1
  V  V53  1  0.62898356  0.12371925  0.49918394  1
  V  V54  1  0.74594121  0.62705190  0.87637641  1
  V  V55  1  0.48895453  0.12232208  0.12958085  1
  V  V56  1  0.24975130  0.86943618  0.12223605  1
  V  V57  1  0.50697916  0.50478011  -0.00210000  1
  V  V58  1  0.87586636  0.62648984  0.24757191  1
  V  V59  1  0.64811610  0.66090991  0.02628798  1
  V  V60  1  0.62638810  0.49028803  0.62411848  1
  V  V61  1  0.75298012  -0.01161194  0.24622173  1
  V  V62  1  0.12728907  0.74135270  0.86538744  1
  V  V63  1  0.62891117  0.75638607  0.86806084  1
  V  V64  1  0.37612632  0.74921545  0.62404213  1
  V  V65  1  0.37672372  0.87380412  0.49567516  1
  V  V66  1  0.51081760  0.37338421  0.87652701  1
  V  V67  1  0.61110565  0.75203735  0.37508098  1
  V  V68  1  -0.00298816  0.12835557  0.62335761  1
  V  V69  1  0.87771426  0.75043515  0.62647521  1
  V  V70  1  0.12694148  0.25091241  0.37775965  1
  V  V71  1  -0.00000865  0.12200421  0.13068874  1
  V  V72  1  0.61025928  0.87286742  0.25551357  1
  V  V73  1  0.12221024  0.62574291  0.49518995  1
  V  V74  1  0.36465130  0.50483876  0.87458171  1
  V  V75  1  0.86191617  0.26411108  0.61257564  1
  V  V76  1  0.63701366  0.49641383  0.12304650  1
  V  V77  1  0.13457254  0.25194945  0.87855461  1
  V  V78  1  0.87526575  0.49766909  0.87584547  1
  V  V79  1  0.37489498  0.87479208  -0.00467367  1
  V  V80  1  0.50211610  -0.00471024  0.49905948  1
  V  V81  1  0.38177747  0.00061630  0.37330170  1
  V  V82  1  0.49340473  0.24678136  0.25740161  1
  V  V83  1  0.13507244  0.62416226  -0.00084623  1
  V  V84  1  0.86907520  0.12641102  0.74847123  1
  Zn  Zn85  1  -0.00156011  0.62853785  0.12054574  1
  Zn  Zn86  1  0.74821026  0.75121456  0.49996457  1
  Zn  Zn87  1  0.37584339  0.00329211  0.87373086  1
  Zn  Zn88  1  0.24958292  0.87523046  0.62459032  1
  Zn  Zn89  1  -0.00074528  0.87022969  0.87502947  1
  Zn  Zn90  1  0.37388236  0.50300619  0.37872862  1
  Zn  Zn91  1  0.37977523  0.75100758  0.12682527  1
  Zn  Zn92  1  0.61939621  0.13121539  -0.00375973  1
  Zn  Zn93  1  0.25370965  0.12889444  0.88030914  1
  Zn  Zn94  1  0.63164546  0.36631826  0.74951513  1
  Zn  Zn95  1  0.12488476  -0.00326184  0.12457290  1
  Zn  Zn96  1  0.25500495  0.74464488  -0.00797086  1
  Zn  Zn97  1  0.75466727  0.25140372  0.00929365  1
  Zn  Zn98  1  0.37124676  0.37263714  -0.00497186  1
  Zn  Zn99  1  0.25123424  0.49972893  0.24732306  1
  Zn  Zn100  1  0.74514327  0.85051310  0.11602884  1
  Zn  Zn101  1  0.13040713  0.38142638  0.75400948  1
  Zn  Zn102  1  0.25928846  0.24771540  0.50499198  1
  Zn  Zn103  1  0.87408519  0.85788187  0.01094576  1
  Zn  Zn104  1  0.12832016  0.50210561  0.12559745  1
  Zn  Zn105  1  0.49959905  0.00295678  -0.00266238  1
  Zn  Zn106  1  0.24457809  0.37371077  0.11382246  1
  Zn  Zn107  1  0.18684762  0.18469548  0.19066729  1
  Zn  Zn108  1  0.18602460  0.19064671  0.68900023  1
  Zn  Zn109  1  0.18597881  0.68760465  0.18541343  1
  Zn  Zn110  1  0.18802430  0.68879993  0.68354232  1
  Zn  Zn111  1  0.65601916  0.21229871  0.15631302  1
  Zn  Zn112  1  0.68897161  0.18457840  0.68547209  1
  Zn  Zn113  1  0.68363413  0.68490557  0.20114189  1
  Zn  Zn114  1  0.68959172  0.68582831  0.68658116  1
  Zn  Zn115  1  0.31327754  0.31137818  0.31198266  1
  Zn  Zn116  1  0.31982361  0.31705518  0.81277752  1
  Zn  Zn117  1  0.31606484  0.80909278  0.31490092  1
  Zn  Zn118  1  0.31012166  0.81254303  0.81074275  1
  Zn  Zn119  1  0.79835120  0.32589145  0.34471424  1
  Zn  Zn120  1  0.81462373  0.30808965  0.81235633  1
  Zn  Zn121  1  0.80903873  0.81000791  0.31139364  1
  Zn  Zn122  1  0.81628376  0.81071636  0.81566639  1
  Zn  Zn123  1  0.18697620  0.43841571  0.44334714  1
  Zn  Zn124  1  0.18919221  0.43510122  0.94152194  1
  Zn  Zn125  1  0.18838622  0.93659221  0.43605009  1
  Zn  Zn126  1  0.18613768  0.93694258  0.93446244  1
  Zn  Zn127  1  0.68343819  0.44151263  0.43516535  1
  Zn  Zn128  1  0.69173947  0.43774247  0.93934760  1
  Zn  Zn129  1  0.68825561  0.93457808  0.43962414  1
  Zn  Zn130  1  0.68523691  0.93732116  0.93424876  1
  Zn  Zn131  1  0.31372272  0.05893115  0.06443030  1
  Zn  Zn132  1  0.31268920  0.06289757  0.56338852  1
  Zn  Zn133  1  0.31389982  0.55657236  0.06418088  1
  Zn  Zn134  1  0.31232090  0.55803627  0.56287359  1
  Zn  Zn135  1  0.79296816  0.02035977  0.04238172  1
  Zn  Zn136  1  0.81194087  0.06259104  0.56317856  1
  Zn  Zn137  1  0.82141400  0.68758479  0.06299376  1
  Zn  Zn138  1  0.80903375  0.56161008  0.56341888  1
  Zn  Zn139  1  0.43602383  0.44259741  0.18738729  1
  Zn  Zn140  1  0.43701920  0.43649770  0.69259515  1
  Zn  Zn141  1  0.43351359  0.93527141  0.18771027  1
  Zn  Zn142  1  0.43575675  0.94068378  0.68494384  1
  Zn  Zn143  1  0.94055054  0.43876294  0.19137338  1
  Zn  Zn144  1  0.93802736  0.43795402  0.68629965  1
  Zn  Zn145  1  0.93295517  0.93038212  0.18083691  1
  Zn  Zn146  1  0.93693794  0.93979000  0.68753131  1
  Zn  Zn147  1  0.06780314  0.05827616  0.31167136  1
  Zn  Zn148  1  0.06110901  0.06513552  0.81371591  1
  Zn  Zn149  1  0.06077957  0.56255483  0.31456591  1
  Zn  Zn150  1  0.06358744  0.56171654  0.81322897  1
  Zn  Zn151  1  0.56535238  0.06673879  0.31124961  1
  Zn  Zn152  1  0.56334683  0.06353338  0.81169370  1
  Zn  Zn153  1  0.56327292  0.56356175  0.31067310  1
  Zn  Zn154  1  0.56346131  0.56472851  0.81097502  1
  Zn  Zn155  1  0.44050090  0.19267743  0.43944491  1
  Zn  Zn156  1  0.43820185  0.18710720  0.93847863  1
  Zn  Zn157  1  0.43553112  0.68284845  0.44026077  1
  Zn  Zn158  1  0.44445701  0.68741200  0.93888114  1
  Zn  Zn159  1  0.93629634  0.18957881  0.43596790  1
  Zn  Zn160  1  0.93803220  0.18643119  0.94093591  1
  Zn  Zn161  1  0.93580632  0.68560222  0.43696267  1
  Zn  Zn162  1  0.94749320  0.68661738  0.92992097  1
  Zn  Zn163  1  0.06112963  0.31014501  0.06413181  1
  Zn  Zn164  1  0.06416136  0.31424225  0.56407608  1
  Zn  Zn165  1  0.06542573  0.81171200  0.05776231  1
  Zn  Zn166  1  0.06166198  0.81095591  0.56517009  1
  Zn  Zn167  1  0.55657283  0.31277960  0.06020907  1
  Zn  Zn168  1  0.55472598  0.31206027  0.56327694  1
  Zn  Zn169  1  0.55782605  0.82054836  0.06250692  1
  Zn  Zn170  1  0.56422923  0.81208153  0.56113725  1
  O  O171  1  0.11920046  0.12062532  0.11958981  1
  O  O172  1  0.11786144  0.12162087  0.62000478  1
  O  O173  1  0.11984314  0.62413801  0.11430173  1
  O  O174  1  0.11716508  0.62069896  0.61911602  1
  O  O175  1  0.60829588  0.10903069  0.13509525  1
  O  O176  1  0.62085068  0.11652365  0.61605536  1
  O  O177  1  0.61863172  0.61506966  0.12697745  1
  O  O178  1  0.61888448  0.61909430  0.61792547  1
  O  O179  1  0.37886661  0.37802824  0.38081323  1
  O  O180  1  0.38870182  0.39026666  0.87277848  1
  O  O181  1  0.37131825  0.88344258  0.38737205  1
  O  O182  1  0.38166092  0.87671645  0.87870176  1
  O  O183  1  0.89434542  0.37220951  0.37631965  1
  O  O184  1  0.88717790  0.37783210  0.87330026  1
  O  O185  1  0.88074302  0.88058545  0.38112251  1
  O  O186  1  0.87871700  0.88908948  0.87111865  1
  O  O187  1  0.25965692  0.00524049  0.37149547  1
  O  O188  1  0.24900166  0.00374530  0.86117928  1
  O  O189  1  0.24737830  0.51394586  0.37579936  1
  O  O190  1  0.26636905  0.49831941  0.87553879  1
  O  O191  1  0.75410947  0.00368192  0.36567159  1
  O  O192  1  0.76554736  0.01069945  0.87310389  1
  O  O193  1  0.74261618  0.51398637  0.36609662  1
  O  O194  1  0.75446572  0.50868820  0.86824674  1
  O  O195  1  0.24669575  0.49308327  0.12952288  1
  O  O196  1  0.24148420  0.48768272  0.62124609  1
  O  O197  1  0.25100609  0.98813057  0.13490396  1
  O  O198  1  0.24232717  1.00094492  0.63451460  1
  O  O199  1  0.73737845  0.50071053  0.13784262  1
  O  O200  1  0.73999396  0.50546947  0.63525309  1
  O  O201  1  0.73655791  1.00756212  0.14116549  1
  O  O202  1  0.74138972  0.99121992  0.62063014  1
  O  O203  1  0.00884702  0.36679160  0.25733839  1
  O  O204  1  0.00265960  0.36851744  0.75716531  1
  O  O205  1  0.00677519  0.86916812  0.25630968  1
  O  O206  1  0.01406702  0.88009390  0.74887989  1
  O  O207  1  0.50165505  0.37142436  0.25725614  1
  O  O208  1  0.50316422  0.36512421  0.75653222  1
  O  O209  1  0.51058606  0.87765275  0.25057192  1
  O  O210  1  0.49178862  0.86748317  0.75823805  1
  O  O211  1  0.50041945  0.13546860  0.24603484  1
  O  O212  1  0.49349235  0.12930935  0.74434525  1
  O  O213  1  0.49225587  0.61963191  0.23989984  1
  O  O214  1  0.49433028  0.63417939  0.74207794  1
  O  O215  1  1.00852666  0.12823384  0.23978189  1
  O  O216  1  0.99126760  0.13370407  0.74519215  1
  O  O217  1  0.99383211  0.63399616  0.25217791  1
  O  O218  1  0.99172410  0.61813437  0.73752848  1
  O  O219  1  0.38100447  0.25020556  0.01840274  1
  O  O220  1  0.37468598  0.26626874  0.49731496  1
  O  O221  1  0.37492225  0.76068640  -0.00130783  1
  O  O222  1  0.36991580  0.75689204  0.50363810  1
  O  O223  1  0.87727400  0.26584220  -0.00058224  1
  O  O224  1  0.87801936  0.24785631  0.51378733  1
  O  O225  1  0.87254179  0.74710308  -0.01504213  1
  O  O226  1  0.87393558  0.75579172  0.50828564  1
  O  O227  1  0.12451903  0.24483681  0.48857434  1
  O  O228  1  0.11754257  0.24051487  0.99049405  1
  O  O229  1  0.13281548  0.73971257  0.50740552  1
  O  O230  1  0.12752468  0.74075358  0.98847753  1
  O  O231  1  0.61500223  0.23772574  0.49522239  1
  O  O232  1  0.64100416  0.23958072  1.03761469  1
  O  O233  1  0.62670998  0.74014524  0.49236146  1
  O  O234  1  0.61717100  0.75332728  0.98479695  1
  O  O235  1  0.49109217  0.24214045  0.13549551  1
  O  O236  1  0.50195162  0.23534866  0.63211222  1
  O  O237  1  0.50298562  0.73536144  0.11880266  1
  O  O238  1  0.49606644  0.74356635  0.62978828  1
  O  O239  1  1.00303202  0.24123171  0.14037770  1
  O  O240  1  0.99661715  0.24625146  0.63210916  1
  O  O241  1  1.00334342  0.75145193  0.13700537  1
  O  O242  1  0.98738958  0.74093224  0.62185733  1
  O  O243  1  0.00830860  0.25217698  0.36710251  1
  O  O244  1  0.00439037  0.25556937  0.86782950  1
  O  O245  1  -0.00296772  0.76116015  0.36963165  1
  O  O246  1  0.02040502  0.75325238  0.87059903  1
  O  O247  1  0.50969650  0.25848577  0.37023376  1
  O  O248  1  0.49739889  0.25963827  0.86850543  1
  O  O249  1  0.51246482  0.74599449  0.38124912  1
  O  O250  1  0.50867218  0.75549005  0.86417202  1
  O  O251  1  0.24392503  0.12681259  0.49378020  1
  O  O252  1  0.23578204  0.11730324  1.00081998  1
  O  O253  1  0.24230767  0.63036291  0.49604539  1
  O  O254  1  0.23895788  0.62388977  1.00279019  1
  O  O255  1  0.73884710  0.11740281  0.49055867  1
  O  O256  1  0.75339132  0.12156001  0.98652497  1
  O  O257  1  0.74200325  0.62649257  0.49347979  1
  O  O258  1  0.74348998  0.62237718  0.98692067  1
  O  O259  1  0.25747469  0.37154911  0.00028175  1
  O  O260  1  0.25603944  0.37164396  0.51043207  1
  O  O261  1  0.25574198  0.87529336  0.00660830  1
  O  O262  1  0.25594415  0.86716596  0.50052578  1
  O  O263  1  0.76720139  0.37341536  -0.00172491  1
  O  O264  1  0.72293357  0.33596386  0.43833950  1
  O  O265  1  0.76176992  0.90551651  0.01005302  1
  O  O266  1  0.76053473  0.87283841  0.50623717  1
  O  O267  1  0.12334546  0.49062600  0.24902683  1
  O  O268  1  0.12024778  0.50029314  0.73511278  1
  O  O269  1  0.13728985  0.98610539  0.25047718  1
  O  O270  1  0.13030759  0.99613405  0.74562332  1
  O  O271  1  0.63069361  0.49423072  0.24457265  1
  O  O272  1  0.63370588  0.50019281  0.74160689  1
  O  O273  1  0.63118932  0.99037230  0.25057266  1
  O  O274  1  0.62215697  1.00193028  0.73533099  1
  O  O275  1  0.36296501  -0.00857680  0.26056674  1
  O  O276  1  0.36609365  0.01002782  0.74906801  1
  O  O277  1  0.37109107  0.51307069  0.25391688  1
  O  O278  1  0.38443719  0.51009311  0.76581608  1
  O  O279  1  0.86707158  -0.01106626  0.26103386  1
  O  O280  1  0.88263804  0.01112922  0.76056645  1
  O  O281  1  0.86462047  0.50488240  0.24879447  1
  O  O282  1  0.86913028  0.50882906  0.75290733  1
  O  O283  1  0.12062249  0.36625974  0.37211510  1
  O  O284  1  0.11451582  0.36947320  0.87400333  1
  O  O285  1  0.11570674  0.87828146  0.36747983  1
  O  O286  1  0.12309804  0.86748722  0.86564034  1
  O  O287  1  0.60835801  0.37591280  0.36279703  1
  O  O288  1  0.61504395  0.37959085  0.87314794  1
  O  O289  1  0.62767719  0.85995815  0.37320697  1
  O  O290  1  0.61643877  0.86919382  0.87294721  1
  O  O291  1  0.38208991  0.13186713  0.12525465  1
  O  O292  1  0.38483640  0.11965516  0.63301966  1
  O  O293  1  0.38329506  0.62658410  0.13030551  1
  O  O294  1  0.38320539  0.62723619  0.62926646  1
  O  O295  1  0.88357929  0.11889442  0.13266215  1
  O  O296  1  0.87922621  0.12957639  0.63201182  1
  O  O297  1  0.87870297  0.62632753  0.14125875  1
  O  O298  1  0.87995995  0.63111030  0.63038441  1
  O  O299  1  0.26740419  0.24828281  0.13804945  1
  O  O300  1  0.24355374  0.26596917  0.62294179  1
  O  O301  1  0.25176320  0.76087274  0.12079092  1
  O  O302  1  0.25818604  0.75043649  0.61249864  1
  O  O303  1  0.76901264  0.23303031  0.14067881  1
  O  O304  1  0.76298436  0.24878248  0.62717778  1
  O  O305  1  0.71914549  0.72949655  0.10187528  1
  O  O306  1  0.76121478  0.75430467  0.62337994  1
  O  O307  1  0.24379439  0.24068557  0.37559157  1
  O  O308  1  0.23736638  0.25152793  0.86627431  1
  O  O309  1  0.25345984  0.73962854  0.38848174  1
  O  O310  1  0.23435837  0.75541042  0.87583876  1
  O  O311  1  0.74342421  0.22404345  0.35177050  1
  O  O312  1  0.75537616  0.23484930  0.88043485  1
  O  O313  1  0.74120094  0.73758139  0.37693951  1
  O  O314  1  0.73679389  0.74457659  0.86583820  1
  O  O315  1  0.00747227  0.12114901  0.01278652  1
  O  O316  1  0.00659261  0.11951886  0.50219358  1
  O  O317  1  0.00911488  0.61460330  -0.00166101  1
  O  O318  1  0.00537632  0.61989340  0.50748882  1
  O  O319  1  0.50149999  0.12292871  0.01140120  1
  O  O320  1  0.50445070  0.11588552  0.50639810  1
  O  O321  1  0.51800851  0.62105680  0.00615249  1
  O  O322  1  0.50763241  0.62701812  0.51197315  1
  O  O323  1  0.49127682  0.37349785  0.49026814  1
  O  O324  1  0.49642631  0.38381312  0.99311355  1
  O  O325  1  0.49353412  0.88734587  0.50348374  1
  O  O326  1  0.49179070  0.87775012  0.98630552  1
  O  O327  1  1.00887956  0.38647555  0.49394025  1
  O  O328  1  0.99480373  0.37871896  0.99402481  1
  O  O329  1  0.99505052  0.87827302  0.49321268  1
  O  O330  1  0.99678522  0.88440532  0.99829172  1
  O  O331  1  0.49807471  0.48990492  0.37257960  1
  O  O332  1  0.50361476  0.49783352  0.88636766  1
  O  O333  1  0.48821333  1.00853627  0.38156627  1
  O  O334  1  0.49869268  0.99206724  0.87390857  1
  O  O335  1  1.00684273  0.49145584  0.38794642  1
  O  O336  1  0.99735515  0.49128635  0.88137232  1
  O  O337  1  0.99445569  0.99132277  0.37747566  1
  O  O338  1  0.99215709  1.00007294  0.88052968  1
  O  O339  1  0.00165376  0.00507035  0.11851634  1
  O  O340  1  0.00394098  0.00752377  0.61748003  1
  O  O341  1  0.00253618  0.50021580  0.11267609  1
  O  O342  1  0.00568789  0.50664564  0.61763109  1
  O  O343  1  0.50085427  0.00550503  0.12580521  1
  O  O344  1  0.50682853  0.00752203  0.61717243  1
  O  O345  1  0.50478164  0.50849852  0.11344538  1
  O  O346  1  0.50819130  0.51039110  0.63380852  1
  O  O347  1  0.23604352  0.37484833  0.25409695  1
  O  O348  1  0.25083386  0.37338627  0.73732112  1
  O  O349  1  0.24493501  0.87541622  0.24604262  1
  O  O350  1  0.24200944  0.88484106  0.74568830  1
  O  O351  1  0.73803218  0.38404397  0.26084885  1
  O  O352  1  0.74955157  0.38741199  0.75890949  1
  O  O353  1  0.73764554  0.87726080  0.24824660  1
  O  O354  1  0.75754967  0.87260993  0.73656526  1
  O  O355  1  0.24439400  0.11139848  0.26086065  1
  O  O356  1  0.25697942  0.12096980  0.74919965  1
  O  O357  1  0.25300591  0.62650926  0.25912315  1
  O  O358  1  0.26616495  0.62935479  0.74310030  1
  O  O359  1  0.76381271  0.11143540  0.25375281  1
  O  O360  1  0.76252517  0.13070720  0.76044040  1
  O  O361  1  0.75754070  0.61765128  0.25775640  1
  O  O362  1  0.75623705  0.61740206  0.75854528  1
  O  O363  1  0.36451732  0.11836884  0.38275759  1
  O  O364  1  0.37196498  0.12370317  0.86652331  1
  O  O365  1  0.36645820  0.62392564  0.36990504  1
  O  O366  1  0.38273013  0.61499906  0.86889542  1
  O  O367  1  0.86835278  0.11043218  0.38252852  1
  O  O368  1  0.87125686  0.11939586  0.86763952  1
  O  O369  1  0.86590689  0.62708235  0.36614835  1
  O  O370  1  0.87038652  0.61807814  0.86621824  1
  O  O371  1  0.12461526  0.37278784  0.13654654  1
  O  O372  1  0.13546673  0.38277288  0.62708773  1
  O  O373  1  0.13336081  0.87598688  0.13169784  1
  O  O374  1  0.12638081  0.88172665  0.63093741  1
  O  O375  1  0.61509956  0.38309847  0.13778616  1
  O  O376  1  0.61938148  0.38687298  0.62510509  1
  O  O377  1  0.62449294  0.88421095  0.13397001  1
  O  O378  1  0.63572736  0.88317327  0.61742629  1
  O  O379  1  0.11885615  0.25370353  0.26102008  1
  O  O380  1  0.11252847  0.25110748  0.75780612  1
  O  O381  1  0.11781802  0.76013304  0.24986101  1
  O  O382  1  0.13102570  0.75755337  0.75608294  1
  O  O383  1  0.61394235  0.26153310  0.25354614  1
  O  O384  1  0.61280987  0.24750583  0.74553746  1
  O  O385  1  0.62326381  0.75576226  0.26648833  1
  O  O386  1  0.61283160  0.74645633  0.75155671  1
  O  O387  1  0.38752396  0.25346446  0.24448208  1
  O  O388  1  0.38556775  0.23958810  0.75244458  1
  O  O389  1  0.37255646  0.73604250  0.24772514  1
  O  O390  1  0.38362553  0.74477946  0.74425892  1
  O  O391  1  0.88373260  0.24040388  0.25792337  1
  O  O392  1  0.88478178  0.24464343  0.74220214  1
  O  O393  1  0.88446466  0.74177164  0.25669910  1
  O  O394  1  0.87308948  0.73624311  0.74453669  1
  O  O395  1  0.37147415  0.48535546  0.49697736  1
  O  O396  1  0.38725836  0.50481605  0.98760599  1
  O  O397  1  0.38060288  0.99341717  0.49461382  1
  O  O398  1  0.37556094  0.98747202  0.99618183  1
  O  O399  1  0.88799160  0.50424071  0.50463550  1
  O  O400  1  0.88635406  0.48451724  0.98943788  1
  O  O401  1  0.88152298  0.99296246  0.49329661  1
  O  O402  1  0.89027482  1.00853987  0.98327287  1
  O  O403  1  0.11378643  0.00673074  -0.00174310  1
  O  O404  1  0.12036014  0.00413863  0.50452212  1
  O  O405  1  0.11693440  0.50721765  -0.00326146  1
  O  O406  1  0.11914450  0.50985925  0.51140375  1
  O  O407  1  0.62137111  0.00443178  0.01279461  1
  O  O408  1  0.61651658  0.00586402  0.50056752  1
  O  O409  1  0.62270282  0.49935867  0.01018017  1
  O  O410  1  0.62945407  0.51150732  0.50787284  1
  O  O411  1  0.37737084  0.36160320  0.12595875  1
  O  O412  1  0.36390095  0.38045636  0.62173039  1
  O  O413  1  0.36894188  0.87108692  0.11593114  1
  O  O414  1  0.37324816  0.87091754  0.61260061  1
  O  O415  1  0.87953380  0.37624325  0.11517673  1
  O  O416  1  0.87614632  0.36334114  0.62645859  1
  O  O417  1  0.86003351  0.86761595  0.12650565  1
  O  O418  1  0.87268014  0.86857048  0.62081254  1
  O  O419  1  0.13432660  0.12974052  0.37932612  1
  O  O420  1  0.12560335  0.13451982  0.88306889  1
  O  O421  1  0.12933828  0.62434081  0.38750988  1
  O  O422  1  0.12500065  0.63420477  0.87794393  1
  O  O423  1  0.63187764  0.13119317  0.38415806  1
  O  O424  1  0.64139473  0.11947159  0.87635399  1
  O  O425  1  0.62809455  0.63243786  0.38145318  1
  O  O426  1  0.63353091  0.63632278  0.87489091  1
