# generated using pymatgen
data_V85Zn86O256
_symmetry_space_group_name_H-M   'P 1'
_cell_length_a   16.98812096
_cell_length_b   16.98010430
_cell_length_c   16.97225879
_cell_angle_alpha   90.04609578
_cell_angle_beta   89.86236305
_cell_angle_gamma   89.96414905
_symmetry_Int_Tables_number   1
_chemical_formula_structural   V85Zn86O256
_chemical_formula_sum   'V85 Zn86 O256'
_cell_volume   4895.80221154
_cell_formula_units_Z   1
loop_
 _symmetry_equiv_pos_site_id
 _symmetry_equiv_pos_as_xyz
  1  'x, y, z'
loop_
 _atom_site_type_symbol
 _atom_site_label
 _atom_site_symmetry_multiplicity
 _atom_site_fract_x
 _atom_site_fract_y
 _atom_site_fract_z
 _atom_site_occupancy
  V  V0  1  0.49418505  0.11722941  0.62423432  1
  V  V1  1  0.75123112  0.62549748  0.37604580  1
  V  V2  1  0.87873859  0.50325469  0.36990308  1
  V  V3  1  0.87953624  0.50162326  0.86859013  1
  V  V4  1  0.12849722  0.37480830  0.74573001  1
  V  V5  1  0.63155460  0.37127043  0.74636185  1
  V  V6  1  0.36528176  0.74818741  0.62450351  1
  V  V7  1  0.25136703  0.88332176  0.12602195  1
  V  V8  1  0.62499598  0.12016532  0.50010713  1
  V  V9  1  0.74365382  0.25539748  0.51136885  1
  V  V10  1  0.49727784  0.62256961  0.12869074  1
  V  V11  1  0.74997730  0.87465573  0.13141832  1
  V  V12  1  0.87779487  0.87563655  0.49888019  1
  V  V13  1  0.00971396  -0.00212744  0.49579298  1
  V  V14  1  0.25198418  0.87821273  0.61257008  1
  V  V15  1  0.62804656  0.12299475  -0.00032395  1
  V  V16  1  0.87541241  0.74149355  0.13352097  1
  V  V17  1  0.62738805  0.62726922  -0.00020029  1
  V  V18  1  0.12986728  0.23850233  0.86991042  1
  V  V19  1  0.62120385  -0.00217831  0.62570101  1
  V  V20  1  0.74825411  0.87748588  0.62847980  1
  V  V21  1  0.50238729  0.12555400  0.12323712  1
  V  V22  1  0.25523756  0.50429210  0.74882120  1
  V  V23  1  0.00775358  0.50114007  -0.00257971  1
  V  V24  1  0.12947115  0.26492513  0.36633815  1
  V  V25  1  0.12659692  0.88061914  0.74578782  1
  V  V26  1  0.00071479  0.00985661  0.00220027  1
  V  V27  1  0.00285458  0.36992794  0.87114067  1
  V  V28  1  0.87732094  0.86988945  0.00043002  1
  V  V29  1  0.86938622  -0.00574326  0.37327533  1
  V  V30  1  0.50272298  0.49746819  -0.00224141  1
  V  V31  1  0.61666704  0.24498552  0.37541808  1
  V  V32  1  0.11418163  0.87458268  0.25263522  1
  V  V33  1  0.37673540  0.24888890  0.62714345  1
  V  V34  1  0.61838903  0.87489641  0.75412079  1
  V  V35  1  0.25237395  0.37708602  0.62473008  1
  V  V36  1  0.63156896  0.24199184  0.87289211  1
  V  V37  1  0.62735475  0.49681808  0.62622579  1
  V  V38  1  0.49905849  0.50237989  0.50212047  1
  V  V39  1  0.87239820  0.24957232  0.62054464  1
  V  V40  1  0.00491081  0.62227628  0.13122045  1
  V  V41  1  0.37158657  0.50484493  0.36899916  1
  V  V42  1  0.86968577  0.00930535  0.87179510  1
  V  V43  1  0.25284166  0.24532506  -0.00511693  1
  V  V44  1  -0.00277984  0.62489423  0.63336668  1
  V  V45  1  0.62355786  0.62713893  0.50548292  1
  V  V46  1  0.75088517  0.50836830  0.24740669  1
  V  V47  1  0.50116804  0.38205622  0.37224631  1
  V  V48  1  0.24763646  0.11460277  0.37435476  1
  V  V49  1  0.50184903  0.37153141  0.87467417  1
  V  V50  1  0.37275179  0.11195722  0.25475468  1
  V  V51  1  0.23873092  0.37736132  0.12382971  1
  V  V52  1  0.23156133  0.49648202  0.24504625  1
  V  V53  1  0.12712881  0.63481460  0.50154024  1
  V  V54  1  0.25116042  0.75539915  -0.00126580  1
  V  V55  1  0.12422548  0.74946641  0.87561572  1
  V  V56  1  0.86570672  0.37743620  0.50054576  1
  V  V57  1  0.79299872  0.17274077  0.33650818  1
  V  V58  1  0.37243265  0.74789826  0.12006497  1
  V  V59  1  0.75672353  0.62577148  0.86988045  1
  V  V60  1  0.75805231  0.24772509  -0.00230738  1
  V  V61  1  0.49320011  0.62627503  0.63483658  1
  V  V62  1  0.63107816  0.37420457  0.24927210  1
  V  V63  1  0.36791767  0.00382750  0.88415918  1
  V  V64  1  0.87420689  0.74813256  0.63492537  1
  V  V65  1  0.75031370  0.75013292  0.50304139  1
  V  V66  1  -0.00064531  0.49602944  0.50054715  1
  V  V67  1  0.25012581  0.00348564  0.74894134  1
  V  V68  1  0.00862667  0.11977338  0.61655028  1
  V  V69  1  0.62354492  0.74913097  0.87638154  1
  V  V70  1  0.75550554  0.49725594  0.74481337  1
  V  V71  1  0.49567910  0.25220089  0.24934442  1
  V  V72  1  0.62794626  0.49962443  0.12441156  1
  V  V73  1  0.00146527  0.24956074  0.74206915  1
  V  V74  1  0.24658943  0.63333478  0.37442127  1
  V  V75  1  0.25020975  0.24699122  0.49783286  1
  V  V76  1  0.25617184  0.62809179  0.87113501  1
  V  V77  1  0.37806261  0.50407691  0.87057599  1
  V  V78  1  0.37685718  0.37779035  0.49985575  1
  V  V79  1  0.49264982  0.87408793  0.89043917  1
  V  V80  1  0.12217232  0.00622281  0.12850114  1
  V  V81  1  0.12725354  0.50084827  0.62472725  1
  V  V82  1  -0.00044524  0.87608062  0.87409546  1
  V  V83  1  0.48862966  -0.01897513  0.48599955  1
  V  V84  1  0.76084456  0.37445219  0.12128812  1
  Zn  Zn85  1  0.61911335  0.75645755  0.37503203  1
  Zn  Zn86  1  0.37548697  0.37397859  0.00125015  1
  Zn  Zn87  1  -0.00420321  0.74749312  0.75417531  1
  Zn  Zn88  1  0.12588665  0.12741640  0.00393606  1
  Zn  Zn89  1  0.74533628  0.00093106  0.25878324  1
  Zn  Zn90  1  0.12720736  0.62148297  0.00179160  1
  Zn  Zn91  1  0.49790134  0.00066681  0.00159451  1
  Zn  Zn92  1  0.36872477  0.12535050  0.75343960  1
  Zn  Zn93  1  0.11748383  0.75728118  0.38013045  1
  Zn  Zn94  1  0.74184957  0.00711585  0.75953862  1
  Zn  Zn95  1  0.49048467  0.74574291  0.75618275  1
  Zn  Zn96  1  0.50013417  0.24548322  0.75084977  1
  Zn  Zn97  1  0.86937421  0.12742972  0.74813021  1
  Zn  Zn98  1  0.62674477  0.00151683  0.12720724  1
  Zn  Zn99  1  0.61392154  0.87730160  0.26193697  1
  Zn  Zn100  1  0.00479741  0.24504720  0.23058536  1
  Zn  Zn101  1  0.75230852  0.74742116  0.00174038  1
  Zn  Zn102  1  0.88004976  0.37008023  -0.00208002  1
  Zn  Zn103  1  0.36682714  0.61933979  0.24031499  1
  Zn  Zn104  1  -0.00569600  0.74649852  0.26160860  1
  Zn  Zn105  1  0.37244397  0.25429437  0.12454420  1
  Zn  Zn106  1  0.47870173  0.78283759  0.27897557  1
  Zn  Zn107  1  0.18926172  0.19095371  0.19064680  1
  Zn  Zn108  1  0.18760048  0.18607830  0.68165558  1
  Zn  Zn109  1  0.18269182  0.68912188  0.18786909  1
  Zn  Zn110  1  0.18684981  0.69089289  0.69086988  1
  Zn  Zn111  1  0.79090143  0.18045547  0.17242012  1
  Zn  Zn112  1  0.68771165  0.18112174  0.68875486  1
  Zn  Zn113  1  0.68161914  0.69379426  0.19246492  1
  Zn  Zn114  1  0.68606620  0.68763086  0.69150270  1
  Zn  Zn115  1  0.31080151  0.31784264  0.31114816  1
  Zn  Zn116  1  0.31497408  0.31364134  0.81270730  1
  Zn  Zn117  1  0.30537698  0.81322378  0.30377062  1
  Zn  Zn118  1  0.31538581  0.81625526  0.80770095  1
  Zn  Zn119  1  0.85804268  0.34798396  0.28589757  1
  Zn  Zn120  1  0.81497023  0.31081570  0.81100710  1
  Zn  Zn121  1  0.81213878  0.81050342  0.31512464  1
  Zn  Zn122  1  0.80817566  0.81669648  0.81349234  1
  Zn  Zn123  1  0.19048479  0.44345464  0.44062765  1
  Zn  Zn124  1  0.18946110  0.43336033  0.93509190  1
  Zn  Zn125  1  0.18867167  0.93733485  0.43338622  1
  Zn  Zn126  1  0.18680112  0.93893612  0.93913847  1
  Zn  Zn127  1  0.68790226  0.43780649  0.43590332  1
  Zn  Zn128  1  0.69042256  0.43562848  0.93391484  1
  Zn  Zn129  1  0.68535844  0.93478955  0.43760303  1
  Zn  Zn130  1  0.68699012  0.93470886  0.94278248  1
  Zn  Zn131  1  0.31289426  0.06804763  0.06687525  1
  Zn  Zn132  1  0.31150925  0.05880350  0.55875901  1
  Zn  Zn133  1  0.30943646  0.55836301  0.05583243  1
  Zn  Zn134  1  0.31505518  0.57000294  0.55943608  1
  Zn  Zn135  1  0.80680475  0.05258615  0.05207084  1
  Zn  Zn136  1  0.81069832  0.06297760  0.56099354  1
  Zn  Zn137  1  0.81945681  0.56053193  0.05674603  1
  Zn  Zn138  1  0.81445055  0.56538323  0.56538906  1
  Zn  Zn139  1  0.43366974  0.43590786  0.18486276  1
  Zn  Zn140  1  0.44087207  0.43607513  0.69101965  1
  Zn  Zn141  1  0.43258775  0.93800099  0.18611022  1
  Zn  Zn142  1  0.43277738  0.93402733  0.69028312  1
  Zn  Zn143  1  0.96042742  0.43151277  0.18125371  1
  Zn  Zn144  1  0.93699819  0.43344788  0.68348086  1
  Zn  Zn145  1  0.93615520  0.94167459  0.18602835  1
  Zn  Zn146  1  0.93861487  0.93721946  0.68611901  1
  Zn  Zn147  1  0.06586604  0.06446818  0.30702448  1
  Zn  Zn148  1  0.05585737  0.06201445  0.80673889  1
  Zn  Zn149  1  0.06049290  0.56531024  0.31622394  1
  Zn  Zn150  1  0.06742946  0.56282859  0.81233089  1
  Zn  Zn151  1  0.56370642  0.05966496  0.30985669  1
  Zn  Zn152  1  0.55509671  0.06048571  0.81347215  1
  Zn  Zn153  1  0.52877278  0.61170785  0.34249281  1
  Zn  Zn154  1  0.56804922  0.55998693  0.81292812  1
  Zn  Zn155  1  0.43553783  0.18362761  0.43888417  1
  Zn  Zn156  1  0.43725014  0.18674528  0.93629481  1
  Zn  Zn157  1  0.43314070  0.79262056  0.43788407  1
  Zn  Zn158  1  0.43782465  0.68669655  0.94239461  1
  Zn  Zn159  1  0.97087188  0.16161015  0.40184522  1
  Zn  Zn160  1  0.93672123  0.18369617  1.06220481  1
  Zn  Zn161  1  0.93809497  0.68589575  0.44331254  1
  Zn  Zn162  1  0.93802261  0.68558609  0.94040656  1
  Zn  Zn163  1  0.06856579  0.31514570  0.05613695  1
  Zn  Zn164  1  0.04599571  0.29458684  0.52879934  1
  Zn  Zn165  1  0.06276480  0.81230118  0.06498372  1
  Zn  Zn166  1  0.06148087  0.81511715  0.56606820  1
  Zn  Zn167  1  0.56974981  0.30933732  0.06314011  1
  Zn  Zn168  1  0.55916560  0.31293915  0.56430167  1
  Zn  Zn169  1  0.54821566  0.82375995  0.09179964  1
  Zn  Zn170  1  0.55975224  0.80944802  0.56722017  1
  O  O171  1  0.13498525  0.10981616  0.12885571  1
  O  O172  1  0.10718008  0.12816169  0.62335284  1
  O  O173  1  0.10945629  0.62834460  0.11954953  1
  O  O174  1  0.12196368  0.62050885  0.62035492  1
  O  O175  1  0.61371739  0.12338058  0.11325457  1
  O  O176  1  0.61369052  0.11851977  0.61889389  1
  O  O177  1  0.61937789  0.61935701  0.11691434  1
  O  O178  1  0.62291945  0.61765838  0.62037697  1
  O  O179  1  0.38071293  0.38717985  0.37834813  1
  O  O180  1  0.38710264  0.38152745  0.87617254  1
  O  O181  1  0.40082981  0.84588991  0.34501690  1
  O  O182  1  0.38333936  0.88648844  0.87266490  1
  O  O183  1  0.86572372  0.39067208  0.39353855  1
  O  O184  1  0.88765353  0.38040258  0.87290193  1
  O  O185  1  0.87044799  0.87764701  0.39140201  1
  O  O186  1  0.88646258  0.87240816  0.88135687  1
  O  O187  1  0.24973843  0.01561321  0.37716812  1
  O  O188  1  0.26170960  -0.00657451  0.86854492  1
  O  O189  1  0.25362089  0.50159590  0.36122845  1
  O  O190  1  0.25950108  0.50724348  0.87172189  1
  O  O191  1  0.76043695  -0.00145415  0.37857310  1
  O  O192  1  0.76627903  -0.00933043  0.87790137  1
  O  O193  1  0.75412286  0.50639728  0.36719356  1
  O  O194  1  0.75965275  0.50455771  0.86633132  1
  O  O195  1  0.25171334  0.49378490  0.13584666  1
  O  O196  1  0.24917158  0.49863286  0.62988748  1
  O  O197  1  0.24414150  0.98721474  0.11700719  1
  O  O198  1  0.25609680  0.98563974  0.63055549  1
  O  O199  1  0.74860099  0.49945897  0.12984179  1
  O  O200  1  0.74830812  0.50526852  0.63947985  1
  O  O201  1  0.75269186  0.98357471  0.12869857  1
  O  O202  1  0.73934792  0.99106179  0.62321327  1
  O  O203  1  -0.03304234  0.35279043  0.25464126  1
  O  O204  1  0.00875607  0.36934864  0.75037731  1
  O  O205  1  0.01165391  0.87131000  0.24232347  1
  O  O206  1  0.00795485  0.87349257  0.75657681  1
  O  O207  1  0.50686163  0.37165003  0.25433207  1
  O  O208  1  0.50957929  0.37257813  0.76163275  1
  O  O209  1  0.51252277  0.86228803  0.20033698  1
  O  O210  1  0.50901286  0.87407699  0.75963713  1
  O  O211  1  0.49090623  0.13302264  0.24556600  1
  O  O212  1  0.49723816  0.12456610  0.73471794  1
  O  O213  1  0.49526706  0.61456772  0.23092051  1
  O  O214  1  0.50995342  0.62328781  0.73786170  1
  O  O215  1  0.99563191  0.14815914  0.29041404  1
  O  O216  1  0.99310082  0.13030877  0.73442904  1
  O  O217  1  1.00111698  0.62112427  0.23416383  1
  O  O218  1  1.00785512  0.62738936  0.73755136  1
  O  O219  1  0.36738825  0.25342875  -0.00109529  1
  O  O220  1  0.37099153  0.25809914  0.50658479  1
  O  O221  1  0.35843098  0.74573328  0.00352024  1
  O  O222  1  0.37613917  0.74433165  0.52362864  1
  O  O223  1  0.86090054  0.24928913  -0.00737892  1
  O  O224  1  0.85969569  0.26065428  0.50372960  1
  O  O225  1  0.87520219  0.75641639  0.00879655  1
  O  O226  1  0.86986212  0.75675452  0.51242799  1
  O  O227  1  0.15021586  0.25229737  0.50930237  1
  O  O228  1  0.13355865  0.24853156  0.98506435  1
  O  O229  1  0.12111327  0.73777116  0.50261992  1
  O  O230  1  0.13206421  0.75033799  0.98878773  1
  O  O231  1  0.62575154  0.24596914  0.49675601  1
  O  O232  1  0.63315809  0.24387644  0.99000406  1
  O  O233  1  0.63256864  0.73974167  0.50645852  1
  O  O234  1  0.62843417  0.73488039  0.99591285  1
  O  O235  1  0.50112971  0.24349839  0.13368003  1
  O  O236  1  0.48836844  0.24243099  0.62486570  1
  O  O237  1  0.48354289  0.73197285  0.10271733  1
  O  O238  1  0.49058676  0.74082122  0.63125207  1
  O  O239  1  1.00809685  0.24692130  0.11751787  1
  O  O240  1  0.99209321  0.23936510  0.61840982  1
  O  O241  1  0.99269046  0.73662926  0.12342621  1
  O  O242  1  0.99177999  0.74294088  0.62822117  1
  O  O243  1  0.03449167  0.25598778  0.41268462  1
  O  O244  1  0.01222788  0.26336618  0.86254583  1
  O  O245  1  0.00466523  0.73881038  0.37406388  1
  O  O246  1  0.00726437  0.75558833  0.87441997  1
  O  O247  1  0.50227566  0.25871199  0.37211515  1
  O  O248  1  0.50943940  0.25725478  0.87282806  1
  O  O249  1  0.50510445  0.71929905  0.37539151  1
  O  O250  1  0.50370998  0.75622148  0.87660128  1
  O  O251  1  0.26516083  0.13391892  0.48349161  1
  O  O252  1  0.24737710  0.14159487  1.00590657  1
  O  O253  1  0.23806586  0.61552679  0.48770584  1
  O  O254  1  0.24548394  0.63039382  0.98744069  1
  O  O255  1  0.73047336  0.13241323  0.50750693  1
  O  O256  1  0.73584446  0.13245259  1.00129941  1
  O  O257  1  0.74326536  0.62967505  0.49875372  1
  O  O258  1  0.74459359  0.62164403  0.98776750  1
  O  O259  1  0.25131130  0.36935597  0.00838326  1
  O  O260  1  0.26058893  0.37237304  0.50689105  1
  O  O261  1  0.24076452  0.86520968  0.01209135  1
  O  O262  1  0.24453019  0.87741083  0.51373567  1
  O  O263  1  0.75119526  0.36779935  0.00392125  1
  O  O264  1  0.75149332  0.36771043  0.50248557  1
  O  O265  1  0.76558171  0.87158563  0.00484601  1
  O  O266  1  0.75623067  0.86773737  0.51053369  1
  O  O267  1  0.13343443  0.49700618  0.25367333  1
  O  O268  1  0.13454701  0.49467545  0.74436001  1
  O  O269  1  0.11833659  0.98813461  0.24165624  1
  O  O270  1  0.13088868  0.98756071  0.75835960  1
  O  O271  1  0.63912125  0.49054595  0.24165454  1
  O  O272  1  0.63503975  0.49042354  0.74652699  1
  O  O273  1  0.62744323  0.99418743  0.24421445  1
  O  O274  1  0.62158692  0.99183072  0.74538470  1
  O  O275  1  0.37563661  0.01366413  0.24953466  1
  O  O276  1  0.36583980  0.00049919  0.75908549  1
  O  O277  1  0.36725554  0.50024039  0.25666304  1
  O  O278  1  0.37187957  0.49591286  0.76280449  1
  O  O279  1  0.87413957  -0.00908382  0.26925362  1
  O  O280  1  0.87580013  -0.00585807  0.76480910  1
  O  O281  1  0.86802235  0.49559388  0.26507953  1
  O  O282  1  0.86992552  0.49326025  0.75877613  1
  O  O283  1  0.13795184  0.36325441  0.37916154  1
  O  O284  1  0.12087660  0.37083037  0.86267798  1
  O  O285  1  0.13261994  0.87426390  0.35627954  1
  O  O286  1  0.11444381  0.87002945  0.87214552  1
  O  O287  1  0.61914655  0.36772695  0.37083003  1
  O  O288  1  0.62042671  0.36863530  0.86515014  1
  O  O289  1  0.62176361  0.87003251  0.37634118  1
  O  O290  1  0.61793191  0.86962402  0.87197472  1
  O  O291  1  0.37853050  0.13328615  0.13903876  1
  O  O292  1  0.37942348  0.13160996  0.62465033  1
  O  O293  1  0.38069873  0.62633611  0.11665748  1
  O  O294  1  0.38143001  0.63284196  0.62860149  1
  O  O295  1  0.86597075  0.11887721  0.11936103  1
  O  O296  1  0.88006997  0.13817941  0.61909182  1
  O  O297  1  0.88614872  0.63288612  0.11696274  1
  O  O298  1  0.88491915  0.63550850  0.62312324  1
  O  O299  1  0.24809827  0.26323165  0.11875654  1
  O  O300  1  0.26326054  0.25297801  0.62060506  1
  O  O301  1  0.25125587  0.75340820  0.11479502  1
  O  O302  1  0.25755513  0.75918667  0.63067625  1
  O  O303  1  0.74395362  0.26358444  0.11168083  1
  O  O304  1  0.75319606  0.24862886  0.61669652  1
  O  O305  1  0.75831579  0.75527966  0.12317802  1
  O  O306  1  0.75555321  0.75498031  0.62381427  1
  O  O307  1  0.24587624  0.24898705  0.38112995  1
  O  O308  1  0.24207814  0.25783928  0.88171750  1
  O  O309  1  0.24181763  0.73544044  0.36557268  1
  O  O310  1  0.24580593  0.74647996  0.87865933  1
  O  O311  1  0.73525684  0.24240924  0.39056334  1
  O  O312  1  0.73841697  0.25630280  0.88058483  1
  O  O313  1  0.75023956  0.74000154  0.38438556  1
  O  O314  1  0.74490277  0.74122125  0.87674780  1
  O  O315  1  0.00338195  0.11166395  -0.00575020  1
  O  O316  1  -0.00328489  0.11082177  0.50769466  1
  O  O317  1  0.00363135  0.61647170  0.00507590  1
  O  O318  1  0.00726262  0.61472380  0.51404203  1
  O  O319  1  0.50724152  0.12887471  0.00792617  1
  O  O320  1  0.50630756  0.12284839  0.51069681  1
  O  O321  1  0.51021630  0.61403669  0.00220652  1
  O  O322  1  0.51241884  0.61598885  0.51741350  1
  O  O323  1  0.49621456  0.38305476  0.49279560  1
  O  O324  1  0.50645018  0.37898813  0.98840008  1
  O  O325  1  0.49600833  0.87657169  0.50029523  1
  O  O326  1  0.50446536  0.87654793  0.99275328  1
  O  O327  1  0.98859473  0.39153819  0.50722365  1
  O  O328  1  1.00105350  0.38180604  0.98630845  1
  O  O329  1  0.99006014  0.88793843  0.51156757  1
  O  O330  1  0.99306303  0.87920794  0.99341342  1
  O  O331  1  0.49019460  0.50562558  0.38128519  1
  O  O332  1  0.49659703  0.49344298  0.87740486  1
  O  O333  1  0.50230567  1.00231781  0.38979732  1
  O  O334  1  0.48775408  0.99098353  0.87895673  1
  O  O335  1  0.98829933  0.50979336  0.38670241  1
  O  O336  1  0.99599391  0.49276936  0.87325431  1
  O  O337  1  0.98920855  1.00598248  0.39126382  1
  O  O338  1  0.99324515  0.99113395  0.88020380  1
  O  O339  1  0.00856569  -0.00548215  0.11367080  1
  O  O340  1  -0.00819065  0.01287921  0.61558557  1
  O  O341  1  -0.00660100  0.51131364  0.11198879  1
  O  O342  1  0.00490410  0.50688195  0.62187127  1
  O  O343  1  0.49449130  0.01643223  0.12049756  1
  O  O344  1  0.50202168  0.00216399  0.61907584  1
  O  O345  1  0.50601000  0.50236457  0.11527845  1
  O  O346  1  0.50457133  0.50476022  0.62242011  1
  O  O347  1  0.25141970  0.38661988  0.23717323  1
  O  O348  1  0.24812117  0.38265289  0.74379794  1
  O  O349  1  0.23596902  0.86931998  0.23052909  1
  O  O350  1  0.24249691  0.88449596  0.74454393  1
  O  O351  1  0.75250559  0.38502031  0.23985373  1
  O  O352  1  0.74228099  0.38362136  0.75460111  1
  O  O353  1  0.75075886  0.87262585  0.23708502  1
  O  O354  1  0.73515677  0.87925068  0.74709748  1
  O  O355  1  0.26533278  0.13324018  0.26056108  1
  O  O356  1  0.24750021  0.10790098  0.73995887  1
  O  O357  1  0.24425082  0.61183489  0.25355281  1
  O  O358  1  0.24509046  0.62033789  0.76372704  1
  O  O359  1  0.74004552  0.12285814  0.26452549  1
  O  O360  1  0.75678305  0.11804373  0.74595820  1
  O  O361  1  0.74461366  0.61566940  0.25937595  1
  O  O362  1  0.74384791  0.61512966  0.76323481  1
  O  O363  1  0.36970370  0.13179194  0.36043866  1
  O  O364  1  0.38149560  0.10833504  0.87011841  1
  O  O365  1  0.36120541  0.61116826  0.37021439  1
  O  O366  1  0.36852521  0.61683762  0.87808248  1
  O  O367  1  0.86072565  0.11658243  0.39010605  1
  O  O368  1  0.87817538  0.10646823  0.87298963  1
  O  O369  1  0.85874439  0.61567519  0.38771048  1
  O  O370  1  0.86837204  0.61662084  0.87569281  1
  O  O371  1  0.13947331  0.38204208  0.11887018  1
  O  O372  1  0.13522955  0.38281913  0.63049685  1
  O  O373  1  0.13072233  0.88319641  0.12979953  1
  O  O374  1  0.13847363  0.86727404  0.63562660  1
  O  O375  1  0.63571681  0.38174776  0.12901507  1
  O  O376  1  0.61761708  0.37945142  0.63911224  1
  O  O377  1  0.64841448  0.87538914  0.10914965  1
  O  O378  1  0.62657990  0.87745133  0.63539394  1
  O  O379  1  0.12554595  0.25593993  0.26347614  1
  O  O380  1  0.12291354  0.25558760  0.75020256  1
  O  O381  1  0.11747513  0.76340630  0.24649706  1
  O  O382  1  0.12508759  0.76145658  0.76287658  1
  O  O383  1  0.61121646  0.25693505  0.26369935  1
  O  O384  1  0.62428617  0.25522189  0.75535546  1
  O  O385  1  0.61409809  0.75470542  0.25553510  1
  O  O386  1  0.62088609  0.75744250  0.75946394  1
  O  O387  1  0.38832036  0.25421981  0.25107405  1
  O  O388  1  0.37716045  0.24631084  0.74173211  1
  O  O389  1  0.37029099  0.73689344  0.22729991  1
  O  O390  1  0.37689232  0.75170372  0.73681419  1
  O  O391  1  0.84330785  0.23346650  0.27151134  1
  O  O392  1  0.88377584  0.25184506  0.73854023  1
  O  O393  1  0.87718306  0.75352443  0.23738553  1
  O  O394  1  0.87481073  0.75758970  0.73864675  1
  O  O395  1  0.37958207  0.49603886  0.49307749  1
  O  O396  1  0.38262763  0.49638471  0.98642483  1
  O  O397  1  0.39192055  1.00045200  0.50088302  1
  O  O398  1  0.37266712  1.00546844  0.98756215  1
  O  O399  1  0.87952898  0.49610515  0.49873113  1
  O  O400  1  0.88632864  0.49654347  0.98290305  1
  O  O401  1  0.87801501  0.99072460  0.49604389  1
  O  O402  1  0.88293468  0.98914077  0.98842567  1
  O  O403  1  0.11690543  0.00308258  0.00572000  1
  O  O404  1  0.10820727  -0.00762959  0.49609088  1
  O  O405  1  0.11134488  0.50093845  -0.01280136  1
  O  O406  1  0.11652531  0.50521803  0.50698128  1
  O  O407  1  0.62198725  0.00967021  0.00168905  1
  O  O408  1  0.61363805  0.00578708  0.50716829  1
  O  O409  1  0.62381377  0.50765562  0.00225846  1
  O  O410  1  0.62180531  0.50381176  0.50908765  1
  O  O411  1  0.36440702  0.37335492  0.11944377  1
  O  O412  1  0.37324158  0.36788368  0.62204737  1
  O  O413  1  0.35778182  0.86576309  0.12483231  1
  O  O414  1  0.36047979  0.86477956  0.62846442  1
  O  O415  1  0.86335862  0.38537173  0.11634717  1
  O  O416  1  0.87782685  0.36173425  0.61440581  1
  O  O417  1  0.86819630  0.86812343  0.11822883  1
  O  O418  1  0.86831141  0.86977528  0.61942266  1
  O  O419  1  0.14588808  0.13565821  0.37130685  1
  O  O420  1  0.11994202  0.13714966  0.86975191  1
  O  O421  1  0.13160312  0.62169741  0.38607037  1
  O  O422  1  0.13237534  0.63559683  0.87562332  1
  O  O423  1  0.61201592  0.13754072  0.38516510  1
  O  O424  1  0.61485513  0.13471487  0.88148590  1
  O  O425  1  0.63725616  0.61987858  0.39334765  1
  O  O426  1  0.63249267  0.62782756  0.88178531  1
