# generated using pymatgen
data_V85Zn86O256
_symmetry_space_group_name_H-M   'P 1'
_cell_length_a   16.95533734
_cell_length_b   16.95559063
_cell_length_c   16.93822146
_cell_angle_alpha   89.92135310
_cell_angle_beta   89.92612838
_cell_angle_gamma   89.95689646
_symmetry_Int_Tables_number   1
_chemical_formula_structural   V85Zn86O256
_chemical_formula_sum   'V85 Zn86 O256'
_cell_volume   4869.52132317
_cell_formula_units_Z   1
loop_
 _symmetry_equiv_pos_site_id
 _symmetry_equiv_pos_as_xyz
  1  'x, y, z'
loop_
 _atom_site_type_symbol
 _atom_site_label
 _atom_site_symmetry_multiplicity
 _atom_site_fract_x
 _atom_site_fract_y
 _atom_site_fract_z
 _atom_site_occupancy
  V  V0  1  0.49666704  0.37498693  0.87559175  1
  V  V1  1  0.62442826  0.74090510  0.87853685  1
  V  V2  1  0.37304620  0.74712912  0.62727595  1
  V  V3  1  0.50031386  0.23789212  0.25377900  1
  V  V4  1  0.11372458  0.62426764  0.49693966  1
  V  V5  1  0.37624879  0.24553512  0.13272686  1
  V  V6  1  0.12796913  0.62340309  0.02390195  1
  V  V7  1  0.62677600  0.50581458  0.12184614  1
  V  V8  1  0.49343667  0.87724513  0.88866739  1
  V  V9  1  0.25084366  0.12575885  0.37028743  1
  V  V10  1  0.24929475  0.87725853  0.63080331  1
  V  V11  1  0.62626163  0.00137050  0.11387195  1
  V  V12  1  0.62794238  0.37636620  0.74799925  1
  V  V13  1  0.23843911  -0.00453758  0.25347102  1
  V  V14  1  0.62227681  0.87192295  0.75063152  1
  V  V15  1  -0.01058646  0.25226921  0.24892251  1
  V  V16  1  0.75943698  -0.00388898  0.25403163  1
  V  V17  1  0.23798569  0.62839444  0.86879102  1
  V  V18  1  0.12245679  0.12442583  0.50014094  1
  V  V19  1  0.62410633  0.12540362  0.50067134  1
  V  V20  1  0.75756792  0.87145163  0.11920655  1
  V  V21  1  0.50144781  0.87545010  0.37411349  1
  V  V22  1  0.24939833  0.37441494  0.12778816  1
  V  V23  1  0.74086035  0.12315508  0.88314200  1
  V  V24  1  0.75228708  0.87282715  0.61840369  1
  V  V25  1  0.36612529  0.24653133  0.63174148  1
  V  V26  1  -0.00015901  0.62032961  0.62466115  1
  V  V27  1  -0.00211875  0.12809021  0.62724715  1
  V  V28  1  0.62624009  0.87477451  0.25019663  1
  V  V29  1  0.12606221  0.00479220  0.63735641  1
  V  V30  1  0.87999425  0.51644049  0.37987844  1
  V  V31  1  0.12191868  -0.00757568  0.12605928  1
  V  V32  1  0.12138773  0.38145749  0.24878511  1
  V  V33  1  0.37490203  0.00509046  0.36256338  1
  V  V34  1  0.74999942  0.25442152  0.50256314  1
  V  V35  1  0.25095638  0.62740077  0.37459301  1
  V  V36  1  0.37133511  0.37762449  0.00246206  1
  V  V37  1  0.87427499  0.74885514  0.62600115  1
  V  V38  1  0.74947593  0.74418741  -0.00246284  1
  V  V39  1  0.26377826  0.87824681  0.12307102  1
  V  V40  1  0.01797441  0.76331943  0.23735892  1
  V  V41  1  0.25774985  0.75689069  -0.01059490  1
  V  V42  1  0.87929720  0.38438798  -0.00547002  1
  V  V43  1  0.49778930  0.00101660  0.49810421  1
  V  V44  1  0.62360365  -0.00065700  0.62450019  1
  V  V45  1  0.24266742  0.75202987  0.49958036  1
  V  V46  1  0.88800806  0.62459897  0.23473902  1
  V  V47  1  0.75124807  0.50888116  0.25416726  1
  V  V48  1  0.49979564  0.37318402  0.37514409  1
  V  V49  1  0.74716276  0.00006207  0.75185424  1
  V  V50  1  0.74964527  0.61014085  0.87418133  1
  V  V51  1  -0.00095393  0.25808194  0.75666959  1
  V  V52  1  0.93072749  0.82865367  -0.06182685  1
  V  V53  1  0.12704960  0.37711801  0.74692599  1
  V  V54  1  0.12230296  0.25144890  0.37404213  1
  V  V55  1  -0.01093956  -0.01141551  0.50482344  1
  V  V56  1  0.62867329  0.74016712  0.37446630  1
  V  V57  1  0.24919148  0.50237938  0.24476298  1
  V  V58  1  0.49629195  0.62362872  0.62647817  1
  V  V59  1  0.62647567  0.37500163  0.25064314  1
  V  V60  1  0.75169864  0.74444255  0.49503347  1
  V  V61  1  0.12726022  0.49533093  0.61714043  1
  V  V62  1  0.26975212  0.00846821  0.75301366  1
  V  V63  1  0.50199149  0.50704132  0.00081032  1
  V  V64  1  0.25473533  0.50179597  0.74093132  1
  V  V65  1  0.37337516  0.87741295  0.49731723  1
  V  V66  1  0.88122160  0.38114663  0.49690132  1
  V  V67  1  0.12659264  0.25257317  0.88216140  1
  V  V68  1  0.87206696  0.12808310  0.75399194  1
  V  V69  1  0.76029794  0.11896066  0.37886205  1
  V  V70  1  0.37500992  0.49916531  0.37483622  1
  V  V71  1  0.49603026  0.24112390  0.75147288  1
  V  V72  1  0.37032636  0.50743124  0.87108547  1
  V  V73  1  0.50255288  0.11974864  0.11092354  1
  V  V74  1  0.87316416  0.25399491  0.62649019  1
  V  V75  1  0.36707947  0.37388471  0.50626845  1
  V  V76  1  0.50242088  0.49876633  0.50107332  1
  V  V77  1  0.87000903  0.60813644  0.75172232  1
  V  V78  1  0.87262879  0.00007431  0.88154140  1
  V  V79  1  0.49735670  0.74938937  0.24906500  1
  V  V80  1  0.75406406  0.24534395  0.01130386  1
  V  V81  1  0.00160071  0.00390510  -0.00663882  1
  V  V82  1  0.62037778  0.24690413  0.88538016  1
  V  V83  1  0.49646223  0.74407896  0.75090399  1
  V  V84  1  -0.00375376  0.13147827  0.12485264  1
  Zn  Zn85  1  0.62649165  0.62172707  0.49980950  1
  Zn  Zn86  1  0.87480946  0.12450680  0.24986969  1
  Zn  Zn87  1  0.12726730  0.12954348  0.00060523  1
  Zn  Zn88  1  0.49986427  0.62664024  0.12217474  1
  Zn  Zn89  1  0.24579367  0.25423260  0.50400259  1
  Zn  Zn90  1  0.49297512  0.12173584  0.62846598  1
  Zn  Zn91  1  0.38604639  0.01400903  0.89553381  1
  Zn  Zn92  1  0.62610056  0.24951309  0.37689491  1
  Zn  Zn93  1  0.25027673  0.25261593  0.00017168  1
  Zn  Zn94  1  0.00054737  0.38425776  0.37623365  1
  Zn  Zn95  1  0.11519424  0.86604626  0.78694751  1
  Zn  Zn96  1  0.00394934  0.50402819  0.00409282  1
  Zn  Zn97  1  0.00081767  0.74974559  0.76499115  1
  Zn  Zn98  1  0.75427563  0.38829123  0.62950597  1
  Zn  Zn99  1  0.37648794  0.62488281  0.24515598  1
  Zn  Zn100  1  -0.00365679  0.88512328  0.36837444  1
  Zn  Zn101  1  0.38090576  0.74979600  0.11779870  1
  Zn  Zn102  1  0.88423718  0.74645558  0.11641945  1
  Zn  Zn103  1  0.26127848  0.13299579  0.87588557  1
  Zn  Zn104  1  0.12662013  0.76196122  0.36662758  1
  Zn  Zn105  1  0.75568860  0.36912027  0.13020100  1
  Zn  Zn106  1  0.62746005  0.50499306  0.63282858  1
  Zn  Zn107  1  0.18106168  0.18697963  0.18776737  1
  Zn  Zn108  1  0.18795855  0.18883024  0.69091562  1
  Zn  Zn109  1  0.19705132  0.69563639  0.18459373  1
  Zn  Zn110  1  0.18381840  0.68584677  0.69128850  1
  Zn  Zn111  1  0.68304899  0.18166737  0.19318106  1
  Zn  Zn112  1  0.68414393  0.19030372  0.68922802  1
  Zn  Zn113  1  0.68989423  0.68537388  0.18661799  1
  Zn  Zn114  1  0.68721855  0.68279618  0.68818467  1
  Zn  Zn115  1  0.31277015  0.31222878  0.31412464  1
  Zn  Zn116  1  0.30748216  0.31991691  0.81075134  1
  Zn  Zn117  1  0.31194024  0.81789258  0.30978431  1
  Zn  Zn118  1  0.31265619  0.81687720  0.81015800  1
  Zn  Zn119  1  0.81080222  0.31714345  0.31907458  1
  Zn  Zn120  1  0.80741147  0.31148024  0.81735801  1
  Zn  Zn121  1  0.81939633  0.81153118  0.31201709  1
  Zn  Zn122  1  0.80687224  0.80334518  0.80313071  1
  Zn  Zn123  1  0.18731715  0.44007007  0.43422381  1
  Zn  Zn124  1  0.15115669  0.45967286  0.91682948  1
  Zn  Zn125  1  0.17686922  0.93699907  0.44106434  1
  Zn  Zn126  1  0.19725287  0.94772100  0.93752988  1
  Zn  Zn127  1  0.69205607  0.44038370  0.43650537  1
  Zn  Zn128  1  0.68706396  0.42730125  0.94080470  1
  Zn  Zn129  1  0.68956092  0.93500858  0.43691277  1
  Zn  Zn130  1  0.68713542  0.92881230  0.93747200  1
  Zn  Zn131  1  0.30897339  0.07110702  0.06566988  1
  Zn  Zn132  1  0.31083165  0.06593195  0.55862809  1
  Zn  Zn133  1  0.31134898  0.56704604  0.06098057  1
  Zn  Zn134  1  0.31286476  0.56470585  0.56066252  1
  Zn  Zn135  1  0.81295748  0.06427849  0.06455165  1
  Zn  Zn136  1  0.81122343  0.06441434  0.56651058  1
  Zn  Zn137  1  0.81054445  0.55556277  0.05934169  1
  Zn  Zn138  1  0.80936245  0.56365349  0.56225286  1
  Zn  Zn139  1  0.43882274  0.43715383  0.18899831  1
  Zn  Zn140  1  0.43861309  0.43227649  0.68839837  1
  Zn  Zn141  1  0.44011941  0.93979923  0.06482919  1
  Zn  Zn142  1  0.44097490  0.93207338  0.68584639  1
  Zn  Zn143  1  0.93389749  0.43843207  0.17821236  1
  Zn  Zn144  1  0.94176746  0.43734603  0.68242146  1
  Zn  Zn145  1  0.93762225  0.93689802  0.17959231  1
  Zn  Zn146  1  0.93355682  0.93945457  0.69201873  1
  Zn  Zn147  1  0.05741620  0.06039609  0.31618401  1
  Zn  Zn148  1  0.06363345  0.06906490  0.81506035  1
  Zn  Zn149  1  0.06149483  0.56880249  0.31217048  1
  Zn  Zn150  1  0.05542404  0.55941717  0.81144593  1
  Zn  Zn151  1  0.57036805  0.05959508  0.31244944  1
  Zn  Zn152  1  0.55989322  0.06104784  0.81660459  1
  Zn  Zn153  1  0.56202342  0.56213755  0.31102140  1
  Zn  Zn154  1  0.55958689  0.56128781  0.81413651  1
  Zn  Zn155  1  0.43479827  0.18800646  0.44057686  1
  Zn  Zn156  1  0.43191035  0.18905468  0.94143462  1
  Zn  Zn157  1  0.43669217  0.68793741  0.43824606  1
  Zn  Zn158  1  0.43378851  0.68501191  0.93494109  1
  Zn  Zn159  1  0.93853250  0.18874308  0.43891329  1
  Zn  Zn160  1  0.93724865  0.19233238  0.93901628  1
  Zn  Zn161  1  0.92853078  0.72553237  0.42038214  1
  Zn  Zn162  1  0.94042259  0.66129427  0.93863641  1
  Zn  Zn163  1  0.04252241  0.34234194  0.07778011  1
  Zn  Zn164  1  0.06048713  0.31298817  0.56416251  1
  Zn  Zn165  1  0.09585006  0.83617447  0.00399850  1
  Zn  Zn166  1  0.05349808  0.82462615  0.62274803  1
  Zn  Zn167  1  0.56045675  0.31592705  0.06595070  1
  Zn  Zn168  1  0.55725410  0.31042670  0.56573081  1
  Zn  Zn169  1  0.57297720  0.80668178  0.06495356  1
  Zn  Zn170  1  0.56329423  0.81124165  0.56057651  1
  O  O171  1  0.11286460  0.11641032  0.12471124  1
  O  O172  1  0.12091340  0.12212502  0.62064315  1
  O  O173  1  0.13378716  0.62448073  0.12267347  1
  O  O174  1  0.11770365  0.61725647  0.61746555  1
  O  O175  1  0.61196148  0.11459534  0.13223225  1
  O  O176  1  0.62603317  0.11895520  0.61449051  1
  O  O177  1  0.62168267  0.60977179  0.12970331  1
  O  O178  1  0.60891401  0.62603000  0.62405912  1
  O  O179  1  0.38132069  0.37864455  0.38319849  1
  O  O180  1  0.37608117  0.38289932  0.88516354  1
  O  O181  1  0.38141856  0.88408689  0.37871620  1
  O  O182  1  0.39375307  0.87384393  0.87144190  1
  O  O183  1  0.87782541  0.38717902  0.38218786  1
  O  O184  1  0.85029408  0.37593134  0.89616287  1
  O  O185  1  0.89677827  0.83476692  0.38807532  1
  O  O186  1  0.86782144  0.88164021  0.87003363  1
  O  O187  1  0.25040523  0.00554525  0.37195472  1
  O  O188  1  0.25960888  0.00229766  0.86037995  1
  O  O189  1  0.25577733  0.50762350  0.36633984  1
  O  O190  1  0.25267859  0.50848589  0.86413017  1
  O  O191  1  0.74734280  0.00626892  0.36843453  1
  O  O192  1  0.75164793  0.00417247  0.87277382  1
  O  O193  1  0.76441880  0.49804674  0.36536274  1
  O  O194  1  0.73555093  0.51219321  0.88207336  1
  O  O195  1  0.25964724  0.49166613  0.13961749  1
  O  O196  1  0.24216368  0.50742087  0.63002567  1
  O  O197  1  0.24197366  0.99930842  0.13660887  1
  O  O198  1  0.24791209  0.99765458  0.63396271  1
  O  O199  1  0.74130658  0.49517565  0.13204162  1
  O  O200  1  0.73844278  0.49912986  0.61796024  1
  O  O201  1  0.74550494  0.99257587  0.13145269  1
  O  O202  1  0.74421366  0.99145110  0.63133665  1
  O  O203  1  0.00736499  0.36910417  0.25273052  1
  O  O204  1  0.00889921  0.36673447  0.74344480  1
  O  O205  1  -0.00322929  0.86509746  0.24742742  1
  O  O206  1  0.00909452  0.86697688  0.72927822  1
  O  O207  1  0.50710330  0.36760982  0.25687260  1
  O  O208  1  0.50547507  0.36244429  0.75740615  1
  O  O209  1  0.51718304  0.86546465  0.25578778  1
  O  O210  1  0.50873644  0.86399497  0.75426551  1
  O  O211  1  0.50691307  0.13600997  0.25177121  1
  O  O212  1  0.50587344  0.13735596  0.74919596  1
  O  O213  1  0.49846240  0.63629881  0.25117985  1
  O  O214  1  0.50001753  0.63666765  0.74487903  1
  O  O215  1  0.99747241  0.13338203  0.24610814  1
  O  O216  1  0.99139996  0.13254316  0.74530860  1
  O  O217  1  0.98897613  0.61700652  0.23652351  1
  O  O218  1  0.98906669  0.62596336  0.74414583  1
  O  O219  1  0.37827074  0.26094255  0.01649976  1
  O  O220  1  0.37262817  0.25807828  0.51065399  1
  O  O221  1  0.36342167  0.74809936  -0.00090188  1
  O  O222  1  0.36725056  0.75561780  0.50855259  1
  O  O223  1  0.85474752  0.24489323  -0.00104709  1
  O  O224  1  0.86801358  0.25816768  0.50432097  1
  O  O225  1  0.87374690  0.75187201  -0.00500023  1
  O  O226  1  0.86355283  0.73963380  0.51601781  1
  O  O227  1  0.12431576  0.24237900  0.49515966  1
  O  O228  1  0.12081477  0.25981142  0.98489775  1
  O  O229  1  0.13928929  0.74132895  0.50290382  1
  O  O230  1  0.14825487  0.73593075  1.00437991  1
  O  O231  1  0.63108484  0.24326382  0.50152835  1
  O  O232  1  0.62764238  0.25623933  0.98949003  1
  O  O233  1  0.62996763  0.74938388  0.49052707  1
  O  O234  1  0.63458242  0.74607425  0.98927642  1
  O  O235  1  0.49816006  0.24061528  0.13357839  1
  O  O236  1  0.48980140  0.24558930  0.63490061  1
  O  O237  1  0.50263341  0.74867982  0.13446095  1
  O  O238  1  0.49280150  0.74544368  0.63010560  1
  O  O239  1  1.00804239  0.24406185  0.13801173  1
  O  O240  1  0.99282893  0.24596758  0.63430541  1
  O  O241  1  0.99909584  0.74953874  0.13901571  1
  O  O242  1  0.98720708  0.73250846  0.61882295  1
  O  O243  1  0.01097288  0.25038968  0.36949648  1
  O  O244  1  0.00709279  0.24205643  0.86102152  1
  O  O245  1  0.01335608  0.72657306  0.34288097  1
  O  O246  1  -0.01541159  0.75716198  0.88258430  1
  O  O247  1  0.50107822  0.25431337  0.37030597  1
  O  O248  1  0.50374011  0.25549888  0.87171958  1
  O  O249  1  0.50737028  0.75608568  0.37084495  1
  O  O250  1  0.50459678  0.75423445  0.86924000  1
  O  O251  1  0.23848737  0.12775324  0.48999132  1
  O  O252  1  0.24401948  0.13698168  0.99958993  1
  O  O253  1  0.24659151  0.63353790  0.49265712  1
  O  O254  1  0.24935966  0.63692775  0.98973331  1
  O  O255  1  0.74452644  0.13020376  0.49698001  1
  O  O256  1  0.74663314  0.13185759  0.99499198  1
  O  O257  1  0.74297873  0.64015025  0.50358681  1
  O  O258  1  0.76024675  0.63557399  0.98945986  1
  O  O259  1  0.26223570  0.37327746  0.01189253  1
  O  O260  1  0.26348781  0.37472522  0.49338479  1
  O  O261  1  0.25017119  0.86426258  0.00508167  1
  O  O262  1  0.25588607  0.86906353  0.50541523  1
  O  O263  1  0.74891291  0.35729068  0.00752504  1
  O  O264  1  0.75919152  0.36731508  0.49943047  1
  O  O265  1  0.74753190  0.85877715  0.00642434  1
  O  O266  1  0.74223607  0.86578837  0.51335406  1
  O  O267  1  0.13326130  0.48846643  0.25819831  1
  O  O268  1  0.13056843  0.49460309  0.73670293  1
  O  O269  1  0.12917312  1.00281707  0.24331522  1
  O  O270  1  0.12707476  0.99940955  0.74278068  1
  O  O271  1  0.63271770  0.49443565  0.24752397  1
  O  O272  1  0.61291729  0.47989003  0.75216213  1
  O  O273  1  0.63635722  0.98993284  0.24446032  1
  O  O274  1  0.62769808  0.99146087  0.74631309  1
  O  O275  1  0.35919740  0.00312917  0.26382943  1
  O  O276  1  0.36957114  -0.00048416  0.74572646  1
  O  O277  1  0.36827011  0.49983856  0.25891023  1
  O  O278  1  0.36717538  0.49166157  0.75802920  1
  O  O279  1  0.86288728  -0.00220780  0.24755498  1
  O  O280  1  0.86692560  0.00601433  0.76167961  1
  O  O281  1  0.87050026  0.50777235  0.25292567  1
  O  O282  1  0.87668955  0.50935553  0.74517351  1
  O  O283  1  0.12225194  0.36821380  0.36975524  1
  O  O284  1  0.13211686  0.36524695  0.85438584  1
  O  O285  1  0.10945260  0.87185338  0.38425175  1
  O  O286  1  0.11899849  0.87815561  0.89708875  1
  O  O287  1  0.62013277  0.37510564  0.36593639  1
  O  O288  1  0.61819846  0.36525976  0.86732542  1
  O  O289  1  0.62053609  0.86853780  0.36826853  1
  O  O290  1  0.61645172  0.86299422  0.86833003  1
  O  O291  1  0.39150699  0.13337711  0.12724283  1
  O  O292  1  0.37571651  0.14192881  0.61823002  1
  O  O293  1  0.38022289  0.62981665  0.12766209  1
  O  O294  1  0.38579203  0.63428607  0.61993715  1
  O  O295  1  0.89041045  0.12020310  0.12934919  1
  O  O296  1  0.87616632  0.13437501  0.63467143  1
  O  O297  1  0.87249378  0.62308756  0.13198242  1
  O  O298  1  0.87999173  0.62596379  0.63380933  1
  O  O299  1  0.26105169  0.25521981  0.13155948  1
  O  O300  1  0.26186503  0.24998942  0.62494874  1
  O  O301  1  0.25841573  0.76308535  0.11589604  1
  O  O302  1  0.25640917  0.75757069  0.62049784  1
  O  O303  1  0.73865841  0.24437911  0.11405738  1
  O  O304  1  0.75408579  0.25125568  0.61473099  1
  O  O305  1  0.75103008  0.75325443  0.11437139  1
  O  O306  1  0.75249024  0.75541528  0.62110288  1
  O  O307  1  0.23890989  0.24374263  0.37559766  1
  O  O308  1  0.24128036  0.25243866  0.87505108  1
  O  O309  1  0.24960050  0.74523494  0.38106336  1
  O  O310  1  0.25828948  0.74440422  0.88047690  1
  O  O311  1  0.74812285  0.24255952  0.38804425  1
  O  O312  1  0.73870739  0.23949018  0.88490556  1
  O  O313  1  0.74019673  0.75740381  0.38427797  1
  O  O314  1  0.74099931  0.74288082  0.87877498  1
  O  O315  1  0.00130882  0.12094884  0.00640339  1
  O  O316  1  0.00595553  0.12303223  0.50899798  1
  O  O317  1  0.02290985  0.62333684  0.00547143  1
  O  O318  1  0.01250396  0.63121450  0.50254366  1
  O  O319  1  0.50541539  0.13092207  0.01316090  1
  O  O320  1  0.50905616  0.11955066  0.50074425  1
  O  O321  1  0.49851989  0.61050985  -0.00321488  1
  O  O322  1  0.49980685  0.61596693  0.50679799  1
  O  O323  1  0.49263080  0.38041806  0.49530403  1
  O  O324  1  0.48879881  0.38259065  0.99672975  1
  O  O325  1  0.49433804  0.88100841  0.49448234  1
  O  O326  1  0.50415742  0.86895651  0.99266070  1
  O  O327  1  0.98500899  0.37116734  0.49828900  1
  O  O328  1  0.97368428  0.34844706  0.98507892  1
  O  O329  1  1.00492473  0.89178034  0.52438538  1
  O  O330  1  0.98905859  0.88571119  1.00596026  1
  O  O331  1  0.49368988  0.49560278  0.38162561  1
  O  O332  1  0.49033852  0.49434614  0.88062437  1
  O  O333  1  0.49279468  0.99678694  0.37658684  1
  O  O334  1  0.50282030  0.98118214  0.87485839  1
  O  O335  1  0.98447753  0.50211108  0.37039323  1
  O  O336  1  1.03967960  0.49063911  0.89571308  1
  O  O337  1  1.00077449  1.00091167  0.39829435  1
  O  O338  1  0.99049572  1.00818029  0.88549262  1
  O  O339  1  0.00438537  0.00562735  0.11439142  1
  O  O340  1  0.00812141  0.01139800  0.62492570  1
  O  O341  1  0.01728609  0.45360840  0.10553396  1
  O  O342  1  0.00918079  0.51215623  0.62324894  1
  O  O343  1  0.50843625  0.01192393  0.12579787  1
  O  O344  1  0.50579878  0.00161328  0.61885149  1
  O  O345  1  0.50602769  0.49952276  0.11733928  1
  O  O346  1  0.50004288  0.50699441  0.61913993  1
  O  O347  1  0.24507266  0.38290027  0.24822117  1
  O  O348  1  0.24192195  0.39065444  0.74561114  1
  O  O349  1  0.25016579  0.88703985  0.24102606  1
  O  O350  1  0.24788179  0.88847932  0.74416822  1
  O  O351  1  0.74260492  0.38154564  0.24967520  1
  O  O352  1  0.73144108  0.36426117  0.74782614  1
  O  O353  1  0.74466991  0.87676570  0.24607212  1
  O  O354  1  0.73624767  0.87689914  0.74346052  1
  O  O355  1  0.24057868  0.11720885  0.26432840  1
  O  O356  1  0.24886559  0.10948977  0.74777900  1
  O  O357  1  0.25223908  0.61955164  0.25733036  1
  O  O358  1  0.24899143  0.61491453  0.75463289  1
  O  O359  1  0.75119369  0.11558623  0.26059049  1
  O  O360  1  0.75199459  0.12053036  0.75852856  1
  O  O361  1  0.75892584  0.61269324  0.24608239  1
  O  O362  1  0.76176985  0.62595775  0.75673434  1
  O  O363  1  0.36263326  0.11798377  0.38300424  1
  O  O364  1  0.37631958  0.12485794  0.87256596  1
  O  O365  1  0.36404230  0.62034395  0.37556934  1
  O  O366  1  0.36671042  0.61098775  0.87583632  1
  O  O367  1  0.86335383  0.12722283  0.37620246  1
  O  O368  1  0.86188454  0.11926239  0.87243308  1
  O  O369  1  0.87800848  0.61757803  0.36420453  1
  O  O370  1  0.86695407  0.62098480  0.86047566  1
  O  O371  1  0.14429639  0.36270921  0.13694195  1
  O  O372  1  0.12178382  0.38578484  0.62859479  1
  O  O373  1  0.13546360  0.89133544  0.11085192  1
  O  O374  1  0.14422353  0.89222731  0.61460935  1
  O  O375  1  0.62309856  0.38254062  0.13984512  1
  O  O376  1  0.62071402  0.37162422  0.64043924  1
  O  O377  1  0.63544466  0.87950211  0.13347302  1
  O  O378  1  0.62806584  0.87862674  0.63287354  1
  O  O379  1  0.11933775  0.25984249  0.25917667  1
  O  O380  1  0.11795853  0.25848231  0.75122992  1
  O  O381  1  0.12169503  0.75750283  0.24351954  1
  O  O382  1  0.11436861  0.76257295  0.73037998  1
  O  O383  1  0.61850843  0.25775058  0.25466961  1
  O  O384  1  0.61558731  0.25564571  0.76011124  1
  O  O385  1  0.62293635  0.75459952  0.25634229  1
  O  O386  1  0.61748700  0.75543420  0.75460357  1
  O  O387  1  0.38585410  0.25705003  0.24109299  1
  O  O388  1  0.37970907  0.25856054  0.73842461  1
  O  O389  1  0.38971392  0.75296256  0.25278124  1
  O  O390  1  0.38207441  0.75744991  0.73587550  1
  O  O391  1  0.88648066  0.25149501  0.25858604  1
  O  O392  1  0.87999460  0.24987053  0.74865646  1
  O  O393  1  0.87668974  0.73085557  0.24427602  1
  O  O394  1  0.87630627  0.73809622  0.73842506  1
  O  O395  1  0.38407400  0.49301267  0.49731404  1
  O  O396  1  0.37903183  0.49390924  0.99421325  1
  O  O397  1  0.37950789  0.99614365  0.49260632  1
  O  O398  1  0.36601815  0.99637880  1.00528875  1
  O  O399  1  0.87081325  0.49814810  0.48627859  1
  O  O400  1  0.88341307  0.49106104  0.99840826  1
  O  O401  1  0.88992827  1.00147710  0.51478368  1
  O  O402  1  0.87812644  1.00279601  0.98798319  1
  O  O403  1  0.11580059  0.00797939  0.00608247  1
  O  O404  1  0.12032062  0.01389230  0.51387480  1
  O  O405  1  0.15236385  0.52418022  0.01021475  1
  O  O406  1  0.13249984  0.50968074  0.50737243  1
  O  O407  1  0.63172163  -0.00678326  0.01442713  1
  O  O408  1  0.61968227  0.00571784  0.50419503  1
  O  O409  1  0.61390484  0.48734220  0.01076591  1
  O  O410  1  0.61078550  0.49905860  0.49701654  1
  O  O411  1  0.36894341  0.36945075  0.12298496  1
  O  O412  1  0.38138002  0.36204027  0.61586525  1
  O  O413  1  0.36628806  0.87494240  0.12816145  1
  O  O414  1  0.36572375  0.87043772  0.61886668  1
  O  O415  1  0.86748446  0.37349554  0.10631247  1
  O  O416  1  0.87250279  0.37097264  0.61740465  1
  O  O417  1  0.86039351  0.86940417  0.12739023  1
  O  O418  1  0.86069052  0.86392347  0.63461270  1
  O  O419  1  0.12718297  0.13159334  0.38333714  1
  O  O420  1  0.13171186  0.13872212  0.87517441  1
  O  O421  1  0.13808896  0.62432429  0.38145577  1
  O  O422  1  0.13752876  0.62881233  0.87075083  1
  O  O423  1  0.63529795  0.12466146  0.38787801  1
  O  O424  1  0.63284134  0.13079849  0.87280781  1
  O  O425  1  0.62185674  0.63711863  0.37615638  1
  O  O426  1  0.63102268  0.63515794  0.86521078  1
