# generated using pymatgen
data_V85Zn86O256
_symmetry_space_group_name_H-M   'P 1'
_cell_length_a   16.95855391
_cell_length_b   16.95551811
_cell_length_c   16.95478998
_cell_angle_alpha   90.03460241
_cell_angle_beta   90.00355234
_cell_angle_gamma   89.98201772
_symmetry_Int_Tables_number   1
_chemical_formula_structural   V85Zn86O256
_chemical_formula_sum   'V85 Zn86 O256'
_cell_volume   4875.19727816
_cell_formula_units_Z   1
loop_
 _symmetry_equiv_pos_site_id
 _symmetry_equiv_pos_as_xyz
  1  'x, y, z'
loop_
 _atom_site_type_symbol
 _atom_site_label
 _atom_site_symmetry_multiplicity
 _atom_site_fract_x
 _atom_site_fract_y
 _atom_site_fract_z
 _atom_site_occupancy
  V  V0  1  0.11517224  0.37047247  0.74046684  1
  V  V1  1  0.49909722  0.25099030  0.75097628  1
  V  V2  1  0.49756634  0.50297070  0.50434129  1
  V  V3  1  0.37232431  0.25144718  0.62444830  1
  V  V4  1  0.12710801  0.74742739  0.87391608  1
  V  V5  1  0.36942156  0.37394371  0.50503171  1
  V  V6  1  0.62342157  0.12361655  0.00581850  1
  V  V7  1  0.25385928  0.61957704  0.86735203  1
  V  V8  1  0.87518757  0.49820543  0.87533802  1
  V  V9  1  0.62393574  -0.01018295  0.64206040  1
  V  V10  1  0.24616486  0.62635512  0.37401056  1
  V  V11  1  0.86598949  0.37265821  0.49768621  1
  V  V12  1  0.62122193  0.50549542  0.62702329  1
  V  V13  1  0.50279278  0.49910877  -0.00044753  1
  V  V14  1  0.00615192  0.88498401  0.87956626  1
  V  V15  1  0.39057185  0.85051321  -0.01215314  1
  V  V16  1  -0.02887322  -0.00501367  0.47244333  1
  V  V17  1  0.63166139  0.62793246  0.00347309  1
  V  V18  1  0.61791608  0.75275588  0.37243018  1
  V  V19  1  0.87498117  0.63357223  0.24768130  1
  V  V20  1  0.12506811  0.24647265  0.36688980  1
  V  V21  1  0.24735646  0.36683801  0.12622765  1
  V  V22  1  0.37519467  0.00563744  0.88252547  1
  V  V23  1  0.87770609  0.88004862  0.00285254  1
  V  V24  1  -0.00402571  0.25098027  0.24532873  1
  V  V25  1  0.49904603  0.62568203  0.12545179  1
  V  V26  1  0.00056628  0.62825350  0.12696715  1
  V  V27  1  0.24959805  -0.01168368  0.25781344  1
  V  V28  1  0.49903861  0.24154013  0.24446462  1
  V  V29  1  0.62446691  0.24874052  0.87531957  1
  V  V30  1  0.62590014  0.49918377  0.12784383  1
  V  V31  1  0.12234287  0.61694438  -0.00286508  1
  V  V32  1  0.62995332  0.12641211  0.50516837  1
  V  V33  1  0.50069341  0.37656166  0.87641984  1
  V  V34  1  0.88162829  0.50497274  0.37397003  1
  V  V35  1  0.37054839  0.12846169  0.75627239  1
  V  V36  1  0.25614345  0.49142143  0.74139714  1
  V  V37  1  0.24629845  0.75168520  0.49977901  1
  V  V38  1  0.24656872  0.49107816  0.24986859  1
  V  V39  1  0.11953724  0.00801495  0.62152094  1
  V  V40  1  0.75695612  0.74643957  0.00620735  1
  V  V41  1  0.88030266  0.62903932  0.75254535  1
  V  V42  1  0.24521577  0.24966883  0.50275916  1
  V  V43  1  0.49182730  0.00819331  0.00809625  1
  V  V44  1  0.75242884  0.00152264  0.25632703  1
  V  V45  1  0.37320197  0.37553004  0.00097329  1
  V  V46  1  0.25849303  0.12074910  0.37306270  1
  V  V47  1  0.24912450  0.24023687  -0.01197959  1
  V  V48  1  0.87122154  -0.00014626  0.87426543  1
  V  V49  1  0.76154414  0.12580141  0.38162735  1
  V  V50  1  0.74987468  0.49896029  0.75165466  1
  V  V51  1  0.87503841  0.12891546  0.24007803  1
  V  V52  1  0.00375774  0.50289330  0.50118521  1
  V  V53  1  0.50022008  0.12558665  0.62625048  1
  V  V54  1  0.37994848  0.62375987  0.25143501  1
  V  V55  1  0.24122557  0.87145063  0.12698669  1
  V  V56  1  0.00835840  0.37832733  0.36923345  1
  V  V57  1  0.00353032  0.75300577  0.74685016  1
  V  V58  1  0.50028289  0.37387132  0.37671581  1
  V  V59  1  0.38089368  0.74777210  0.13040923  1
  V  V60  1  0.62346971  0.87251951  0.24548810  1
  V  V61  1  0.89266875  0.12774658  0.74784231  1
  V  V62  1  0.25613841  0.87636015  0.62701179  1
  V  V63  1  0.37525638  0.49786555  0.37525560  1
  V  V64  1  0.37498033  0.87841475  0.49557773  1
  V  V65  1  0.62923168  0.24938926  0.38268861  1
  V  V66  1  0.49673793  0.00259453  0.49549747  1
  V  V67  1  0.61807185  0.62967161  0.50097793  1
  V  V68  1  0.75169243  0.49928454  0.25008909  1
  V  V69  1  0.49736889  0.87905618  0.36715672  1
  V  V70  1  0.12307333  0.49006165  0.12480239  1
  V  V71  1  -0.00983445  0.86346195  0.35856657  1
  V  V72  1  0.62457220  0.37697364  0.74921853  1
  V  V73  1  0.24761442  0.74498970  0.00091607  1
  V  V74  1  0.75484344  0.25005733  0.00498728  1
  V  V75  1  0.38628182  0.73420401  0.63256173  1
  V  V76  1  0.70082510  0.68273363  0.82988489  1
  V  V77  1  0.62569374  0.37422579  0.25277768  1
  V  V78  1  0.74822863  0.63044431  0.37661353  1
  V  V79  1  0.61955847  0.00198308  0.12669227  1
  V  V80  1  0.11561265  0.24362392  0.87012759  1
  V  V81  1  0.74566560  0.12012627  0.86496030  1
  V  V82  1  0.25367296  0.00404923  0.75452087  1
  V  V83  1  0.13337502  0.87504825  0.75122379  1
  V  V84  1  0.76222409  0.88120139  0.63236070  1
  Zn  Zn85  1  0.54711147  0.79236866  0.80437042  1
  Zn  Zn86  1  0.12530782  0.63038379  0.50538042  1
  Zn  Zn87  1  0.88255417  0.75742608  0.13051879  1
  Zn  Zn88  1  0.12728248  0.49961626  0.62320356  1
  Zn  Zn89  1  0.11933366  0.10691116  -0.00595025  1
  Zn  Zn90  1  -0.00056134  0.49248086  -0.00291830  1
  Zn  Zn91  1  0.37527612  0.50019004  0.87146049  1
  Zn  Zn92  1  0.11895299  -0.00046198  0.12297340  1
  Zn  Zn93  1  0.37874928  0.24194625  0.12232970  1
  Zn  Zn94  1  0.12770123  0.77102029  0.34546606  1
  Zn  Zn95  1  0.75839909  0.77069436  0.49455692  1
  Zn  Zn96  1  0.00154889  0.12153001  0.11411775  1
  Zn  Zn97  1  0.87489150  0.24267506  0.62810437  1
  Zn  Zn98  1  0.88172966  0.75749512  0.61644996  1
  Zn  Zn99  1  -0.00347126  0.37186001  0.87172740  1
  Zn  Zn100  1  0.75172657  0.87721151  0.12570424  1
  Zn  Zn101  1  0.00391218  0.62573215  0.62477350  1
  Zn  Zn102  1  0.38029029  0.11107198  0.24389775  1
  Zn  Zn103  1  0.11944326  0.12259921  0.49897787  1
  Zn  Zn104  1  0.88121737  0.36848931  0.00402115  1
  Zn  Zn105  1  0.74730617  0.36685249  0.61878056  1
  Zn  Zn106  1  0.75761805  0.36519777  0.13228532  1
  Zn  Zn107  1  0.18658410  0.17833997  0.18806742  1
  Zn  Zn108  1  0.18745557  0.18877282  0.68674687  1
  Zn  Zn109  1  0.19069279  0.68144970  0.18462048  1
  Zn  Zn110  1  0.19261431  0.68523512  0.68506146  1
  Zn  Zn111  1  0.68642274  0.18575142  0.19040335  1
  Zn  Zn112  1  0.69250111  0.19129598  0.68280142  1
  Zn  Zn113  1  0.68833749  0.69148097  0.18692107  1
  Zn  Zn114  1  0.69107508  0.69099130  0.66382998  1
  Zn  Zn115  1  0.31325964  0.30933750  0.31522280  1
  Zn  Zn116  1  0.31027126  0.31751408  0.81245026  1
  Zn  Zn117  1  0.31553397  0.81123221  0.31271423  1
  Zn  Zn118  1  0.36301517  0.82954589  0.79541972  1
  Zn  Zn119  1  0.81587328  0.31097695  0.31967643  1
  Zn  Zn120  1  0.81186991  0.30965878  0.81116067  1
  Zn  Zn121  1  0.81182122  0.81746994  0.31738868  1
  Zn  Zn122  1  0.81755604  0.82297974  0.80471485  1
  Zn  Zn123  1  0.18633271  0.43537611  0.43690298  1
  Zn  Zn124  1  0.18492511  0.43078199  0.93172687  1
  Zn  Zn125  1  0.18063639  0.93496392  0.43329648  1
  Zn  Zn126  1  0.19793166  0.93490284  0.93954397  1
  Zn  Zn127  1  0.68612284  0.44510637  0.43562438  1
  Zn  Zn128  1  0.69063723  0.43836576  0.93553714  1
  Zn  Zn129  1  0.68654466  0.94262117  0.44242688  1
  Zn  Zn130  1  0.68614091  0.92931175  0.92274128  1
  Zn  Zn131  1  0.30667886  0.06396672  0.07316763  1
  Zn  Zn132  1  0.31123180  0.06446506  0.56334476  1
  Zn  Zn133  1  0.31087763  0.55910553  0.06160698  1
  Zn  Zn134  1  0.31103024  0.56383146  0.56380557  1
  Zn  Zn135  1  0.80903996  0.06018450  0.06164201  1
  Zn  Zn136  1  0.80762038  0.05912424  0.56860194  1
  Zn  Zn137  1  0.81498567  0.55800954  0.06506042  1
  Zn  Zn138  1  0.81572452  0.57673068  0.55877189  1
  Zn  Zn139  1  0.43700521  0.43271707  0.18676348  1
  Zn  Zn140  1  0.43791783  0.43869491  0.68563255  1
  Zn  Zn141  1  0.43320752  0.93590174  0.18220384  1
  Zn  Zn142  1  0.44445918  0.93612608  0.68662514  1
  Zn  Zn143  1  0.93706094  0.43636952  0.18495599  1
  Zn  Zn144  1  0.93559092  0.43771683  0.68309312  1
  Zn  Zn145  1  0.93680099  0.94145362  0.19203938  1
  Zn  Zn146  1  0.94055262  0.94292567  0.69345904  1
  Zn  Zn147  1  0.06267123  0.05830993  0.30579056  1
  Zn  Zn148  1  0.06705205  0.06178147  0.81424449  1
  Zn  Zn149  1  0.07527582  0.59120207  0.30125647  1
  Zn  Zn150  1  0.06369298  0.55743434  0.80875364  1
  Zn  Zn151  1  0.56717177  0.06262758  0.31700248  1
  Zn  Zn152  1  0.55428586  0.06145148  0.81968565  1
  Zn  Zn153  1  0.56118465  0.56300262  0.31451872  1
  Zn  Zn154  1  0.55518101  0.57307159  0.81041102  1
  Zn  Zn155  1  0.43832177  0.18755368  0.43488704  1
  Zn  Zn156  1  0.43668680  0.18741165  0.94013031  1
  Zn  Zn157  1  0.43514154  0.69181776  0.43992094  1
  Zn  Zn158  1  0.45221645  0.67504570  0.91196838  1
  Zn  Zn159  1  0.94781111  0.19484130  0.46194785  1
  Zn  Zn160  1  0.93565635  0.18345749  0.93491479  1
  Zn  Zn161  1  0.93845183  0.69290616  0.43840345  1
  Zn  Zn162  1  0.93811275  0.68779821  0.93464951  1
  Zn  Zn163  1  0.06017400  0.30465972  0.05660740  1
  Zn  Zn164  1  0.05340296  0.30851666  0.56003860  1
  Zn  Zn165  1  0.06127016  0.81183354  0.06145654  1
  Zn  Zn166  1  0.06399369  0.82359256  0.55937775  1
  Zn  Zn167  1  0.56869500  0.31337041  0.06464769  1
  Zn  Zn168  1  0.56199432  0.31491675  0.56409050  1
  Zn  Zn169  1  0.56462215  0.82100566  -0.02423527  1
  Zn  Zn170  1  0.56044935  0.81451048  0.56200154  1
  O  O171  1  0.12479849  0.12247457  0.11563170  1
  O  O172  1  0.12914629  0.11211783  0.62421297  1
  O  O173  1  0.12126283  0.61028751  0.11465135  1
  O  O174  1  0.12316938  0.62108955  0.62115743  1
  O  O175  1  0.62931541  0.11853523  0.11357180  1
  O  O176  1  0.61917921  0.11855562  0.62094806  1
  O  O177  1  0.61919771  0.62015838  0.12172402  1
  O  O178  1  0.62163943  0.61970993  0.61393954  1
  O  O179  1  0.38085569  0.37794305  0.38530884  1
  O  O180  1  0.38138205  0.37631443  0.88659156  1
  O  O181  1  0.38341693  0.86899736  0.38672104  1
  O  O182  1  0.35666256  0.89060319  0.89286750  1
  O  O183  1  0.87893875  0.39311534  0.37731872  1
  O  O184  1  0.87477762  0.38349557  0.87465968  1
  O  O185  1  0.88940404  0.86554001  0.38350995  1
  O  O186  1  0.88471324  0.88297284  0.87883071  1
  O  O187  1  0.24902935  0.00394950  0.36660724  1
  O  O188  1  0.25777620  0.00096902  0.86140965  1
  O  O189  1  0.25811003  0.49978307  0.36704491  1
  O  O190  1  0.24881353  0.50318391  0.86458073  1
  O  O191  1  0.73796214  0.01374975  0.36730777  1
  O  O192  1  0.75804970  0.00768674  0.88128924  1
  O  O193  1  0.75567850  0.50894527  0.36466957  1
  O  O194  1  0.75568691  0.49729551  0.85985600  1
  O  O195  1  0.24596288  0.48716519  0.13024777  1
  O  O196  1  0.24938290  0.50063764  0.63762111  1
  O  O197  1  0.25007422  0.98364614  0.13489651  1
  O  O198  1  0.25015050  0.99457737  0.63655721  1
  O  O199  1  0.74289715  0.50461600  0.13996747  1
  O  O200  1  0.73862396  0.50572260  0.63761479  1
  O  O201  1  0.73672016  0.99857453  0.13243377  1
  O  O202  1  0.73150675  0.99377222  0.62757051  1
  O  O203  1  -0.00808047  0.36904368  0.26290746  1
  O  O204  1  0.01150997  0.37610710  0.74885206  1
  O  O205  1  -0.01344254  0.86130299  0.25857137  1
  O  O206  1  0.00990736  0.87047311  0.75890911  1
  O  O207  1  0.50737737  0.36934549  0.25780582  1
  O  O208  1  0.50460604  0.37036657  0.75549703  1
  O  O209  1  0.50505683  0.88214906  0.26066107  1
  O  O210  1  0.46914018  0.86230188  0.76315270  1
  O  O211  1  0.50058012  0.13897241  0.25966220  1
  O  O212  1  0.48935371  0.13211767  0.74803336  1
  O  O213  1  0.48695814  0.61648753  0.24448336  1
  O  O214  1  0.51358850  0.67594107  0.81626637  1
  O  O215  1  0.98664549  0.13557377  0.26060319  1
  O  O216  1  0.99150730  0.12293832  0.75160647  1
  O  O217  1  0.98376193  0.61295147  0.23816175  1
  O  O218  1  0.99755973  0.63585390  0.74958517  1
  O  O219  1  0.36440459  0.25720230  -0.00055148  1
  O  O220  1  0.37001535  0.25675030  0.50288810  1
  O  O221  1  0.35580296  0.73979454  0.01427911  1
  O  O222  1  0.36591795  0.75971858  0.50601736  1
  O  O223  1  0.85663028  0.24912772  -0.00845369  1
  O  O224  1  0.86029326  0.27723449  0.46977572  1
  O  O225  1  0.87086445  0.75513839  0.00275225  1
  O  O226  1  0.85889298  0.71791102  0.51087420  1
  O  O227  1  0.13293304  0.24749009  0.48979766  1
  O  O228  1  0.13861478  0.25689166  0.98276388  1
  O  O229  1  0.14059946  0.75425903  0.50349498  1
  O  O230  1  0.13152705  0.73918925  0.99662485  1
  O  O231  1  0.61705394  0.24025810  0.49422045  1
  O  O232  1  0.62776703  0.24091902  0.99422439  1
  O  O233  1  0.62515064  0.74359400  0.49397495  1
  O  O234  1  0.63603459  0.73443000  1.00638673  1
  O  O235  1  0.50434030  0.25522639  0.14196411  1
  O  O236  1  0.49410550  0.24519887  0.63168984  1
  O  O237  1  0.48307593  0.73844858  0.12057329  1
  O  O238  1  0.48486701  0.75615359  0.62386898  1
  O  O239  1  1.00716068  0.25127817  0.14362029  1
  O  O240  1  0.97264138  0.23417272  0.57100604  1
  O  O241  1  1.00128991  0.73240419  0.12036609  1
  O  O242  1  1.00226802  0.75606682  0.63570329  1
  O  O243  1  0.00880255  0.25933926  0.37310339  1
  O  O244  1  0.01387111  0.25038682  0.87102313  1
  O  O245  1  0.00882438  0.76114343  0.38400884  1
  O  O246  1  0.00758726  0.75797533  0.86467991  1
  O  O247  1  0.50982154  0.25580537  0.36920987  1
  O  O248  1  0.50474431  0.25637799  0.87142269  1
  O  O249  1  0.51013466  0.76154438  0.38014938  1
  O  O250  1  0.46223165  0.78663708  0.93184897  1
  O  O251  1  0.25055156  0.13286956  0.49172438  1
  O  O252  1  0.25010587  0.14033533  1.00017496  1
  O  O253  1  0.25524490  0.63608341  0.49185665  1
  O  O254  1  0.23730982  0.62471463  0.99707749  1
  O  O255  1  0.73704048  0.11914193  0.49701090  1
  O  O256  1  0.74237706  0.13313612  0.99296161  1
  O  O257  1  0.73036633  0.61569242  0.48925187  1
  O  O258  1  0.74764216  0.63637908  1.00832896  1
  O  O259  1  0.25796987  0.36985603  0.00525735  1
  O  O260  1  0.25984938  0.36414027  0.49295809  1
  O  O261  1  0.26048326  0.85866029  0.00806941  1
  O  O262  1  0.25816275  0.87235552  0.50313781  1
  O  O263  1  0.74323076  0.35634918  -0.00191689  1
  O  O264  1  0.76312427  0.39386805  0.50123068  1
  O  O265  1  0.76177298  0.86324546  -0.00163887  1
  O  O266  1  0.73929362  0.88179985  0.52079217  1
  O  O267  1  0.14022662  0.50486737  0.24048230  1
  O  O268  1  0.13133427  0.48394698  0.74553563  1
  O  O269  1  0.14602850  1.00377142  0.24657053  1
  O  O270  1  0.13610112  0.99557935  0.74389123  1
  O  O271  1  0.63184523  0.49475751  0.24994346  1
  O  O272  1  0.62709170  0.50258469  0.74547533  1
  O  O273  1  0.63127876  0.99794435  0.24464979  1
  O  O274  1  0.61253290  1.00377312  0.73967079  1
  O  O275  1  0.35872390  -0.00464749  0.24719444  1
  O  O276  1  0.37218228  0.01034808  0.75826737  1
  O  O277  1  0.36818580  0.50153805  0.25434777  1
  O  O278  1  0.36131272  0.49298696  0.75195627  1
  O  O279  1  0.85764442  0.00934236  0.25110525  1
  O  O280  1  0.87935806  0.00893805  0.76645114  1
  O  O281  1  0.86630575  0.50723188  0.25617858  1
  O  O282  1  0.86703738  0.50559113  0.75451495  1
  O  O283  1  0.11598263  0.36647625  0.37630298  1
  O  O284  1  0.12257201  0.36398002  0.86108731  1
  O  O285  1  0.10585601  0.87705756  0.37309429  1
  O  O286  1  0.12291262  0.86869684  0.87037071  1
  O  O287  1  0.62100284  0.36898591  0.37354406  1
  O  O288  1  0.61924692  0.37079222  0.86870431  1
  O  O289  1  0.61726007  0.87193414  0.36786268  1
  O  O290  1  0.61735102  0.85410295  0.88201530  1
  O  O291  1  0.37420651  0.13063322  0.13142768  1
  O  O292  1  0.38232919  0.13170169  0.63222498  1
  O  O293  1  0.37662311  0.62559494  0.13333405  1
  O  O294  1  0.38243620  0.63521061  0.61451226  1
  O  O295  1  0.87173794  0.12410291  0.13773642  1
  O  O296  1  0.86806300  0.11446065  0.64797907  1
  O  O297  1  0.88387840  0.62393521  0.13136791  1
  O  O298  1  0.87925886  0.62295032  0.64320372  1
  O  O299  1  0.24573195  0.25984677  0.11509383  1
  O  O300  1  0.25618595  0.24492692  0.61048107  1
  O  O301  1  0.25393690  0.75040278  0.12121451  1
  O  O302  1  0.25791550  0.75881154  0.61684434  1
  O  O303  1  0.74196929  0.24788539  0.10950176  1
  O  O304  1  0.76024828  0.25378818  0.62289942  1
  O  O305  1  0.75542491  0.75627485  0.11788401  1
  O  O306  1  0.75560245  0.77036991  0.62097697  1
  O  O307  1  0.24401186  0.24280371  0.38048423  1
  O  O308  1  0.24685242  0.25363858  0.88514492  1
  O  O309  1  0.24696706  0.74199661  0.37959904  1
  O  O310  1  0.24147377  0.73623522  0.88591262  1
  O  O311  1  0.73394028  0.24336257  0.36972937  1
  O  O312  1  0.74060972  0.24130898  0.88182479  1
  O  O313  1  0.73632047  0.74825591  0.37841538  1
  O  O314  1  0.76333709  0.74611355  0.88086827  1
  O  O315  1  0.00993662  0.14285556  0.00253496  1
  O  O316  1  0.00593610  0.09462331  0.48475100  1
  O  O317  1  0.01051733  0.62026471  0.00262155  1
  O  O318  1  0.00428539  0.61304783  0.49812105  1
  O  O319  1  0.50827891  0.11780532  -0.00067843  1
  O  O320  1  0.50509786  0.11967514  0.50437880  1
  O  O321  1  0.51207061  0.61688389  0.00284526  1
  O  O322  1  0.50995144  0.61764145  0.48942308  1
  O  O323  1  0.49320567  0.38241393  0.49508385  1
  O  O324  1  0.49507177  0.37894689  0.99813421  1
  O  O325  1  0.49430661  0.88373670  0.49139411  1
  O  O326  1  0.48818771  0.89814079  1.02064154  1
  O  O327  1  0.98816018  0.38740904  0.48628674  1
  O  O328  1  0.99778691  0.37479299  0.99251450  1
  O  O329  1  1.00240294  0.89892098  0.49938047  1
  O  O330  1  0.98871830  0.86593424  0.99018457  1
  O  O331  1  0.49390515  0.49309648  0.38158446  1
  O  O332  1  0.49914623  0.49417676  0.88084935  1
  O  O333  1  0.50414826  0.99272992  0.38449572  1
  O  O334  1  0.48346584  1.00279959  0.88956082  1
  O  O335  1  0.99520116  0.49707876  0.37652154  1
  O  O336  1  0.98940592  0.49682321  0.87318935  1
  O  O337  1  0.99168584  0.98594880  0.36884492  1
  O  O338  1  0.99718620  0.98884561  0.87373811  1
  O  O339  1  0.00629433  0.01131066  0.14563031  1
  O  O340  1  0.02015539  -0.00523822  0.62793003  1
  O  O341  1  0.00995788  0.50662382  0.12168489  1
  O  O342  1  0.00151434  0.50130854  0.61369899  1
  O  O343  1  0.51169024  0.00440984  0.12609398  1
  O  O344  1  0.50706262  0.00612631  0.61952324  1
  O  O345  1  0.50615294  0.50363300  0.11948425  1
  O  O346  1  0.51211538  0.49896912  0.62172617  1
  O  O347  1  0.25771676  0.37959794  0.23993716  1
  O  O348  1  0.24122327  0.38657783  0.75078676  1
  O  O349  1  0.25182938  0.87896571  0.24477980  1
  O  O350  1  0.25611355  0.88348306  0.74224831  1
  O  O351  1  0.74429782  0.38247911  0.25430876  1
  O  O352  1  0.74245808  0.38390966  0.74644725  1
  O  O353  1  0.74135687  0.88493690  0.25293121  1
  O  O354  1  0.74917356  0.87955959  0.73372671  1
  O  O355  1  0.25531254  0.11506157  0.25866212  1
  O  O356  1  0.26351210  0.11961148  0.74351560  1
  O  O357  1  0.26392403  0.61135108  0.25657249  1
  O  O358  1  0.24063715  0.60681998  0.75863669  1
  O  O359  1  0.75521246  0.12219712  0.25957658  1
  O  O360  1  0.74380783  0.12543129  0.76431888  1
  O  O361  1  0.75367254  0.61881456  0.25604240  1
  O  O362  1  0.75547411  0.62562138  0.75553977  1
  O  O363  1  0.36231969  0.13000487  0.37086374  1
  O  O364  1  0.37588297  0.12033482  0.86725929  1
  O  O365  1  0.36820860  0.61990092  0.37032483  1
  O  O366  1  0.35612461  0.61735351  0.88562594  1
  O  O367  1  0.86149955  0.13537975  0.37745205  1
  O  O368  1  0.86638193  0.11856122  0.86690692  1
  O  O369  1  0.87161862  0.61845678  0.36609929  1
  O  O370  1  0.88049118  0.61740268  0.86106498  1
  O  O371  1  0.13178561  0.38365052  0.11926551  1
  O  O372  1  0.11961558  0.36605476  0.63676242  1
  O  O373  1  0.13871406  0.86625813  0.12402949  1
  O  O374  1  0.14103727  0.88256622  0.63163756  1
  O  O375  1  0.63175262  0.38229179  0.13464799  1
  O  O376  1  0.62640214  0.38556550  0.63141184  1
  O  O377  1  0.62521421  0.88326282  0.14052840  1
  O  O378  1  0.61973434  0.88776692  0.62969314  1
  O  O379  1  0.11954040  0.24496493  0.26220064  1
  O  O380  1  0.13553072  0.26012051  0.75967296  1
  O  O381  1  0.11940749  0.69615847  0.26558502  1
  O  O382  1  0.12389410  0.75656670  0.75390624  1
  O  O383  1  0.61617594  0.25391376  0.25796359  1
  O  O384  1  0.61825299  0.25512732  0.75582953  1
  O  O385  1  0.62733598  0.76096267  0.25845749  1
  O  O386  1  0.64941089  0.73893126  0.76196182  1
  O  O387  1  0.39370188  0.25488993  0.25176449  1
  O  O388  1  0.37712254  0.24689084  0.74633841  1
  O  O389  1  0.36899034  0.73626642  0.24289116  1
  O  O390  1  0.35980152  0.73715714  0.73060086  1
  O  O391  1  0.88280216  0.24225305  0.25583482  1
  O  O392  1  0.87505636  0.23256578  0.75240196  1
  O  O393  1  0.86412725  0.73667898  0.24874201  1
  O  O394  1  0.88708177  0.74562513  0.74837042  1
  O  O395  1  0.37719860  0.49245254  0.49656665  1
  O  O396  1  0.38165674  0.48972100  1.00092503  1
  O  O397  1  0.38731399  0.99377181  0.50654114  1
  O  O398  1  0.37740866  1.00458852  0.99683882  1
  O  O399  1  0.88152832  0.50135337  0.49011829  1
  O  O400  1  0.87145940  0.50356297  0.98263565  1
  O  O401  1  0.87434339  1.00338956  0.49381051  1
  O  O402  1  0.87155094  0.99090122  0.99069854  1
  O  O403  1  0.13480198  -0.00559536  0.00632006  1
  O  O404  1  0.13924539  0.00096119  0.51902723  1
  O  O405  1  0.12620199  0.50268579  0.00538981  1
  O  O406  1  0.11555044  0.49320252  0.50487650  1
  O  O407  1  0.61697917  0.00551804  0.00754098  1
  O  O408  1  0.61177789  0.00955819  0.50920527  1
  O  O409  1  0.62667142  0.50847144  0.00723352  1
  O  O410  1  0.61651154  0.50566194  0.50773261  1
  O  O411  1  0.36886303  0.36777900  0.11489391  1
  O  O412  1  0.38024174  0.36873920  0.61226012  1
  O  O413  1  0.36825224  0.86071457  0.11584561  1
  O  O414  1  0.36659697  0.87386381  0.61374264  1
  O  O415  1  0.86521696  0.39052087  0.11470245  1
  O  O416  1  0.87495355  0.37567909  0.60631166  1
  O  O417  1  0.87377247  0.87613710  0.11604271  1
  O  O418  1  0.86668527  0.88149317  0.62876664  1
  O  O419  1  0.13654743  0.13053394  0.37626218  1
  O  O420  1  0.12910921  0.13946800  0.87191274  1
  O  O421  1  0.14596026  0.60519517  0.39109153  1
  O  O422  1  0.13016018  0.62528238  0.88081447  1
  O  O423  1  0.62988550  0.13307569  0.38674684  1
  O  O424  1  0.62842948  0.12586417  0.88572995  1
  O  O425  1  0.62583302  0.63588939  0.37696504  1
  O  O426  1  0.64546482  0.61659218  0.88697709  1
