# generated using pymatgen
data_V85Zn86O256
_symmetry_space_group_name_H-M   'P 1'
_cell_length_a   16.92122344
_cell_length_b   16.93632966
_cell_length_c   16.93546176
_cell_angle_alpha   89.99428040
_cell_angle_beta   89.99799276
_cell_angle_gamma   89.97256561
_symmetry_Int_Tables_number   1
_chemical_formula_structural   V85Zn86O256
_chemical_formula_sum   'V85 Zn86 O256'
_cell_volume   4853.42194101
_cell_formula_units_Z   1
loop_
 _symmetry_equiv_pos_site_id
 _symmetry_equiv_pos_as_xyz
  1  'x, y, z'
loop_
 _atom_site_type_symbol
 _atom_site_label
 _atom_site_symmetry_multiplicity
 _atom_site_fract_x
 _atom_site_fract_y
 _atom_site_fract_z
 _atom_site_occupancy
  V  V0  1  0.62644459  0.37414492  0.25194439  1
  V  V1  1  0.74769467  0.62291246  0.37577481  1
  V  V2  1  0.62045131  0.87308518  0.25096445  1
  V  V3  1  0.75121603  0.87322969  0.62616541  1
  V  V4  1  -0.05674843  0.18103646  0.08420347  1
  V  V5  1  0.37600304  0.25916507  0.61773849  1
  V  V6  1  0.37499472  0.87500187  -0.00087351  1
  V  V7  1  0.00450079  0.88198318  0.86608846  1
  V  V8  1  0.25017851  0.12899325  0.37282035  1
  V  V9  1  0.50053310  0.36776270  0.88270266  1
  V  V10  1  0.61981014  0.87551448  0.75657874  1
  V  V11  1  0.75492360  0.74627607  0.50458713  1
  V  V12  1  0.63705676  0.23987818  0.87645098  1
  V  V13  1  0.87422092  0.87683314  0.00263406  1
  V  V14  1  0.93333755  0.69250907  0.08106520  1
  V  V15  1  0.25000289  0.62637867  0.87003425  1
  V  V16  1  0.88018887  0.37181289  0.50624997  1
  V  V17  1  0.13206490  0.13987235  0.00425501  1
  V  V18  1  0.11255502  0.51158417  0.12421441  1
  V  V19  1  0.35402965  0.36773415  0.00221387  1
  V  V20  1  0.86981106  0.00543939  0.87549819  1
  V  V21  1  0.24979628  0.50162489  0.74811210  1
  V  V22  1  0.88336932  0.49723571  0.88570352  1
  V  V23  1  0.62888912  0.12518212  0.00744529  1
  V  V24  1  0.74844941  0.62707591  0.87491279  1
  V  V25  1  0.49295192  0.74608884  0.25621084  1
  V  V26  1  0.62145608  0.62980119  0.00371367  1
  V  V27  1  0.62281778  0.61989520  0.50009095  1
  V  V28  1  0.12860068  0.74845005  0.37540296  1
  V  V29  1  0.56735584  0.70596815  0.81790305  1
  V  V30  1  0.12423190  0.75429578  0.86599336  1
  V  V31  1  0.13317393  0.37535185  0.24434596  1
  V  V32  1  0.12332073  -0.00635769  0.62767909  1
  V  V33  1  0.37720404  -0.00265097  0.39016342  1
  V  V34  1  0.24524307  0.74573637  -0.00011390  1
  V  V35  1  0.00606860  0.37568757  0.37433036  1
  V  V36  1  -0.00038406  0.13347802  0.62433028  1
  V  V37  1  0.26239221  0.87609107  0.61995804  1
  V  V38  1  0.25347837  0.26024506  0.49201968  1
  V  V39  1  0.87587655  0.12846954  0.25275284  1
  V  V40  1  -0.00169373  0.63178968  0.62206997  1
  V  V41  1  0.49679554  0.00650848  0.00939773  1
  V  V42  1  0.25162889  -0.00140202  0.25118103  1
  V  V43  1  0.63161970  0.24983864  0.37685901  1
  V  V44  1  0.75737507  0.49636344  0.74983814  1
  V  V45  1  0.75748535  0.24531868  0.50390640  1
  V  V46  1  0.24384537  0.13776408  0.87388132  1
  V  V47  1  0.87240936  0.00346385  0.37719503  1
  V  V48  1  0.12617333  0.36800654  0.74822018  1
  V  V49  1  0.87635474  0.87172975  0.50635548  1
  V  V50  1  0.62833586  0.36969855  0.75199748  1
  V  V51  1  0.61958195  -0.00230001  0.62008088  1
  V  V52  1  0.37331392  0.50152654  0.87431770  1
  V  V53  1  0.49367016  0.62106836  0.13245598  1
  V  V54  1  0.00261066  0.00352543  0.00592822  1
  V  V55  1  0.00546093  0.37380453  0.88471430  1
  V  V56  1  0.87216630  0.13325477  0.74502314  1
  V  V57  1  0.48652561  0.49445761  0.49741959  1
  V  V58  1  0.49741542  0.12376357  0.61627928  1
  V  V59  1  0.24749631  0.87496915  0.12567867  1
  V  V60  1  0.12677551  0.12991548  0.49710927  1
  V  V61  1  0.74789428  0.75038819  0.00192451  1
  V  V62  1  0.62951037  0.12085942  0.49504837  1
  V  V63  1  0.62475609  0.49481448  0.12684827  1
  V  V64  1  0.37544776  0.00262234  0.87410125  1
  V  V65  1  0.49729684  0.87685099  0.38942012  1
  V  V66  1  0.37146683  0.74331578  0.12816661  1
  V  V67  1  0.75102833  0.86865971  0.12883544  1
  V  V68  1  0.13007127  0.62577888  0.50026991  1
  V  V69  1  0.00548449  0.24653447  0.25528610  1
  V  V70  1  0.87778533  0.62632581  0.25122224  1
  V  V71  1  -0.00558058  0.75252953  0.24856015  1
  V  V72  1  0.76436469  0.36551185  0.11906707  1
  V  V73  1  0.39043873  0.74167152  0.63396342  1
  V  V74  1  0.74840087  0.00349447  0.25389738  1
  V  V75  1  0.50259246  0.23733019  0.24300631  1
  V  V76  1  0.62652841  0.49222441  0.62202722  1
  V  V77  1  0.87523586  0.63535866  0.74351341  1
  V  V78  1  0.48154738  0.37277233  0.37534462  1
  V  V79  1  0.74727645  0.00575481  0.75308260  1
  V  V80  1  0.00100327  0.87675207  0.37720497  1
  V  V81  1  0.75087334  0.49758554  0.24998054  1
  V  V82  1  0.24373421  -0.00306768  0.75288697  1
  V  V83  1  0.50067782  0.24749112  0.74900817  1
  V  V84  1  0.25992915  0.51454610  0.24835031  1
  Zn  Zn85  1  -0.00073071  0.76071134  0.74115697  1
  Zn  Zn86  1  0.00193096  0.50112552  0.49878690  1
  Zn  Zn87  1  0.36290284  0.24093567  0.11278715  1
  Zn  Zn88  1  0.62354381  0.74960049  0.37802114  1
  Zn  Zn89  1  0.49541361  0.49536107  0.00488752  1
  Zn  Zn90  1  0.26918717  0.62700694  0.37748161  1
  Zn  Zn91  1  0.12329862  0.87603809  0.24916620  1
  Zn  Zn92  1  0.61693135  0.00392088  0.13158268  1
  Zn  Zn93  1  0.50268674  0.61990391  0.64344484  1
  Zn  Zn94  1  0.38288641  0.11677718  0.23827001  1
  Zn  Zn95  1  0.87686277  0.49745428  0.37629891  1
  Zn  Zn96  1  0.12401299  0.00705829  0.12706200  1
  Zn  Zn97  1  0.10613555  0.62408059  -0.00017848  1
  Zn  Zn98  1  -0.00145280  0.25674695  0.74532761  1
  Zn  Zn99  1  0.26007744  0.75558236  0.49868643  1
  Zn  Zn100  1  0.12690436  0.50205577  0.62354843  1
  Zn  Zn101  1  0.50285691  0.87324229  0.87742110  1
  Zn  Zn102  1  0.25290985  0.38129765  0.61724052  1
  Zn  Zn103  1  0.37244736  0.12644765  0.74753287  1
  Zn  Zn104  1  0.00038792  0.00312912  0.50120502  1
  Zn  Zn105  1  0.76216004  0.36781852  0.62827848  1
  Zn  Zn106  1  0.76663430  0.24372182  0.00128444  1
  Zn  Zn107  1  0.19217019  0.18955616  0.18330013  1
  Zn  Zn108  1  0.19012453  0.18763341  0.68293032  1
  Zn  Zn109  1  0.18136043  0.68556777  0.18836273  1
  Zn  Zn110  1  0.18908752  0.69058027  0.68672337  1
  Zn  Zn111  1  0.68977417  0.18649835  0.18755084  1
  Zn  Zn112  1  0.68705054  0.18570474  0.68268910  1
  Zn  Zn113  1  0.68354981  0.68691994  0.19026852  1
  Zn  Zn114  1  0.69244407  0.68252366  0.68091080  1
  Zn  Zn115  1  0.30239308  0.29859940  0.28248015  1
  Zn  Zn116  1  0.31578329  0.31546501  0.80775170  1
  Zn  Zn117  1  0.31452727  0.81436397  0.31502568  1
  Zn  Zn118  1  0.31125032  0.81762834  0.80975334  1
  Zn  Zn119  1  0.81492525  0.31145061  0.31642592  1
  Zn  Zn120  1  0.81687482  0.31472267  0.81767054  1
  Zn  Zn121  1  0.81243044  0.81211991  0.31731419  1
  Zn  Zn122  1  0.80830751  0.81711025  0.81580511  1
  Zn  Zn123  1  0.18941884  0.44296193  0.42706785  1
  Zn  Zn124  1  0.18050637  0.44182214  0.93927499  1
  Zn  Zn125  1  0.18706759  0.94031414  0.44027613  1
  Zn  Zn126  1  0.18555558  0.94203726  0.93843802  1
  Zn  Zn127  1  0.69023701  0.43322887  0.43746328  1
  Zn  Zn128  1  0.69027338  0.43504170  0.94150256  1
  Zn  Zn129  1  0.68723422  0.93512781  0.43665255  1
  Zn  Zn130  1  0.68456031  0.93983861  0.93747319  1
  Zn  Zn131  1  0.31014843  0.06532393  0.06287687  1
  Zn  Zn132  1  0.30980421  0.06755075  0.56377220  1
  Zn  Zn133  1  0.30637982  0.55620311  0.06316805  1
  Zn  Zn134  1  0.31397393  0.57248790  0.56633893  1
  Zn  Zn135  1  0.80266143  0.05485110  0.06440476  1
  Zn  Zn136  1  0.81079314  0.06153408  0.56413264  1
  Zn  Zn137  1  0.80580779  0.55611308  0.06183098  1
  Zn  Zn138  1  0.81654901  0.55656844  0.56323454  1
  Zn  Zn139  1  0.43740028  0.42684136  0.18503537  1
  Zn  Zn140  1  0.43835885  0.43697375  0.69075427  1
  Zn  Zn141  1  0.43323893  0.93386311  0.19007411  1
  Zn  Zn142  1  0.43843510  0.93979787  0.69032129  1
  Zn  Zn143  1  0.93967258  0.43836207  0.18995683  1
  Zn  Zn144  1  0.94428818  0.44354620  0.68545626  1
  Zn  Zn145  1  0.93452673  0.93748819  0.18822273  1
  Zn  Zn146  1  0.93608007  0.94574173  0.68547610  1
  Zn  Zn147  1  0.06449856  0.06334390  0.31196392  1
  Zn  Zn148  1  0.06311101  0.06816847  0.81320137  1
  Zn  Zn149  1  0.06317551  0.56238437  0.31243477  1
  Zn  Zn150  1  0.06368942  0.56401415  0.80932689  1
  Zn  Zn151  1  0.56315769  0.05911358  0.31963165  1
  Zn  Zn152  1  0.55943642  0.06402920  0.81403775  1
  Zn  Zn153  1  0.43629906  0.55967348  0.31503150  1
  Zn  Zn154  1  0.56756051  0.54075552  0.81838128  1
  Zn  Zn155  1  0.43726307  0.18661183  0.43298692  1
  Zn  Zn156  1  0.43781750  0.18535711  0.93935162  1
  Zn  Zn157  1  0.43887034  0.69405432  0.45048969  1
  Zn  Zn158  1  0.43035558  0.68122575  0.94606951  1
  Zn  Zn159  1  0.94041264  0.18856730  0.43501558  1
  Zn  Zn160  1  0.94531430  0.18629388  0.91927343  1
  Zn  Zn161  1  0.93841943  0.68787626  0.43701369  1
  Zn  Zn162  1  0.93126998  0.69376845  0.91568540  1
  Zn  Zn163  1  0.06905010  0.32146801  0.06580418  1
  Zn  Zn164  1  0.06975132  0.31335182  0.56204916  1
  Zn  Zn165  1  0.06759677  0.82111900  0.05373158  1
  Zn  Zn166  1  0.06619815  0.81252016  0.56256944  1
  Zn  Zn167  1  0.56548219  0.30849883  0.06386122  1
  Zn  Zn168  1  0.56228019  0.31194312  0.55745046  1
  Zn  Zn169  1  0.55893235  0.81233737  0.06503363  1
  Zn  Zn170  1  0.56554310  0.80780140  0.56675383  1
  O  O171  1  0.13228809  0.12396792  0.11145278  1
  O  O172  1  0.12027935  0.11710920  0.61846712  1
  O  O173  1  0.11806832  0.61789031  0.12194297  1
  O  O174  1  0.12104150  0.62684073  0.61621770  1
  O  O175  1  0.62532465  0.12306151  0.11249680  1
  O  O176  1  0.61887834  0.11726224  0.61523549  1
  O  O177  1  0.61814891  0.61661202  0.12107852  1
  O  O178  1  0.62610378  0.60946335  0.61828446  1
  O  O179  1  0.38496188  0.36294449  0.36612800  1
  O  O180  1  0.38168204  0.37756323  0.88438401  1
  O  O181  1  0.38220942  0.88667446  0.37649065  1
  O  O182  1  0.37395619  0.88676965  0.88060111  1
  O  O183  1  0.88771919  0.37384353  0.38290973  1
  O  O184  1  0.88789380  0.38937082  0.87021218  1
  O  O185  1  0.88126486  0.88304045  0.38360711  1
  O  O186  1  0.88020162  0.88714869  0.88121346  1
  O  O187  1  0.25956549  0.00236785  0.37073147  1
  O  O188  1  0.25466270  0.00531226  0.86838536  1
  O  O189  1  0.24494686  0.51214760  0.35589869  1
  O  O190  1  0.25371165  0.50854196  0.87136868  1
  O  O191  1  0.75849223  -0.00856837  0.36277018  1
  O  O192  1  0.75773244  -0.00401067  0.86569206  1
  O  O193  1  0.75165563  0.50633227  0.36789551  1
  O  O194  1  0.75751199  0.50318780  0.86829618  1
  O  O195  1  0.23797563  0.50675497  0.14077175  1
  O  O196  1  0.25325419  0.50151209  0.63556887  1
  O  O197  1  0.25043373  0.99021241  0.13290912  1
  O  O198  1  0.24591299  0.99457463  0.63140491  1
  O  O199  1  0.74370683  0.48789718  0.12949749  1
  O  O200  1  0.74490691  0.49361005  0.63277237  1
  O  O201  1  0.74280212  0.98710566  0.13779568  1
  O  O202  1  0.73888481  0.99361751  0.63206084  1
  O  O203  1  0.00606114  0.36863530  0.25602783  1
  O  O204  1  0.01016389  0.37797116  0.75337091  1
  O  O205  1  -0.00046800  0.87031772  0.25868017  1
  O  O206  1  -0.00780603  0.87961020  0.76171183  1
  O  O207  1  0.50654187  0.36643847  0.26038434  1
  O  O208  1  0.50696692  0.36889484  0.76213551  1
  O  O209  1  0.50533252  0.86756756  0.25665202  1
  O  O210  1  0.51507162  0.87907365  0.75266237  1
  O  O211  1  0.51048466  0.13394192  0.25017119  1
  O  O212  1  0.50146206  0.13106851  0.73655658  1
  O  O213  1  0.49962496  0.63054342  0.24035878  1
  O  O214  1  0.52062628  0.62977741  0.76104171  1
  O  O215  1  0.99496298  0.13299416  0.25036614  1
  O  O216  1  0.99190288  0.12910783  0.74266155  1
  O  O217  1  0.98597212  0.63458462  0.25486041  1
  O  O218  1  0.99121043  0.62881116  0.74277634  1
  O  O219  1  0.37550004  0.26330516  -0.00389293  1
  O  O220  1  0.36656885  0.24424375  0.50530729  1
  O  O221  1  0.36483253  0.75594359  0.00673738  1
  O  O222  1  0.37532671  0.75353982  0.52570708  1
  O  O223  1  0.88390716  0.22797548  0.00874788  1
  O  O224  1  0.86727476  0.25498402  0.49371567  1
  O  O225  1  0.87290850  0.75317340  0.00791961  1
  O  O226  1  0.86744288  0.76006375  0.49450959  1
  O  O227  1  0.13623451  0.23731795  0.50308015  1
  O  O228  1  0.12282664  0.23919343  1.00537864  1
  O  O229  1  0.12799694  0.74306039  0.49183728  1
  O  O230  1  0.13101660  0.74735243  0.98966742  1
  O  O231  1  0.63273335  0.24276304  0.49380850  1
  O  O232  1  0.62413023  0.23652857  0.99424121  1
  O  O233  1  0.63295739  0.73622546  0.50155587  1
  O  O234  1  0.62808938  0.73714395  1.00731432  1
  O  O235  1  0.49919904  0.25621223  0.14238897  1
  O  O236  1  0.49609139  0.24406555  0.62688888  1
  O  O237  1  0.49386789  0.74042247  0.13345737  1
  O  O238  1  0.49594527  0.74352578  0.63058744  1
  O  O239  1  0.99863959  0.25516145  0.13525572  1
  O  O240  1  1.00568480  0.23751075  0.62567295  1
  O  O241  1  0.99921324  0.76036191  0.13088527  1
  O  O242  1  1.00484656  0.73972395  0.62671862  1
  O  O243  1  0.00113031  0.25642910  0.36239664  1
  O  O244  1  -0.00231349  0.26957901  0.86479409  1
  O  O245  1  0.00381428  0.76115735  0.36877216  1
  O  O246  1  0.00705113  0.76407313  0.86967122  1
  O  O247  1  0.51315156  0.25777956  0.37311036  1
  O  O248  1  0.50821571  0.25296272  0.86971041  1
  O  O249  1  0.50205529  0.75870744  0.37063175  1
  O  O250  1  0.49646884  0.75114266  0.87870851  1
  O  O251  1  0.24475651  0.13253504  0.49234969  1
  O  O252  1  0.23836773  0.12286207  0.99010507  1
  O  O253  1  0.24404494  0.63348962  0.49823784  1
  O  O254  1  0.25021928  0.63674643  0.99085603  1
  O  O255  1  0.74261886  0.13171430  0.50319226  1
  O  O256  1  0.73476338  0.12376314  1.00117856  1
  O  O257  1  0.74692451  0.62773213  0.49695630  1
  O  O258  1  0.74058155  0.62866275  0.99622799  1
  O  O259  1  0.25509383  0.37263870  -0.00464249  1
  O  O260  1  0.24286588  0.36365559  0.49393297  1
  O  O261  1  0.25280328  0.86612085  0.00491950  1
  O  O262  1  0.24787615  0.87685857  0.51616528  1
  O  O263  1  0.75078047  0.36948589  0.01442158  1
  O  O264  1  0.76218858  0.36587212  0.50091874  1
  O  O265  1  0.75242566  0.87071092  0.00787170  1
  O  O266  1  0.75586095  0.86584644  0.50386026  1
  O  O267  1  0.12810696  0.49787049  0.24121442  1
  O  O268  1  0.13724971  0.49561380  0.74922529  1
  O  O269  1  0.13661494  0.99645249  0.24840784  1
  O  O270  1  0.13166612  1.00673053  0.74138914  1
  O  O271  1  0.63322046  0.49405764  0.23534931  1
  O  O272  1  0.63911234  0.49018669  0.74444245  1
  O  O273  1  0.63137921  0.99268657  0.25229618  1
  O  O274  1  0.63075586  0.99568394  0.74538564  1
  O  O275  1  0.36392495  -0.00202123  0.25734598  1
  O  O276  1  0.36848603  0.00417677  0.75868990  1
  O  O277  1  0.36459801  0.49716137  0.24359010  1
  O  O278  1  0.36568190  0.49156445  0.76489242  1
  O  O279  1  0.86933048  0.00648090  0.25734421  1
  O  O280  1  0.86543311  0.00668258  0.75606461  1
  O  O281  1  0.86937769  0.51039728  0.25179869  1
  O  O282  1  0.86650378  0.50569338  0.75298098  1
  O  O283  1  0.11342245  0.38106471  0.36177777  1
  O  O284  1  0.11173332  0.38608026  0.86579887  1
  O  O285  1  0.11724080  0.86768874  0.37677069  1
  O  O286  1  0.11541451  0.86959781  0.88050097  1
  O  O287  1  0.62399918  0.36666334  0.36792594  1
  O  O288  1  0.61951280  0.36795842  0.87186702  1
  O  O289  1  0.61895317  0.87363617  0.36445175  1
  O  O290  1  0.62428787  0.87350924  0.86593975  1
  O  O291  1  0.37555515  0.12833604  0.12521325  1
  O  O292  1  0.38338644  0.13292628  0.62503761  1
  O  O293  1  0.38370005  0.62912102  0.11580464  1
  O  O294  1  0.38290391  0.63638792  0.63526213  1
  O  O295  1  0.87758997  0.11427546  0.13416188  1
  O  O296  1  0.88633954  0.11514848  0.63329945  1
  O  O297  1  0.86698357  0.62701330  0.13314696  1
  O  O298  1  0.88217250  0.62231754  0.63276586  1
  O  O299  1  0.27062112  0.26598341  0.17458799  1
  O  O300  1  0.26007409  0.25165412  0.61268682  1
  O  O301  1  0.24920586  0.75357235  0.11800735  1
  O  O302  1  0.25161556  0.76771550  0.62758328  1
  O  O303  1  0.74961490  0.26121649  0.12296107  1
  O  O304  1  0.74518928  0.25261571  0.60984804  1
  O  O305  1  0.74330611  0.76143624  0.12208464  1
  O  O306  1  0.74881119  0.75529149  0.61244522  1
  O  O307  1  0.25793202  0.23604821  0.37651270  1
  O  O308  1  0.25558482  0.23590634  0.86487294  1
  O  O309  1  0.24118759  0.75122687  0.37670921  1
  O  O310  1  0.24486893  0.74700797  0.87935533  1
  O  O311  1  0.73877801  0.25258384  0.38420377  1
  O  O312  1  0.74091015  0.25650953  0.88262990  1
  O  O313  1  0.74735421  0.74327819  0.38654512  1
  O  O314  1  0.75982956  0.73981698  0.88797166  1
  O  O315  1  0.00532562  0.12377062  0.00665330  1
  O  O316  1  0.00819155  0.12475572  0.50481641  1
  O  O317  1  -0.01317278  0.64141593  0.00621921  1
  O  O318  1  0.00718478  0.62671768  0.50532974  1
  O  O319  1  0.51125099  0.11599869  -0.00369822  1
  O  O320  1  0.50928966  0.13013427  0.51026203  1
  O  O321  1  0.50638484  0.62009881  0.01159562  1
  O  O322  1  0.51501119  0.61446971  0.49992521  1
  O  O323  1  0.50217303  0.37964989  0.48499956  1
  O  O324  1  0.50402704  0.37402809  0.98939280  1
  O  O325  1  0.51282655  0.87206433  0.48785439  1
  O  O326  1  0.49229778  0.88120334  0.99868377  1
  O  O327  1  0.99888632  0.37322548  0.49189149  1
  O  O328  1  1.00655223  0.37451157  0.98397896  1
  O  O329  1  0.99300196  0.87691952  0.49471920  1
  O  O330  1  0.99342243  0.88454703  0.98849839  1
  O  O331  1  0.49528263  0.48185093  0.38070410  1
  O  O332  1  0.49049668  0.48779008  0.88091090  1
  O  O333  1  0.48561507  0.99235106  0.37246000  1
  O  O334  1  0.49031147  0.99921013  0.88391642  1
  O  O335  1  0.99744453  0.49126959  0.37632908  1
  O  O336  1  0.98915894  0.49572698  0.87126146  1
  O  O337  1  0.99440088  0.98954776  0.37598881  1
  O  O338  1  0.99479126  0.99870381  0.88423642  1
  O  O339  1  0.00182494  -0.01014569  0.10992523  1
  O  O340  1  0.00904640  0.00947295  0.62301950  1
  O  O341  1  0.01270431  0.50157260  0.12971116  1
  O  O342  1  0.00621040  0.51652796  0.62066446  1
  O  O343  1  0.49844288  -0.00773159  0.11367205  1
  O  O344  1  0.51150985  0.00719929  0.62821487  1
  O  O345  1  0.50686720  0.50345025  0.12588624  1
  O  O346  1  0.50915228  0.49946759  0.62141559  1
  O  O347  1  0.23356356  0.39258528  0.26259155  1
  O  O348  1  0.24340854  0.38487989  0.75021141  1
  O  O349  1  0.24811909  0.87860424  0.24192640  1
  O  O350  1  0.25010712  0.88993032  0.73941381  1
  O  O351  1  0.74617890  0.37612501  0.24325243  1
  O  O352  1  0.74901318  0.38001444  0.74829539  1
  O  O353  1  0.74300809  0.87649303  0.24645695  1
  O  O354  1  0.74366741  0.88422414  0.74522731  1
  O  O355  1  0.24978199  0.11345816  0.25919817  1
  O  O356  1  0.24967545  0.11527325  0.75532054  1
  O  O357  1  0.25138684  0.61859863  0.25117810  1
  O  O358  1  0.24535226  0.61979154  0.76248072  1
  O  O359  1  0.75899779  0.11430048  0.24649221  1
  O  O360  1  0.75517461  0.11319130  0.74172718  1
  O  O361  1  0.75697199  0.62345430  0.25789282  1
  O  O362  1  0.75556006  0.61672239  0.75403806  1
  O  O363  1  0.37024458  0.11067465  0.37152125  1
  O  O364  1  0.36700577  0.11495001  0.87536830  1
  O  O365  1  0.38202014  0.63336151  0.37707774  1
  O  O366  1  0.36485069  0.61344071  0.88017312  1
  O  O367  1  0.88037951  0.11028214  0.36979832  1
  O  O368  1  0.87893691  0.11224033  0.86258329  1
  O  O369  1  0.86443439  0.62480648  0.36919503  1
  O  O370  1  0.86982166  0.61219829  0.86362278  1
  O  O371  1  0.12332326  0.38952188  0.13899036  1
  O  O372  1  0.13094310  0.38207772  0.63209945  1
  O  O373  1  0.13772328  0.87811942  0.12446590  1
  O  O374  1  0.13196635  0.88945835  0.62154705  1
  O  O375  1  0.63084136  0.37963392  0.13039040  1
  O  O376  1  0.62525162  0.38165064  0.63051245  1
  O  O377  1  0.62751013  0.87612799  0.13834901  1
  O  O378  1  0.62999054  0.88147322  0.63199245  1
  O  O379  1  0.11826437  0.26629302  0.24441453  1
  O  O380  1  0.12794297  0.26472005  0.74415424  1
  O  O381  1  0.11173554  0.75202208  0.25704998  1
  O  O382  1  0.12329556  0.74938532  0.76259216  1
  O  O383  1  0.62032276  0.25153907  0.25806714  1
  O  O384  1  0.62354756  0.25144335  0.75773792  1
  O  O385  1  0.61192190  0.75529243  0.25297361  1
  O  O386  1  0.63372385  0.75707623  0.75171712  1
  O  O387  1  0.40104575  0.23712340  0.26546013  1
  O  O388  1  0.38347413  0.24752768  0.74010054  1
  O  O389  1  0.38632040  0.75620718  0.24374895  1
  O  O390  1  0.37266439  0.76227778  0.73220438  1
  O  O391  1  0.88024698  0.23422796  0.25640549  1
  O  O392  1  0.87075976  0.23660884  0.75183624  1
  O  O393  1  0.88505192  0.74586398  0.25347612  1
  O  O394  1  0.87405945  0.73858533  0.75701042  1
  O  O395  1  0.38838931  0.50425666  0.50982104  1
  O  O396  1  0.37181169  0.48775754  0.98993376  1
  O  O397  1  0.37133584  1.00319660  0.48870497  1
  O  O398  1  0.37942547  0.99580710  0.99388949  1
  O  O399  1  0.87870943  0.48814290  0.49574653  1
  O  O400  1  0.87148143  0.50431038  0.98366551  1
  O  O401  1  0.87437537  0.99264142  0.49206789  1
  O  O402  1  0.87892665  0.99967278  0.99217535  1
  O  O403  1  0.11600778  0.01204482  0.00191307  1
  O  O404  1  0.12511715  0.01162152  0.50875774  1
  O  O405  1  0.12902906  0.50656881  0.01798396  1
  O  O406  1  0.12703602  0.51512090  0.49754085  1
  O  O407  1  0.61689471  0.00977131  0.00193233  1
  O  O408  1  0.63245704  0.00706455  0.50807035  1
  O  O409  1  0.62612713  0.50930452  0.01018395  1
  O  O410  1  0.62224848  0.50093335  0.50722217  1
  O  O411  1  0.37821635  0.37479480  0.10260003  1
  O  O412  1  0.37506724  0.36311557  0.62724033  1
  O  O413  1  0.36356102  0.86642582  0.11992136  1
  O  O414  1  0.36488958  0.87820609  0.62586387  1
  O  O415  1  0.86245952  0.37785250  0.12941010  1
  O  O416  1  0.88203573  0.37708239  0.61127722  1
  O  O417  1  0.86239048  0.88166197  0.11689490  1
  O  O418  1  0.86959017  0.88241806  0.61340089  1
  O  O419  1  0.13717997  0.11704661  0.38463364  1
  O  O420  1  0.13050521  0.12459098  0.88888031  1
  O  O421  1  0.12107449  0.63899180  0.38067173  1
  O  O422  1  0.12946954  0.63298080  0.88025669  1
  O  O423  1  0.62154943  0.13073522  0.38832371  1
  O  O424  1  0.62292592  0.13273786  0.88409029  1
  O  O425  1  0.64053028  0.62549918  0.38520226  1
  O  O426  1  0.62572526  0.62984480  0.88120640  1
