# generated using pymatgen
data_V85Zn86O256
_symmetry_space_group_name_H-M   'P 1'
_cell_length_a   16.92982892
_cell_length_b   16.93357349
_cell_length_c   16.93182088
_cell_angle_alpha   90.03334830
_cell_angle_beta   89.96474998
_cell_angle_gamma   89.95241521
_symmetry_Int_Tables_number   1
_chemical_formula_structural   V85Zn86O256
_chemical_formula_sum   'V85 Zn86 O256'
_cell_volume   4854.05336096
_cell_formula_units_Z   1
loop_
 _symmetry_equiv_pos_site_id
 _symmetry_equiv_pos_as_xyz
  1  'x, y, z'
loop_
 _atom_site_type_symbol
 _atom_site_label
 _atom_site_symmetry_multiplicity
 _atom_site_fract_x
 _atom_site_fract_y
 _atom_site_fract_z
 _atom_site_occupancy
  V  V0  1  0.43236088  0.18259360  0.79956642  1
  V  V1  1  0.49928901  0.74900272  0.74418276  1
  V  V2  1  0.25510516  0.62373057  0.87736495  1
  V  V3  1  0.49996064  0.87390900  0.87619113  1
  V  V4  1  0.11981627  -0.00198331  0.62159165  1
  V  V5  1  0.75303251  0.62447437  0.37911686  1
  V  V6  1  0.62689956  0.00242793  0.12238156  1
  V  V7  1  0.12612464  0.12302704  0.00206784  1
  V  V8  1  -0.00634546  0.12239271  0.62441389  1
  V  V9  1  0.49830751  0.49240993  -0.01048388  1
  V  V10  1  0.37056522  0.26192396  0.13325962  1
  V  V11  1  0.75617472  -0.00401840  0.74653123  1
  V  V12  1  0.74632015  0.38212491  0.62595552  1
  V  V13  1  0.63068759  0.75174559  0.37854382  1
  V  V14  1  0.11769634  0.37851049  0.75197783  1
  V  V15  1  0.24972502  0.75226692  0.00848297  1
  V  V16  1  -0.00664089  0.87089397  0.87764584  1
  V  V17  1  0.13371125  0.87195216  0.25081511  1
  V  V18  1  0.37275512  0.62558148  0.26108553  1
  V  V19  1  0.62377008  0.12433970  0.49840369  1
  V  V20  1  0.36741270  0.38051054  -0.01215294  1
  V  V21  1  0.62782463  -0.00427457  0.62151589  1
  V  V22  1  0.00561630  0.49344557  -0.00875987  1
  V  V23  1  0.75089557  0.25222956  0.49804244  1
  V  V24  1  0.13107795  0.37807201  0.23574802  1
  V  V25  1  0.24770377  0.50187768  0.24470658  1
  V  V26  1  0.87065792  -0.00370589  0.87777409  1
  V  V27  1  0.61247836  0.36122633  0.75828940  1
  V  V28  1  0.62430106  0.62681208  0.00027260  1
  V  V29  1  0.50202106  0.75083237  0.24936208  1
  V  V30  1  0.11935942  0.25420838  0.87486085  1
  V  V31  1  0.24334900  0.73470350  0.49523950  1
  V  V32  1  0.76122731  0.87536182  0.11996276  1
  V  V33  1  0.61781360  0.37314608  0.24912132  1
  V  V34  1  0.24863916  0.37478011  0.62428423  1
  V  V35  1  0.87454920  0.62016068  0.24938779  1
  V  V36  1  0.00010604  0.75078654  0.25119299  1
  V  V37  1  0.62213428  0.50344324  0.63338774  1
  V  V38  1  0.24626386  0.12738692  0.86957432  1
  V  V39  1  0.75038487  0.49841489  0.25439890  1
  V  V40  1  0.37435659  -0.00014006  0.87234396  1
  V  V41  1  0.63040275  0.87271257  0.74595625  1
  V  V42  1  0.12456029  0.25305232  0.37686709  1
  V  V43  1  0.75460219  0.37176846  0.12120301  1
  V  V44  1  0.00624509  0.61423672  0.12616796  1
  V  V45  1  -0.00286638  0.24971877  0.24923466  1
  V  V46  1  0.88562656  -0.00062155  0.37820775  1
  V  V47  1  0.61710547  0.25038156  0.37155785  1
  V  V48  1  0.86020973  0.75150502  0.61877289  1
  V  V49  1  0.50038390  0.50261096  0.50192130  1
  V  V50  1  0.49692794  0.62360574  0.12492651  1
  V  V51  1  0.25304572  -0.00008971  0.74885783  1
  V  V52  1  0.13532728  -0.00688836  0.12491934  1
  V  V53  1  0.87314737  0.24882555  0.62311769  1
  V  V54  1  0.37809887  0.24844408  0.62465063  1
  V  V55  1  0.12399339  0.87413464  0.75028338  1
  V  V56  1  0.37723305  0.12290072  0.25219858  1
  V  V57  1  0.62763014  0.87532045  0.24871771  1
  V  V58  1  0.11979794  0.12064858  0.49849284  1
  V  V59  1  0.74963700  0.61732250  0.87141992  1
  V  V60  1  0.86940801  0.87817913  0.50374228  1
  V  V61  1  0.25125971  0.50109941  0.75332033  1
  V  V62  1  0.50304337  0.13279012  0.13169604  1
  V  V63  1  0.38016631  0.62067201  0.74957993  1
  V  V64  1  0.87719084  0.38878693  0.49701880  1
  V  V65  1  0.25158224  0.11400954  0.37456088  1
  V  V66  1  0.81672657  0.16910913  0.80688983  1
  V  V67  1  0.87275189  0.61675419  0.74661493  1
  V  V68  1  0.75883179  0.75025993  -0.00170728  1
  V  V69  1  0.49362386  0.12248037  0.62367632  1
  V  V70  1  -0.00138001  0.74694279  0.74618339  1
  V  V71  1  0.37368640  0.74749241  0.62335319  1
  V  V72  1  -0.00314642  0.24816605  0.75145873  1
  V  V73  1  0.75295050  0.12526383  0.37456270  1
  V  V74  1  0.62254649  0.62825479  0.50418324  1
  V  V75  1  -0.00266489  -0.00723519  0.00279017  1
  V  V76  1  0.12521921  0.74871562  0.87669139  1
  V  V77  1  0.37167559  0.87694428  0.00740256  1
  V  V78  1  0.37487396  0.37416086  0.49693505  1
  V  V79  1  0.75466048  0.00003777  0.25035505  1
  V  V80  1  0.12104280  0.50322559  0.61217146  1
  V  V81  1  0.00214174  0.62370246  0.60913303  1
  V  V82  1  0.37215491  0.87987840  0.49291662  1
  V  V83  1  0.63201425  0.13285568  -0.00984057  1
  V  V84  1  -0.00150428  0.38801104  0.37792072  1
  Zn  Zn85  1  0.49696540  0.37442625  0.37105891  1
  Zn  Zn86  1  0.62651240  0.75082379  0.87449988  1
  Zn  Zn87  1  0.37116609  0.50475977  0.37829131  1
  Zn  Zn88  1  0.24413620  0.25803021  0.00645129  1
  Zn  Zn89  1  0.36994695  0.75562134  0.12964406  1
  Zn  Zn90  1  0.88041779  0.37157721  -0.01215940  1
  Zn  Zn91  1  0.13052166  0.62085106  0.00691460  1
  Zn  Zn92  1  0.12523596  0.74054796  0.38041640  1
  Zn  Zn93  1  0.75223816  0.24935344  -0.01597136  1
  Zn  Zn94  1  0.24770124  0.87220065  0.62363889  1
  Zn  Zn95  1  0.87837330  0.12432383  0.24841799  1
  Zn  Zn96  1  0.62449852  0.49889756  0.12540641  1
  Zn  Zn97  1  0.87840738  0.74979869  0.12194105  1
  Zn  Zn98  1  0.00014645  0.12265277  0.12752558  1
  Zn  Zn99  1  0.24878640  0.24864082  0.50031561  1
  Zn  Zn100  1  0.87838126  0.49870841  0.87232210  1
  Zn  Zn101  1  0.00355693  0.87439074  0.38116503  1
  Zn  Zn102  1  0.25763258  -0.00733625  0.24825561  1
  Zn  Zn103  1  0.49491097  0.00028174  0.49250313  1
  Zn  Zn104  1  0.49996495  0.00087789  0.00120180  1
  Zn  Zn105  1  0.87555860  0.24489356  0.11865444  1
  Zn  Zn106  1  0.49868801  0.88322120  0.37198844  1
  Zn  Zn107  1  0.18853629  0.18790986  0.18933217  1
  Zn  Zn108  1  0.18621245  0.18720923  0.68648108  1
  Zn  Zn109  1  0.18596544  0.68334989  0.19583859  1
  Zn  Zn110  1  0.18738860  0.68577874  0.68391573  1
  Zn  Zn111  1  0.68978093  0.18883993  0.18919723  1
  Zn  Zn112  1  0.68007691  0.19003132  0.68208041  1
  Zn  Zn113  1  0.68816000  0.68757745  0.18561318  1
  Zn  Zn114  1  0.68584275  0.68440228  0.68861813  1
  Zn  Zn115  1  0.30896373  0.31002669  0.31327214  1
  Zn  Zn116  1  0.30456496  0.31818539  0.81659434  1
  Zn  Zn117  1  0.31174638  0.80885029  0.31584452  1
  Zn  Zn118  1  0.31226805  0.81190380  0.81548449  1
  Zn  Zn119  1  0.81292173  0.31482855  0.31312567  1
  Zn  Zn120  1  0.80176324  0.33837873  0.81226695  1
  Zn  Zn121  1  0.81451569  0.81172031  0.31354562  1
  Zn  Zn122  1  0.81260484  0.80733837  0.81096914  1
  Zn  Zn123  1  0.19082191  0.44242367  0.43017722  1
  Zn  Zn124  1  0.18416730  0.44071369  0.93742762  1
  Zn  Zn125  1  0.18652781  0.93096508  0.43831874  1
  Zn  Zn126  1  0.18702350  0.93521250  0.93721803  1
  Zn  Zn127  1  0.68631593  0.43979402  0.43782326  1
  Zn  Zn128  1  0.68436329  0.43766766  0.93762224  1
  Zn  Zn129  1  0.69171021  0.93591185  0.43813293  1
  Zn  Zn130  1  0.68854678  0.93746506  0.93758456  1
  Zn  Zn131  1  0.31407270  0.06704789  0.06191158  1
  Zn  Zn132  1  0.30763271  0.06232826  0.56303746  1
  Zn  Zn133  1  0.31385669  0.56110300  0.06779311  1
  Zn  Zn134  1  0.31535297  0.56092490  0.56874931  1
  Zn  Zn135  1  0.81461707  0.06531039  0.06141232  1
  Zn  Zn136  1  0.81084244  0.05930713  0.56072469  1
  Zn  Zn137  1  0.81627923  0.55842696  0.06358048  1
  Zn  Zn138  1  0.80808783  0.56556145  0.56249692  1
  Zn  Zn139  1  0.43653243  0.44274198  0.18546758  1
  Zn  Zn140  1  0.43904752  0.43787171  0.68569778  1
  Zn  Zn141  1  0.44159414  0.94127325  0.18818088  1
  Zn  Zn142  1  0.43753350  0.93458738  0.68339308  1
  Zn  Zn143  1  0.93729247  0.43754148  0.18994334  1
  Zn  Zn144  1  0.93862513  0.43725691  0.68334095  1
  Zn  Zn145  1  0.94250901  0.93730411  0.18953336  1
  Zn  Zn146  1  0.93697846  0.93356015  0.68569319  1
  Zn  Zn147  1  0.06596446  0.06131301  0.31022359  1
  Zn  Zn148  1  0.05962756  0.06199150  0.81094335  1
  Zn  Zn149  1  0.06852227  0.56334841  0.31570447  1
  Zn  Zn150  1  0.06525758  0.56669516  0.80902895  1
  Zn  Zn151  1  0.56228041  0.06225164  0.31128103  1
  Zn  Zn152  1  0.56840318  0.05494567  0.81357726  1
  Zn  Zn153  1  0.56215029  0.56047702  0.31595271  1
  Zn  Zn154  1  0.56227593  0.56258083  0.81407840  1
  Zn  Zn155  1  0.43605795  0.18588208  0.43776432  1
  Zn  Zn156  1  0.44553515  0.19700214  0.96613714  1
  Zn  Zn157  1  0.44270698  0.69318934  0.43947974  1
  Zn  Zn158  1  0.43593391  0.68904514  0.93663679  1
  Zn  Zn159  1  0.93893595  0.19056504  0.43788012  1
  Zn  Zn160  1  0.94127347  0.18756393  0.94390732  1
  Zn  Zn161  1  0.93392956  0.68991788  0.43577403  1
  Zn  Zn162  1  0.93795821  0.68026755  0.93801614  1
  Zn  Zn163  1  0.05964903  0.31078350  0.06277590  1
  Zn  Zn164  1  0.06096353  0.31374429  0.56118389  1
  Zn  Zn165  1  0.06396969  0.80953662  0.06665201  1
  Zn  Zn166  1  0.05787597  0.81252799  0.56022718  1
  Zn  Zn167  1  0.56396024  0.31277106  0.06278644  1
  Zn  Zn168  1  0.56021871  0.31285649  0.56436098  1
  Zn  Zn169  1  0.56520741  0.81283405  0.06310187  1
  Zn  Zn170  1  0.56050981  0.81299833  0.56188397  1
  O  O171  1  0.12449544  0.11925322  0.11599718  1
  O  O172  1  0.11730656  0.11942224  0.61781903  1
  O  O173  1  0.10959670  0.62638440  0.12764506  1
  O  O174  1  0.11326304  0.61611531  0.62981169  1
  O  O175  1  0.62099218  0.12085304  0.12274777  1
  O  O176  1  0.61189478  0.11836920  0.62020136  1
  O  O177  1  0.61534386  0.62445549  0.11736420  1
  O  O178  1  0.62930468  0.61806116  0.61510544  1
  O  O179  1  0.37674908  0.36857677  0.38753756  1
  O  O180  1  0.37584888  0.37201568  0.88920304  1
  O  O181  1  0.37677082  0.87087624  0.38928069  1
  O  O182  1  0.38200268  0.87902003  0.88332907  1
  O  O183  1  0.88930234  0.37092241  0.38187512  1
  O  O184  1  0.87629567  0.38568252  0.87397330  1
  O  O185  1  0.87670230  0.88227714  0.38276021  1
  O  O186  1  0.88606599  0.87880259  0.87093159  1
  O  O187  1  0.24386636  0.01114971  0.37299074  1
  O  O188  1  0.25418041  0.00756719  0.86925860  1
  O  O189  1  0.25822044  0.49145185  0.35589525  1
  O  O190  1  0.24514573  0.50805710  0.86188413  1
  O  O191  1  0.75885765  0.00664870  0.37041858  1
  O  O192  1  0.76345217  -0.00517644  0.86860520  1
  O  O193  1  0.74448958  0.50831082  0.36264926  1
  O  O194  1  0.75122419  0.51457186  0.88224683  1
  O  O195  1  0.25802499  0.49686782  0.14259191  1
  O  O196  1  0.24230025  0.49656964  0.63580393  1
  O  O197  1  0.23879496  1.00451813  0.12427918  1
  O  O198  1  0.23821204  0.99971358  0.63392979  1
  O  O199  1  0.74753262  0.49029918  0.13352397  1
  O  O200  1  0.73718652  0.49211758  0.61766631  1
  O  O201  1  0.74651080  0.99323763  0.12779450  1
  O  O202  1  0.73754868  1.00373878  0.63225655  1
  O  O203  1  0.00809958  0.37046410  0.25856877  1
  O  O204  1  0.00636762  0.36084772  0.74183990  1
  O  O205  1  0.00840122  0.86515263  0.25193230  1
  O  O206  1  0.00403687  0.86720986  0.75719467  1
  O  O207  1  0.51394316  0.38138464  0.24984733  1
  O  O208  1  0.51313497  0.37852564  0.74635495  1
  O  O209  1  0.50769130  0.86729242  0.24894994  1
  O  O210  1  0.50741841  0.86951051  0.75593161  1
  O  O211  1  0.49510603  0.12677590  0.23944607  1
  O  O212  1  0.49644763  0.11988794  0.74547713  1
  O  O213  1  0.49757691  0.63084015  0.24341843  1
  O  O214  1  0.48859593  0.63415777  0.75841467  1
  O  O215  1  1.00224845  0.13595625  0.25031043  1
  O  O216  1  1.00712210  0.13772096  0.73868599  1
  O  O217  1  0.99244513  0.62573180  0.24122374  1
  O  O218  1  0.99092502  0.63192205  0.74464392  1
  O  O219  1  0.36959180  0.26601125  0.01061366  1
  O  O220  1  0.37218082  0.25597416  0.50857088  1
  O  O221  1  0.36821150  0.75909777  0.00194147  1
  O  O222  1  0.36972058  0.75537858  0.50721154  1
  O  O223  1  0.87040509  0.25378284  0.00068111  1
  O  O224  1  0.86930366  0.25811878  0.50538421  1
  O  O225  1  0.86269510  0.74376689  0.00131687  1
  O  O226  1  0.87240752  0.75406431  0.51313178  1
  O  O227  1  0.12586646  0.24261252  0.49346689  1
  O  O228  1  0.12409556  0.24273126  0.99288356  1
  O  O229  1  0.14004102  0.75333824  0.50356421  1
  O  O230  1  0.13195385  0.74672056  0.99439390  1
  O  O231  1  0.63109547  0.24482634  0.49481142  1
  O  O232  1  0.62841949  0.23806874  0.99951815  1
  O  O233  1  0.61906266  0.74276687  0.49061632  1
  O  O234  1  0.63018971  0.73867701  0.99861946  1
  O  O235  1  0.48695601  0.24348623  0.11764892  1
  O  O236  1  0.48661255  0.24155983  0.62356661  1
  O  O237  1  0.50170434  0.74456982  0.13594152  1
  O  O238  1  0.49280398  0.75325566  0.63789460  1
  O  O239  1  0.99771220  0.24766616  0.13492428  1
  O  O240  1  0.99263744  0.24363607  0.63042909  1
  O  O241  1  0.99748583  0.74002692  0.13418822  1
  O  O242  1  0.99454766  0.74083128  0.63030340  1
  O  O243  1  0.01047205  0.25481928  0.36914783  1
  O  O244  1  0.01159500  0.24262117  0.86721568  1
  O  O245  1  -0.00126257  0.74797362  0.36056539  1
  O  O246  1  0.00244850  0.75424396  0.87071700  1
  O  O247  1  0.51387267  0.25124945  0.37989596  1
  O  O248  1  0.48685216  0.23393247  0.86364515  1
  O  O249  1  0.51168192  0.75308975  0.36301458  1
  O  O250  1  0.49957037  0.76020909  0.86527873  1
  O  O251  1  0.23908739  0.12662513  0.49401186  1
  O  O252  1  0.24034372  0.12580785  0.98809205  1
  O  O253  1  0.25550921  0.63656265  0.50690893  1
  O  O254  1  0.25237291  0.62827256  0.99305970  1
  O  O255  1  0.74363533  0.13078140  0.49466297  1
  O  O256  1  0.73614841  0.12780093  1.00352735  1
  O  O257  1  0.73773874  0.62025526  0.48871763  1
  O  O258  1  0.74183373  0.63011340  0.99803037  1
  O  O259  1  0.26225470  0.37828612  -0.00347224  1
  O  O260  1  0.25788355  0.37347771  0.50630465  1
  O  O261  1  0.25959228  0.86554046  -0.00668021  1
  O  O262  1  0.26081394  0.86710838  0.50334753  1
  O  O263  1  0.74749658  0.37326550  0.01166075  1
  O  O264  1  0.75504332  0.37077913  0.50514000  1
  O  O265  1  0.74271270  0.86315946  0.00790843  1
  O  O266  1  0.76817158  0.87085262  0.49464976  1
  O  O267  1  0.13000383  0.48483015  0.24901025  1
  O  O268  1  0.12956819  0.49266601  0.74421947  1
  O  O269  1  0.12697038  0.99067890  0.24134517  1
  O  O270  1  0.13293833  0.99484017  0.74583515  1
  O  O271  1  0.63259982  0.49313820  0.24839395  1
  O  O272  1  0.61829970  0.50079346  0.73599843  1
  O  O273  1  0.63430821  0.99771452  0.23862054  1
  O  O274  1  0.63522806  0.99185691  0.74410030  1
  O  O275  1  0.37349164  0.01680428  0.24188084  1
  O  O276  1  0.36071168  -0.00758164  0.75311681  1
  O  O277  1  0.37314323  0.50996078  0.25345137  1
  O  O278  1  0.36628495  0.50988814  0.74171406  1
  O  O279  1  0.87115434  -0.00083903  0.25959100  1
  O  O280  1  0.86265413  -0.00638674  0.75320180  1
  O  O281  1  0.86722665  0.51126787  0.24827427  1
  O  O282  1  0.87694610  0.51347172  0.74489374  1
  O  O283  1  0.11487929  0.36832450  0.37303633  1
  O  O284  1  0.12821489  0.36743606  0.86254718  1
  O  O285  1  0.12155472  0.86727745  0.36748139  1
  O  O286  1  0.11357251  0.86975155  0.87058520  1
  O  O287  1  0.62622337  0.36715178  0.36752235  1
  O  O288  1  0.63181577  0.37804423  0.85668619  1
  O  O289  1  0.62814383  0.86704362  0.36770507  1
  O  O290  1  0.61664493  0.87483991  0.86723185  1
  O  O291  1  0.38410668  0.13485450  0.12789770  1
  O  O292  1  0.38460014  0.12931992  0.62151615  1
  O  O293  1  0.38787295  0.63023039  0.13082109  1
  O  O294  1  0.37373525  0.63754851  0.63577629  1
  O  O295  1  0.88086630  0.12629339  0.12956482  1
  O  O296  1  0.88775394  0.12697253  0.61660287  1
  O  O297  1  0.88348276  0.62655112  0.13323347  1
  O  O298  1  0.87819295  0.63425939  0.62766297  1
  O  O299  1  0.26604944  0.24392408  0.12241753  1
  O  O300  1  0.26071221  0.25325749  0.62586545  1
  O  O301  1  0.24983522  0.74243820  0.11187545  1
  O  O302  1  0.25713545  0.75145117  0.61827671  1
  O  O303  1  0.75351270  0.26425127  0.12865269  1
  O  O304  1  0.75417487  0.25562626  0.61661797  1
  O  O305  1  0.75098215  0.75817815  0.11736291  1
  O  O306  1  0.76211099  0.74812541  0.62808788  1
  O  O307  1  0.23553381  0.24226796  0.37544187  1
  O  O308  1  0.23684772  0.24318546  0.87593095  1
  O  O309  1  0.25192603  0.74907941  0.39282282  1
  O  O310  1  0.24592482  0.74333780  0.88452373  1
  O  O311  1  0.74516594  0.24490017  0.38076928  1
  O  O312  1  0.76197939  0.23848909  0.86275558  1
  O  O313  1  0.73783440  0.74061329  0.36662808  1
  O  O314  1  0.74806085  0.74131722  0.88272733  1
  O  O315  1  0.01293971  0.11154926  -0.00204500  1
  O  O316  1  0.01229993  0.12916317  0.50725278  1
  O  O317  1  0.00224783  0.61910869  0.01327738  1
  O  O318  1  -0.00598314  0.62705866  0.51004990  1
  O  O319  1  0.51313032  0.12074290  0.01354547  1
  O  O320  1  0.50485423  0.12244174  0.50785988  1
  O  O321  1  0.50375146  0.62104911  0.00559506  1
  O  O322  1  0.51240310  0.61843356  0.49508214  1
  O  O323  1  0.49086579  0.38130825  0.49937924  1
  O  O324  1  0.49433284  0.38713080  1.00297081  1
  O  O325  1  0.48445126  0.87344581  0.49936602  1
  O  O326  1  0.49581473  0.87621023  0.99161280  1
  O  O327  1  0.99284447  0.37177915  0.48701373  1
  O  O328  1  1.00144849  0.38989044  1.00396120  1
  O  O329  1  0.98075454  0.86544536  0.49554649  1
  O  O330  1  1.00566533  0.88415407  0.99266270  1
  O  O331  1  0.49682241  0.49539132  0.38749110  1
  O  O332  1  0.49749378  0.50680450  0.89147976  1
  O  O333  1  0.50618716  0.99666423  0.37918795  1
  O  O334  1  0.49301607  0.98898122  0.87432763  1
  O  O335  1  1.00058721  0.48610470  0.36952044  1
  O  O336  1  1.00190206  0.51088216  0.88860793  1
  O  O337  1  0.98868184  1.00001127  0.37216094  1
  O  O338  1  0.99151822  0.99103189  0.87785273  1
  O  O339  1  0.00966436  -0.00066078  0.11606166  1
  O  O340  1  0.01059332  0.00810589  0.63477604  1
  O  O341  1  -0.00290654  0.51061685  0.11971070  1
  O  O342  1  0.00871501  0.51028459  0.62795746  1
  O  O343  1  0.51187873  0.00875336  0.12381382  1
  O  O344  1  0.50867192  0.00621264  0.62340345  1
  O  O345  1  0.50299299  0.50965726  0.11586055  1
  O  O346  1  0.50688716  0.49813755  0.61094841  1
  O  O347  1  0.23530446  0.37514580  0.25192111  1
  O  O348  1  0.24233144  0.38356959  0.74473077  1
  O  O349  1  0.24006562  0.87407057  0.25321089  1
  O  O350  1  0.24182912  0.88139201  0.75062144  1
  O  O351  1  0.74494502  0.38218592  0.24421590  1
  O  O352  1  0.73436296  0.37433512  0.73111488  1
  O  O353  1  0.74622382  0.87962981  0.24166902  1
  O  O354  1  0.73831318  0.87916971  0.75427677  1
  O  O355  1  0.25708286  0.12296398  0.25802833  1
  O  O356  1  0.24271267  0.11707510  0.76116856  1
  O  O357  1  0.26333171  0.61821624  0.24508104  1
  O  O358  1  0.25804214  0.61994908  0.75511267  1
  O  O359  1  0.75394391  0.11863554  0.25787987  1
  O  O360  1  0.74826027  0.11646439  0.74533123  1
  O  O361  1  0.75510317  0.61756248  0.25268576  1
  O  O362  1  0.75873229  0.63111242  0.75963939  1
  O  O363  1  0.36433655  0.13425860  0.36514929  1
  O  O364  1  0.37091892  0.12590806  0.86841392  1
  O  O365  1  0.38392739  0.62762608  0.36393422  1
  O  O366  1  0.36278907  0.63140475  0.86587476  1
  O  O367  1  0.86997106  0.11748664  0.37761441  1
  O  O368  1  0.88163821  0.11434449  0.87044122  1
  O  O369  1  0.86064358  0.63062045  0.36761915  1
  O  O370  1  0.86847250  0.62318326  0.86400823  1
  O  O371  1  0.12515982  0.36902498  0.13757937  1
  O  O372  1  0.12897530  0.37866467  0.63374840  1
  O  O373  1  0.12248885  0.88276339  0.13438613  1
  O  O374  1  0.12333209  0.88300616  0.63036477  1
  O  O375  1  0.63574917  0.37489061  0.13220541  1
  O  O376  1  0.62927976  0.38327851  0.62615302  1
  O  O377  1  0.63255075  0.88420163  0.12911305  1
  O  O378  1  0.61938304  0.88363121  0.63325685  1
  O  O379  1  0.11783347  0.25892328  0.25620557  1
  O  O380  1  0.11790992  0.25752807  0.75452237  1
  O  O381  1  0.11737243  0.75846083  0.24727749  1
  O  O382  1  0.11923945  0.75408568  0.75524976  1
  O  O383  1  0.63166199  0.26002724  0.26024672  1
  O  O384  1  0.61949424  0.26124975  0.74522594  1
  O  O385  1  0.61967601  0.75409168  0.25448900  1
  O  O386  1  0.61707431  0.75621343  0.75005522  1
  O  O387  1  0.37257283  0.24311526  0.23932731  1
  O  O388  1  0.37246807  0.24946601  0.74647180  1
  O  O389  1  0.38327769  0.74552027  0.24853772  1
  O  O390  1  0.37999885  0.74583634  0.74417367  1
  O  O391  1  0.88874094  0.25076842  0.25301560  1
  O  O392  1  0.87757527  0.24211703  0.74549038  1
  O  O393  1  0.88083421  0.73926030  0.24722936  1
  O  O394  1  0.87984105  0.74457534  0.73746260  1
  O  O395  1  0.38068719  0.49292231  0.50098285  1
  O  O396  1  0.38447994  0.48806503  1.00597734  1
  O  O397  1  0.37276502  0.98305961  0.50960285  1
  O  O398  1  0.37613791  0.99544551  0.99163505  1
  O  O399  1  0.87087073  0.48791250  0.50388413  1
  O  O400  1  0.89100073  0.50041878  0.99843712  1
  O  O401  1  0.87301081  0.98767134  0.49512281  1
  O  O402  1  0.88476472  1.00237942  0.99014172  1
  O  O403  1  0.12053802  0.00398382  0.00488519  1
  O  O404  1  0.12822955  0.00580281  0.51066012  1
  O  O405  1  0.11225252  0.50399419  0.00005375  1
  O  O406  1  0.13028044  0.49168286  0.51364893  1
  O  O407  1  0.62716690  0.00696468  0.01101506  1
  O  O408  1  0.62718283  0.00530384  0.50789023  1
  O  O409  1  0.61387515  0.50869612  0.00165106  1
  O  O410  1  0.61764588  0.50694936  0.50571854  1
  O  O411  1  0.37936333  0.36399856  0.12236066  1
  O  O412  1  0.37012716  0.36717780  0.61785637  1
  O  O413  1  0.38154488  0.87660625  0.11131187  1
  O  O414  1  0.37223655  0.86237405  0.61890956  1
  O  O415  1  0.86213085  0.37508344  0.12549521  1
  O  O416  1  0.86599275  0.37063503  0.61910691  1
  O  O417  1  0.86433148  0.87422648  0.12730108  1
  O  O418  1  0.87639629  0.86328910  0.61675973  1
  O  O419  1  0.12897083  0.13020176  0.38204634  1
  O  O420  1  0.13023849  0.12913173  0.88046981  1
  O  O421  1  0.13451927  0.63130528  0.36499446  1
  O  O422  1  0.13834329  0.63249944  0.87426400  1
  O  O423  1  0.63306859  0.13280514  0.37775003  1
  O  O424  1  0.62126827  0.11718200  0.89240156  1
  O  O425  1  0.63266883  0.63192787  0.37972918  1
  O  O426  1  0.63101697  0.62806051  0.88224348  1
