# generated using pymatgen
data_V85Zn86O256
_symmetry_space_group_name_H-M   'P 1'
_cell_length_a   16.93982566
_cell_length_b   16.94157968
_cell_length_c   16.93349820
_cell_angle_alpha   90.01668817
_cell_angle_beta   90.10991529
_cell_angle_gamma   89.91988045
_symmetry_Int_Tables_number   1
_chemical_formula_structural   V85Zn86O256
_chemical_formula_sum   'V85 Zn86 O256'
_cell_volume   4859.68682935
_cell_formula_units_Z   1
loop_
 _symmetry_equiv_pos_site_id
 _symmetry_equiv_pos_as_xyz
  1  'x, y, z'
loop_
 _atom_site_type_symbol
 _atom_site_label
 _atom_site_symmetry_multiplicity
 _atom_site_fract_x
 _atom_site_fract_y
 _atom_site_fract_z
 _atom_site_occupancy
  V  V0  1  0.49972634  0.12431470  0.11981108  1
  V  V1  1  0.25145943  0.62306549  0.87609206  1
  V  V2  1  0.88249570  0.86648698  0.50722239  1
  V  V3  1  0.24617540  0.25231256  -0.00556437  1
  V  V4  1  0.62603794  0.36584325  0.75736271  1
  V  V5  1  0.00958227  0.75772163  0.26125817  1
  V  V6  1  0.49834830  0.62574526  0.12453202  1
  V  V7  1  -0.00198204  0.62264024  0.12663976  1
  V  V8  1  0.25047648  -0.00174766  0.75599621  1
  V  V9  1  0.24714801  0.13114484  0.87054419  1
  V  V10  1  0.50013611  0.75304385  0.25487551  1
  V  V11  1  0.87684768  0.49824263  0.38209019  1
  V  V12  1  0.24633267  0.25232234  0.49683455  1
  V  V13  1  0.24826130  0.75861987  0.00005053  1
  V  V14  1  0.25241860  0.36826911  0.12508972  1
  V  V15  1  0.37135523  0.74973891  0.62939815  1
  V  V16  1  0.49871922  0.25057645  0.24394471  1
  V  V17  1  0.63034906  0.13521969  -0.00431990  1
  V  V18  1  0.87403627  0.24939401  0.11578246  1
  V  V19  1  0.62838209  0.12094305  0.50150281  1
  V  V20  1  0.37127254  0.75673257  0.12550594  1
  V  V21  1  0.24818389  0.50009352  0.24777381  1
  V  V22  1  0.64118307  0.62011636  0.49599173  1
  V  V23  1  0.75760561  0.62264200  0.87609724  1
  V  V24  1  0.37344520  0.00082391  0.37425617  1
  V  V25  1  0.75089617  0.37297015  0.12128308  1
  V  V26  1  0.50032064  0.36732144  0.87733550  1
  V  V27  1  0.75644863  0.49684392  0.75513138  1
  V  V28  1  0.49986452  0.00108563  0.50302646  1
  V  V29  1  0.37420915  0.12932224  0.24255902  1
  V  V30  1  0.11522089  0.62003131  0.50950383  1
  V  V31  1  0.74793658  0.87954031  0.12826232  1
  V  V32  1  0.12403579  0.12852481  0.49569181  1
  V  V33  1  0.63986944  0.74911774  0.37339732  1
  V  V34  1  0.87804873  0.24679877  0.62681679  1
  V  V35  1  0.37948479  0.62294525  0.75538954  1
  V  V36  1  0.86862436  0.12781942  0.25504780  1
  V  V37  1  0.86845007  -0.00206593  0.37524435  1
  V  V38  1  0.37431795  0.37545840  0.50065259  1
  V  V39  1  0.11987170  0.87474909  0.75861134  1
  V  V40  1  0.87132922  0.62718202  0.25701188  1
  V  V41  1  0.11138400  0.75032025  0.87570525  1
  V  V42  1  0.62681039  0.49678878  0.62711578  1
  V  V43  1  0.74969065  0.37357041  0.62713725  1
  V  V44  1  0.12399521  0.62455590  -0.00071614  1
  V  V45  1  0.70638426  0.80514846  0.55227665  1
  V  V46  1  0.74430682  0.75387806  -0.00094331  1
  V  V47  1  0.74920747  0.50356229  0.25607888  1
  V  V48  1  0.62317264  0.50147182  0.12585937  1
  V  V49  1  0.62404485  0.75099968  0.85428420  1
  V  V50  1  0.00109715  0.11448754  0.12504415  1
  V  V51  1  0.00631612  0.25043828  0.25024816  1
  V  V52  1  0.12520892  -0.00337366  0.62322757  1
  V  V53  1  0.12577915  0.12374305  0.00245578  1
  V  V54  1  0.87564179  0.11678263  0.75093282  1
  V  V55  1  0.00570585  0.37333606  0.38122933  1
  V  V56  1  0.74684308  0.13524183  0.87333194  1
  V  V57  1  0.49929335  0.50115555  0.49954035  1
  V  V58  1  0.87357968  0.75116085  0.12757812  1
  V  V59  1  0.50408425  0.87259140  0.85765420  1
  V  V60  1  0.23680812  0.62840511  0.37433868  1
  V  V61  1  0.37282734  0.37530482  -0.00182720  1
  V  V62  1  0.24715257  0.12862036  0.37181415  1
  V  V63  1  0.49380393  0.50263422  -0.00823441  1
  V  V64  1  0.75413079  0.24597933  0.49535118  1
  V  V65  1  0.50111712  0.12618297  0.62731308  1
  V  V66  1  0.12329063  0.49753970  0.12447077  1
  V  V67  1  0.49916967  0.62596825  0.62674276  1
  V  V68  1  0.12638951  0.36609965  0.75741431  1
  V  V69  1  -0.01075200  0.49992791  -0.00720478  1
  V  V70  1  0.73238063  -0.01639541  0.74250394  1
  V  V71  1  -0.00160153  0.36508130  0.87944580  1
  V  V72  1  0.37185961  0.62759695  0.25160221  1
  V  V73  1  0.62964854  0.24491542  0.37300877  1
  V  V74  1  0.24356742  0.75041622  0.49771515  1
  V  V75  1  0.37309477  0.50139709  0.37422107  1
  V  V76  1  0.00255539  -0.00211215  0.49062122  1
  V  V77  1  0.24826477  0.37838141  0.62557191  1
  V  V78  1  0.87860380  0.62449641  0.73685909  1
  V  V79  1  0.38033283  0.87694660  -0.00162398  1
  V  V80  1  0.49989274  0.37367400  0.37400996  1
  V  V81  1  0.25048182  0.50017510  0.75329090  1
  V  V82  1  0.00470346  -0.00968760  -0.01085540  1
  V  V83  1  0.13235681  0.88517623  0.25284544  1
  V  V84  1  -0.00554187  0.74815993  0.73067022  1
  Zn  Zn85  1  0.62629689  0.37483257  0.25133466  1
  Zn  Zn86  1  0.49999129  0.87445939  0.37636902  1
  Zn  Zn87  1  0.74459451  0.00829732  0.25060520  1
  Zn  Zn88  1  0.62366120  0.88120265  0.25182935  1
  Zn  Zn89  1  0.24927430  0.87461625  0.62443266  1
  Zn  Zn90  1  0.50087739  0.24624685  0.75368130  1
  Zn  Zn91  1  0.86976124  -0.00980104  0.87340842  1
  Zn  Zn92  1  0.00503916  0.24305438  0.75584645  1
  Zn  Zn93  1  0.10888123  0.49839324  0.62744055  1
  Zn  Zn94  1  0.62634090  0.00122080  0.12344858  1
  Zn  Zn95  1  0.50552639  -0.00121843  -0.00494883  1
  Zn  Zn96  1  0.87882256  0.87360834  -0.00293477  1
  Zn  Zn97  1  0.86528978  0.37556005  -0.00795102  1
  Zn  Zn98  1  0.37874466  0.00044015  0.87114308  1
  Zn  Zn99  1  0.37689194  0.25137524  0.62883261  1
  Zn  Zn100  1  0.87912712  0.37868642  0.50521985  1
  Zn  Zn101  1  0.00203488  0.12477083  0.62672697  1
  Zn  Zn102  1  0.36965149  0.87619905  0.49940724  1
  Zn  Zn103  1  0.62312712  0.62578278  -0.00381994  1
  Zn  Zn104  1  0.24968872  0.00158790  0.23349614  1
  Zn  Zn105  1  0.37620903  0.12679755  0.75062904  1
  Zn  Zn106  1  0.12667692  0.37059669  0.25261997  1
  Zn  Zn107  1  0.18654911  0.18600638  0.18302465  1
  Zn  Zn108  1  0.18925675  0.18838013  0.68225322  1
  Zn  Zn109  1  0.18595286  0.69093114  0.18456380  1
  Zn  Zn110  1  0.18564595  0.68852219  0.68782275  1
  Zn  Zn111  1  0.68676739  0.18918155  0.18264853  1
  Zn  Zn112  1  0.68912402  0.18213306  0.68550476  1
  Zn  Zn113  1  0.68736056  0.68723285  0.18902024  1
  Zn  Zn114  1  0.69350330  0.68000535  0.68348612  1
  Zn  Zn115  1  0.31251630  0.31055850  0.31195986  1
  Zn  Zn116  1  0.31837986  0.31196127  0.81496918  1
  Zn  Zn117  1  0.30702350  0.81484675  0.31379292  1
  Zn  Zn118  1  0.30959964  0.81144624  0.81309567  1
  Zn  Zn119  1  0.81542796  0.31443241  0.30915160  1
  Zn  Zn120  1  0.81840402  0.30919755  0.81260111  1
  Zn  Zn121  1  0.81719572  0.81822560  0.31487177  1
  Zn  Zn122  1  0.81716285  0.81418027  0.81049908  1
  Zn  Zn123  1  0.18368897  0.44150417  0.43685112  1
  Zn  Zn124  1  0.18303555  0.43982562  0.93649558  1
  Zn  Zn125  1  0.18594058  0.93584866  0.42873834  1
  Zn  Zn126  1  0.18578136  0.93680285  1.06863600  1
  Zn  Zn127  1  0.69009912  0.43296129  0.43779568  1
  Zn  Zn128  1  0.68284210  0.43924309  0.93886832  1
  Zn  Zn129  1  0.68628514  0.94143450  0.43126893  1
  Zn  Zn130  1  0.68778438  0.94247977  0.93394959  1
  Zn  Zn131  1  0.32030731  0.06676812  0.05626414  1
  Zn  Zn132  1  0.31267786  0.06382159  0.56393488  1
  Zn  Zn133  1  0.31271122  0.56366443  0.06259184  1
  Zn  Zn134  1  0.30868168  0.56290171  0.56322123  1
  Zn  Zn135  1  0.81534785  0.06207650  0.05953289  1
  Zn  Zn136  1  0.81249858  0.05940401  0.56464601  1
  Zn  Zn137  1  0.80951663  0.56447409  0.06545927  1
  Zn  Zn138  1  0.93791194  0.56127293  0.56269749  1
  Zn  Zn139  1  0.43521824  0.43659598  0.18457277  1
  Zn  Zn140  1  0.43658489  0.43881739  0.69096667  1
  Zn  Zn141  1  0.43602454  0.94089480  0.18651163  1
  Zn  Zn142  1  0.43589591  0.93969930  0.68370043  1
  Zn  Zn143  1  0.93577005  0.43595739  0.18944865  1
  Zn  Zn144  1  0.93517082  0.43204633  0.69659675  1
  Zn  Zn145  1  0.93632036  0.93592595  0.18923640  1
  Zn  Zn146  1  0.94000664  0.93644125  0.68582975  1
  Zn  Zn147  1  0.06099653  0.06204762  0.31173001  1
  Zn  Zn148  1  0.06663686  0.06393519  0.81501336  1
  Zn  Zn149  1  0.05882721  0.56093792  0.31221556  1
  Zn  Zn150  1  0.06034108  0.55995113  0.81070313  1
  Zn  Zn151  1  0.56204055  0.06333613  0.31316527  1
  Zn  Zn152  1  0.56747683  0.05903540  0.81190824  1
  Zn  Zn153  1  0.56236421  0.56585491  0.31423973  1
  Zn  Zn154  1  0.56662773  0.56016430  0.81323053  1
  Zn  Zn155  1  0.43664649  0.18755677  0.43632324  1
  Zn  Zn156  1  0.43115850  0.18952093  0.93997679  1
  Zn  Zn157  1  0.43457631  0.68718042  0.43926794  1
  Zn  Zn158  1  0.43996904  0.69195880  0.93462747  1
  Zn  Zn159  1  0.93908725  0.18775660  0.43548636  1
  Zn  Zn160  1  0.93535276  0.18236386  0.93683036  1
  Zn  Zn161  1  0.93646439  0.69009574  0.43322994  1
  Zn  Zn162  1  0.93213123  0.68762727  0.93843295  1
  Zn  Zn163  1  0.06279945  0.30963663  0.06293394  1
  Zn  Zn164  1  0.06361729  0.31408155  0.56530234  1
  Zn  Zn165  1  0.06115524  0.80976871  0.06980089  1
  Zn  Zn166  1  0.06510071  0.81403495  0.55759337  1
  Zn  Zn167  1  0.56379653  0.31340876  0.06264316  1
  Zn  Zn168  1  0.56397085  0.30917756  0.56291283  1
  Zn  Zn169  1  0.56284903  0.81356376  0.06344395  1
  Zn  Zn170  1  0.54389968  0.81178860  0.56310451  1
  O  O171  1  0.11542911  0.12964222  0.11256310  1
  O  O172  1  0.12607911  0.11778367  0.61211813  1
  O  O173  1  0.11876000  0.61952379  0.11793123  1
  O  O174  1  0.12785005  0.62104771  0.61257487  1
  O  O175  1  0.61951391  0.12451394  0.11423243  1
  O  O176  1  0.61361655  0.13089009  0.61269443  1
  O  O177  1  0.61878214  0.61480203  0.12532222  1
  O  O178  1  0.61768059  0.61965375  0.61482014  1
  O  O179  1  0.37909174  0.38134736  0.38005104  1
  O  O180  1  0.38188333  0.37893470  0.88886628  1
  O  O181  1  0.37357311  0.89060386  0.37333942  1
  O  O182  1  0.38804125  0.86815800  0.87990668  1
  O  O183  1  0.88403210  0.38194689  0.37608381  1
  O  O184  1  0.89073461  0.37314146  0.87674617  1
  O  O185  1  0.87709003  0.89170412  0.38173001  1
  O  O186  1  0.87013164  0.87677557  0.88485574  1
  O  O187  1  0.25685962  0.01413336  0.37278545  1
  O  O188  1  0.24985798  0.00828737  0.85946678  1
  O  O189  1  0.25350865  0.50698479  0.36746607  1
  O  O190  1  0.24578070  0.51449532  0.87020064  1
  O  O191  1  0.76446495  0.00311137  0.37179094  1
  O  O192  1  0.74920945  0.00796291  0.85981757  1
  O  O193  1  0.75745035  0.49077336  0.36249383  1
  O  O194  1  0.74039435  0.51127631  0.86823585  1
  O  O195  1  0.24370113  0.49294862  0.12832396  1
  O  O196  1  0.24775985  0.48955021  0.63240971  1
  O  O197  1  0.25527592  1.00532872  0.12111820  1
  O  O198  1  0.23912518  1.00121675  0.63209714  1
  O  O199  1  0.74151185  0.49779695  0.13509770  1
  O  O200  1  0.74161360  0.48704468  0.63822571  1
  O  O201  1  0.75277036  0.99207773  0.12764591  1
  O  O202  1  0.75201203  1.00911814  0.64501038  1
  O  O203  1  0.00089955  0.36580430  0.25621527  1
  O  O204  1  0.00763449  0.37021610  0.76501710  1
  O  O205  1  0.00711364  0.86249150  0.24311060  1
  O  O206  1  0.00552047  0.85913504  0.74470598  1
  O  O207  1  0.49928975  0.36721116  0.25388845  1
  O  O208  1  0.50721307  0.37782304  0.76101851  1
  O  O209  1  0.49850196  0.86289050  0.25074727  1
  O  O210  1  0.49501448  0.87222945  0.75886088  1
  O  O211  1  0.49385105  0.13203525  0.24242704  1
  O  O212  1  0.50234151  0.12442032  0.74122940  1
  O  O213  1  0.49258647  0.63560340  0.24699315  1
  O  O214  1  0.49012621  0.61412959  0.74212419  1
  O  O215  1  0.99406913  0.13072384  0.24252896  1
  O  O216  1  0.99417844  0.12594873  0.74976443  1
  O  O217  1  0.99466525  0.63451940  0.24431781  1
  O  O218  1  0.99294132  0.63701982  0.75600126  1
  O  O219  1  0.35969961  0.26093109  -0.00042178  1
  O  O220  1  0.36297929  0.25747901  0.49883777  1
  O  O221  1  0.36915273  0.75497524  0.00567568  1
  O  O222  1  0.36298833  0.74681770  0.51104811  1
  O  O223  1  0.87903646  0.25157801  0.01249819  1
  O  O224  1  0.86829899  0.24886596  0.50653916  1
  O  O225  1  0.86218929  0.74729881  0.01054000  1
  O  O226  1  0.88014864  0.76731148  0.49306808  1
  O  O227  1  0.13707828  0.24321730  0.50459167  1
  O  O228  1  0.13741395  0.24295789  1.00356448  1
  O  O229  1  0.13507197  0.73731526  0.50342770  1
  O  O230  1  0.13067466  0.74584720  0.99471462  1
  O  O231  1  0.63269055  0.24322713  0.49252730  1
  O  O232  1  0.62444971  0.23536158  1.00407859  1
  O  O233  1  0.63315015  0.74281377  0.49600524  1
  O  O234  1  0.63643472  0.74608618  1.00137091  1
  O  O235  1  0.50582046  0.24320407  0.13730933  1
  O  O236  1  0.49740165  0.24083095  0.62562543  1
  O  O237  1  0.49330551  0.74357964  0.13209736  1
  O  O238  1  0.48835899  0.73402270  0.62187767  1
  O  O239  1  0.99229579  0.24335548  0.13107980  1
  O  O240  1  0.98814944  0.24974387  0.62632878  1
  O  O241  1  0.98611997  0.74223586  0.12849802  1
  O  O242  1  1.00379523  0.74643675  0.63281877  1
  O  O243  1  -0.00572648  0.26356140  0.36545663  1
  O  O244  1  0.00088503  0.26097221  0.87882674  1
  O  O245  1  0.00028661  0.75025697  0.35882592  1
  O  O246  1  0.01002018  0.74593897  0.87698881  1
  O  O247  1  0.50563708  0.25404592  0.36549709  1
  O  O248  1  0.49639733  0.26360414  0.87727601  1
  O  O249  1  0.50342270  0.75008484  0.36846467  1
  O  O250  1  0.51592480  0.75558407  0.87375423  1
  O  O251  1  0.24526282  0.13335583  0.49353230  1
  O  O252  1  0.24542965  0.13400419  0.99337018  1
  O  O253  1  0.24144595  0.62967159  0.49290887  1
  O  O254  1  0.24683138  0.63248019  0.99263138  1
  O  O255  1  0.74220105  0.13594050  0.50494943  1
  O  O256  1  0.74203872  0.12005140  0.98645097  1
  O  O257  1  0.73594711  0.61564996  0.49953416  1
  O  O258  1  0.74775119  0.63129658  0.99235844  1
  O  O259  1  0.25339311  0.37266838  0.00318742  1
  O  O260  1  0.25033853  0.37104795  0.50526063  1
  O  O261  1  0.25994460  0.86306711  -0.00204760  1
  O  O262  1  0.24860407  0.86527266  0.49894020  1
  O  O263  1  0.75001975  0.38557184  0.01507186  1
  O  O264  1  0.75184189  0.36270680  0.50805523  1
  O  O265  1  0.74806057  0.86867681  0.01113764  1
  O  O266  1  0.76124184  0.87447420  0.49486096  1
  O  O267  1  0.13075576  0.49958343  0.24083567  1
  O  O268  1  0.13586491  0.49203241  0.74935098  1
  O  O269  1  0.12544366  0.99037077  0.24872691  1
  O  O270  1  0.12678344  0.99181198  0.74272028  1
  O  O271  1  0.63094420  0.50071898  0.24579781  1
  O  O272  1  0.63337382  0.49067526  0.74602147  1
  O  O273  1  0.62769943  1.00005881  0.24677946  1
  O  O274  1  0.63219616  0.99250556  0.74680711  1
  O  O275  1  0.37492387  0.01321344  0.25611239  1
  O  O276  1  0.36463288  0.00344913  0.74951657  1
  O  O277  1  0.36785047  0.50673305  0.25305438  1
  O  O278  1  0.36002807  0.50821892  0.74758916  1
  O  O279  1  0.87737179  0.00690288  0.26145015  1
  O  O280  1  0.87815279  0.01003651  0.75041390  1
  O  O281  1  0.86780024  0.50822346  0.25511872  1
  O  O282  1  0.86224078  0.50478727  0.75337338  1
  O  O283  1  0.11074925  0.38011077  0.37170479  1
  O  O284  1  0.11443240  0.37709818  0.86869465  1
  O  O285  1  0.12421421  0.87379024  0.35427048  1
  O  O286  1  0.12816799  0.86308212  0.85995592  1
  O  O287  1  0.61738300  0.36411771  0.37408348  1
  O  O288  1  0.61517494  0.37778051  0.86899392  1
  O  O289  1  0.62152404  0.86432338  0.37309922  1
  O  O290  1  0.61488988  0.86149921  0.87769820  1
  O  O291  1  0.38585090  0.12897388  0.13135565  1
  O  O292  1  0.38827421  0.12743265  0.62384198  1
  O  O293  1  0.37889226  0.63442966  0.13189232  1
  O  O294  1  0.38002114  0.62672984  0.63345177  1
  O  O295  1  0.88188008  0.13219323  0.13042709  1
  O  O296  1  0.87849320  0.13036866  0.63203058  1
  O  O297  1  0.87689281  0.63134300  0.13677895  1
  O  O298  1  0.87278426  0.62083128  0.63765536  1
  O  O299  1  0.24654921  0.26373412  0.11901588  1
  O  O300  1  0.25325220  0.26209252  0.61666191  1
  O  O301  1  0.26059479  0.74282290  0.11350733  1
  O  O302  1  0.25445250  0.74928383  0.61702040  1
  O  O303  1  0.75962581  0.26137725  0.13038925  1
  O  O304  1  0.75978771  0.25267596  0.61957695  1
  O  O305  1  0.75697767  0.75384846  0.12041569  1
  O  O306  1  0.75626994  0.74673954  0.61517087  1
  O  O307  1  0.25213445  0.23864956  0.38114171  1
  O  O308  1  0.25003830  0.24423749  0.88143363  1
  O  O309  1  0.25629419  0.73827076  0.38378588  1
  O  O310  1  0.24066017  0.74080285  0.88097178  1
  O  O311  1  0.74265018  0.25666764  0.38248845  1
  O  O312  1  0.75417137  0.23461269  0.87301655  1
  O  O313  1  0.73941934  0.75048579  0.36681719  1
  O  O314  1  0.73891458  0.74612644  0.88085002  1
  O  O315  1  0.00829639  0.11973267  0.00476797  1
  O  O316  1  0.00970613  0.11976164  0.50085319  1
  O  O317  1  0.00198417  0.61759688  0.00493228  1
  O  O318  1  0.01094408  0.62799850  0.49674098  1
  O  O319  1  0.50651845  0.12665149  0.00446402  1
  O  O320  1  0.50688620  0.12122687  0.50450690  1
  O  O321  1  0.49877489  0.61902811  0.00474584  1
  O  O322  1  0.50173054  0.61678946  0.50811201  1
  O  O323  1  0.49551277  0.38041164  0.49483495  1
  O  O324  1  0.49281676  0.38069704  0.99731958  1
  O  O325  1  0.49124707  0.88549349  0.49571774  1
  O  O326  1  0.49131926  0.87140292  0.99181114  1
  O  O327  1  0.99871585  0.36837221  0.48535737  1
  O  O328  1  1.00094593  0.38108991  0.99147231  1
  O  O329  1  0.99305278  0.88349214  0.49961977  1
  O  O330  1  1.00270218  0.88834274  1.00731182  1
  O  O331  1  0.49386028  0.49485416  0.37899063  1
  O  O332  1  0.50516422  0.49340322  0.88788840  1
  O  O333  1  0.49044138  1.00290455  0.38450618  1
  O  O334  1  0.50058306  0.98402621  0.87321871  1
  O  O335  1  0.99020553  0.48456963  0.36592799  1
  O  O336  1  1.00482995  0.48983853  0.88563004  1
  O  O337  1  0.99313815  1.00411785  0.38587400  1
  O  O338  1  1.00239475  1.00021951  0.88769930  1
  O  O339  1  -0.00611363  0.01214966  0.12084907  1
  O  O340  1  0.01259013  0.00203388  0.61511495  1
  O  O341  1  0.00511384  0.50385800  0.12096404  1
  O  O342  1  -0.00349995  0.49190512  0.62657426  1
  O  O343  1  0.50008754  0.01419654  0.12198244  1
  O  O344  1  0.49607605  0.00682051  0.61036207  1
  O  O345  1  0.50606242  0.50559226  0.12082446  1
  O  O346  1  0.50556714  0.50658108  0.62031612  1
  O  O347  1  0.24950469  0.37883502  0.24205157  1
  O  O348  1  0.24604102  0.38099086  0.74726393  1
  O  O349  1  0.23851696  0.87967100  0.24960401  1
  O  O350  1  0.24147564  0.88181116  0.74803717  1
  O  O351  1  0.74884157  0.38420990  0.23889800  1
  O  O352  1  0.74508549  0.37861887  0.75128312  1
  O  O353  1  0.75101304  0.87501334  0.23735048  1
  O  O354  1  0.75215954  0.88463211  0.74761213  1
  O  O355  1  0.25638999  0.12780970  0.25506862  1
  O  O356  1  0.24714998  0.12007263  0.75542990  1
  O  O357  1  0.25152762  0.62283959  0.25693417  1
  O  O358  1  0.25309913  0.61868113  0.75670730  1
  O  O359  1  0.76514058  0.12808353  0.24443583  1
  O  O360  1  0.75497015  0.12233148  0.76011101  1
  O  O361  1  0.75919077  0.61702951  0.24798098  1
  O  O362  1  0.75664287  0.61607902  0.75550954  1
  O  O363  1  0.36842278  0.11854602  0.36798420  1
  O  O364  1  0.36114376  0.12155073  0.87548819  1
  O  O365  1  0.36614170  0.61898824  0.36943779  1
  O  O366  1  0.36811145  0.63338715  0.86332640  1
  O  O367  1  0.88196483  0.11452908  0.36599723  1
  O  O368  1  0.86425989  0.11969283  0.86930305  1
  O  O369  1  0.88160805  0.61613709  0.36376014  1
  O  O370  1  0.86062205  0.63146966  0.86684785  1
  O  O371  1  0.13226028  0.38227246  0.12575091  1
  O  O372  1  0.13316170  0.37779700  0.63341158  1
  O  O373  1  0.12729971  0.86795328  0.13905946  1
  O  O374  1  0.12740142  0.88189419  0.63223450  1
  O  O375  1  0.62903450  0.38661203  0.12792869  1
  O  O376  1  0.62946999  0.37828679  0.63223330  1
  O  O377  1  0.63292485  0.87725278  0.12912264  1
  O  O378  1  0.64020520  0.85837907  0.60443697  1
  O  O379  1  0.11082061  0.24931424  0.24517815  1
  O  O380  1  0.12503488  0.26228896  0.74449413  1
  O  O381  1  0.11322995  0.75312112  0.24643660  1
  O  O382  1  0.11362189  0.75186589  0.75534586  1
  O  O383  1  0.61844319  0.25033924  0.25702339  1
  O  O384  1  0.62436389  0.26313658  0.74488011  1
  O  O385  1  0.61571084  0.74766855  0.25842220  1
  O  O386  1  0.63002921  0.74687890  0.75633522  1
  O  O387  1  0.38401544  0.23799114  0.25592693  1
  O  O388  1  0.38083915  0.24645497  0.74723659  1
  O  O389  1  0.37809331  0.74840919  0.24341389  1
  O  O390  1  0.36511805  0.73825866  0.73757681  1
  O  O391  1  0.88464597  0.24353028  0.24317169  1
  O  O392  1  0.87756520  0.23647817  0.74300335  1
  O  O393  1  0.88214300  0.74551351  0.24613845  1
  O  O394  1  0.88839359  0.74251001  0.74999007  1
  O  O395  1  0.37792255  0.49544313  0.49434562  1
  O  O396  1  0.38513181  0.49432332  1.00568554  1
  O  O397  1  0.37990980  1.00205503  0.49138518  1
  O  O398  1  0.38127648  0.98810154  0.99240542  1
  O  O399  1  0.87303626  0.50043265  0.48543523  1
  O  O400  1  0.88630795  0.49868094  1.00765247  1
  O  O401  1  0.88198972  0.99858206  0.49058234  1
  O  O402  1  0.89353528  1.00264459  0.99841878  1
  O  O403  1  0.11226449  0.00796610  0.00560552  1
  O  O404  1  0.12110898  0.00402254  0.50352548  1
  O  O405  1  0.11701348  0.50649816  0.00774040  1
  O  O406  1  0.12844795  0.51629138  0.50411463  1
  O  O407  1  0.62239720  0.01274392  0.00164499  1
  O  O408  1  0.61688359  0.01301812  0.49034881  1
  O  O409  1  0.61421881  0.50428992  0.01009006  1
  O  O410  1  0.62075575  0.50650467  0.50260091  1
  O  O411  1  0.36481192  0.38021381  0.11230194  1
  O  O412  1  0.36694477  0.37696141  0.61813466  1
  O  O413  1  0.38225437  0.86380141  0.11590333  1
  O  O414  1  0.37144646  0.86350509  0.62277174  1
  O  O415  1  0.86769645  0.36738149  0.12357628  1
  O  O416  1  0.86686124  0.36431098  0.62661268  1
  O  O417  1  0.86899900  0.86568915  0.12164871  1
  O  O418  1  0.87794917  0.88092756  0.60586909  1
  O  O419  1  0.13240802  0.12052262  0.38611454  1
  O  O420  1  0.13733921  0.12133929  0.88756706  1
  O  O421  1  0.13300027  0.61904034  0.38300941  1
  O  O422  1  0.13136239  0.63096287  0.88030045  1
  O  O423  1  0.61982148  0.13878510  0.38338390  1
  O  O424  1  0.63563820  0.12530761  0.88201803  1
  O  O425  1  0.61875768  0.63274798  0.39025362  1
  O  O426  1  0.63171694  0.63813303  0.87380764  1
