# generated using pymatgen
data_V85Zn86O256
_symmetry_space_group_name_H-M   'P 1'
_cell_length_a   16.97978946
_cell_length_b   16.97426290
_cell_length_c   16.97527394
_cell_angle_alpha   90.12140826
_cell_angle_beta   90.10871342
_cell_angle_gamma   90.05750778
_symmetry_Int_Tables_number   1
_chemical_formula_structural   V85Zn86O256
_chemical_formula_sum   'V85 Zn86 O256'
_cell_volume   4892.58116889
_cell_formula_units_Z   1
loop_
 _symmetry_equiv_pos_site_id
 _symmetry_equiv_pos_as_xyz
  1  'x, y, z'
loop_
 _atom_site_type_symbol
 _atom_site_label
 _atom_site_symmetry_multiplicity
 _atom_site_fract_x
 _atom_site_fract_y
 _atom_site_fract_z
 _atom_site_occupancy
  V  V0  1  0.37958551  0.87914460  0.49687110  1
  V  V1  1  0.86305762  0.25087077  0.10877858  1
  V  V2  1  0.01082974  0.88575192  0.36566653  1
  V  V3  1  0.37826849  0.62355674  0.74873910  1
  V  V4  1  0.87935818  -0.00436127  0.89088375  1
  V  V5  1  0.75306991  0.87432922  0.62466596  1
  V  V6  1  0.12860070  0.37300757  0.74701251  1
  V  V7  1  0.37644654  0.12230876  0.74965940  1
  V  V8  1  0.24652066  0.12621648  0.37688096  1
  V  V9  1  0.50350221  0.74692120  0.75145305  1
  V  V10  1  0.62094856  -0.00315198  0.12655052  1
  V  V11  1  0.00877206  0.62471837  0.62531843  1
  V  V12  1  0.62471420  0.37551543  0.74954450  1
  V  V13  1  0.87813772  0.51740782  0.37534218  1
  V  V14  1  0.49992596  0.36760062  0.36802886  1
  V  V15  1  0.75680054  0.74268816  0.49509217  1
  V  V16  1  0.12225130  0.12313039  0.00135035  1
  V  V17  1  -0.00267187  0.11584438  0.11941074  1
  V  V18  1  0.62600830  0.13243384  0.00258710  1
  V  V19  1  0.50359950  0.62320814  0.62843033  1
  V  V20  1  0.00129800  0.87791645  0.88904738  1
  V  V21  1  0.87564150  0.12112808  0.75156386  1
  V  V22  1  0.36713310  0.62770568  0.25379082  1
  V  V23  1  0.24875421  0.13127458  0.88117041  1
  V  V24  1  -0.00099347  0.12130784  0.62402930  1
  V  V25  1  0.61958577  0.87711661  0.25665281  1
  V  V26  1  0.62848092  0.62442346  0.50204232  1
  V  V27  1  -0.00413541  0.24615217  0.24825786  1
  V  V28  1  0.63001951  0.74494784  0.88375129  1
  V  V29  1  0.25033556  0.00001510  0.74971856  1
  V  V30  1  0.76538418  0.75073810  -0.00757786  1
  V  V31  1  0.37000950  0.24893400  0.62493296  1
  V  V32  1  0.12237330  0.87178767  0.74885597  1
  V  V33  1  0.75188139  -0.00179856  0.25382522  1
  V  V34  1  0.37392671  -0.00025146  0.87525239  1
  V  V35  1  0.74919680  0.87314522  0.11847579  1
  V  V36  1  0.13448456  0.75257666  0.87890458  1
  V  V37  1  0.88396328  0.75854747  0.14412753  1
  V  V38  1  0.00171401  0.50310391  0.50096132  1
  V  V39  1  0.49998396  0.87593137  0.87561643  1
  V  V40  1  0.49867736  0.37143461  0.87945042  1
  V  V41  1  0.75171526  0.37772871  0.62709862  1
  V  V42  1  0.87467253  0.24868132  0.62437351  1
  V  V43  1  0.50238246  0.49349714  0.50399683  1
  V  V44  1  0.12223175  0.37573480  0.24317295  1
  V  V45  1  0.37905261  -0.00054402  0.37624836  1
  V  V46  1  0.25269115  0.49660301  0.74575649  1
  V  V47  1  0.49629010  0.50241391  0.00946450  1
  V  V48  1  0.37719889  0.49880773  0.87581307  1
  V  V49  1  0.35924252  0.25048567  0.11975945  1
  V  V50  1  0.24614076  0.49581333  0.24445291  1
  V  V51  1  0.74363170  0.24731079  0.50002331  1
  V  V52  1  0.25235198  0.62885318  0.87518844  1
  V  V53  1  0.62514829  0.24740808  0.36631104  1
  V  V54  1  0.12183867  0.00030905  0.62095698  1
  V  V55  1  0.62457212  0.75794016  0.37540678  1
  V  V56  1  0.50185333  0.24402204  0.75106681  1
  V  V57  1  0.74952007  0.12357407  0.37863108  1
  V  V58  1  0.75121207  -0.00048524  0.75211143  1
  V  V59  1  0.62758583  0.87370906  0.75094718  1
  V  V60  1  0.87949004  0.74805491  0.62293528  1
  V  V61  1  0.11754452  0.12470606  0.49917189  1
  V  V62  1  0.75146061  0.12883704  0.88154961  1
  V  V63  1  -0.00491988  0.37324523  0.37576437  1
  V  V64  1  0.37237171  0.74840172  0.61906581  1
  V  V65  1  0.37335867  0.75287402  0.12381504  1
  V  V66  1  0.49916462  -0.00380064  0.00303311  1
  V  V67  1  0.87231671  0.62144836  0.75733999  1
  V  V68  1  0.88448810  0.88909154  0.49353741  1
  V  V69  1  0.12723557  0.74732593  0.37663673  1
  V  V70  1  0.24118210  0.87551309  0.13202743  1
  V  V71  1  0.49075797  0.75942582  0.26324635  1
  V  V72  1  -0.00628262  0.38921904  0.87776449  1
  V  V73  1  0.87339846  0.12253376  0.25260817  1
  V  V74  1  0.50636849  0.11904179  0.61023945  1
  V  V75  1  0.70088563  0.56963949  0.32335409  1
  V  V76  1  0.93908626  0.58426782  0.19456655  1
  V  V77  1  0.00254309  0.24817247  0.75483589  1
  V  V78  1  0.36856173  0.49721900  0.37717914  1
  V  V79  1  0.13120911  0.49741014  0.61878710  1
  V  V80  1  0.37502022  0.12990565  0.25117081  1
  V  V81  1  0.25001343  0.87116977  0.61949061  1
  V  V82  1  0.36701423  0.37001390  0.50254844  1
  V  V83  1  0.49817862  0.13539764  0.12824305  1
  V  V84  1  0.36694780  0.87176066  0.00030110  1
  Zn  Zn85  1  0.76723474  0.49477233  0.77782950  1
  Zn  Zn86  1  0.24115679  0.00025965  0.25005769  1
  Zn  Zn87  1  0.62862433  0.24872156  0.87917409  1
  Zn  Zn88  1  0.36217253  0.36637392  -0.00587818  1
  Zn  Zn89  1  0.00180714  0.75111709  0.75031922  1
  Zn  Zn90  1  0.63279125  0.50088400  0.62510460  1
  Zn  Zn91  1  0.62541445  0.00269538  0.61433111  1
  Zn  Zn92  1  0.50065100  0.62069823  0.12977370  1
  Zn  Zn93  1  0.72510233  0.42329608  0.12189406  1
  Zn  Zn94  1  0.86685080  0.39241608  -0.00415292  1
  Zn  Zn95  1  0.24391875  0.25126065  0.50562060  1
  Zn  Zn96  1  0.63424208  0.38037267  0.24775503  1
  Zn  Zn97  1  0.00438354  0.52780016  0.01617435  1
  Zn  Zn98  1  0.24771411  0.63180516  0.39246578  1
  Zn  Zn99  1  0.12181034  0.24970356  0.37701771  1
  Zn  Zn100  1  0.11301821  -0.01325826  0.12451415  1
  Zn  Zn101  1  0.65391593  0.59395351  0.02166345  1
  Zn  Zn102  1  0.13195993  0.26025702  0.88710849  1
  Zn  Zn103  1  0.12977668  0.62543373  0.00849221  1
  Zn  Zn104  1  0.23067835  0.37346355  0.10484666  1
  Zn  Zn105  1  0.87381105  0.37449161  0.49717650  1
  Zn  Zn106  1  0.54510648  0.94689058  0.44507034  1
  Zn  Zn107  1  0.18098935  0.18090437  0.19099470  1
  Zn  Zn108  1  0.18779397  0.18591059  0.69012395  1
  Zn  Zn109  1  0.17491488  0.69682522  0.19769343  1
  Zn  Zn110  1  0.18929224  0.68731302  0.55881747  1
  Zn  Zn111  1  0.68710435  0.18870203  0.18769656  1
  Zn  Zn112  1  0.68632248  0.18692819  0.68829555  1
  Zn  Zn113  1  0.71217858  0.64867762  0.15927403  1
  Zn  Zn114  1  0.69212000  0.68771388  0.68876881  1
  Zn  Zn115  1  0.30973361  0.30794155  0.31054743  1
  Zn  Zn116  1  0.31222745  0.31163096  0.80937351  1
  Zn  Zn117  1  0.30087631  0.81464471  0.31732989  1
  Zn  Zn118  1  0.31393237  0.81265498  0.80513639  1
  Zn  Zn119  1  0.80762395  0.32061372  0.30043498  1
  Zn  Zn120  1  0.81478159  0.30908030  0.81315192  1
  Zn  Zn121  1  0.81245667  0.81544154  0.31643904  1
  Zn  Zn122  1  0.81995695  0.81247396  0.81176265  1
  Zn  Zn123  1  0.18512516  0.43347664  0.43402272  1
  Zn  Zn124  1  0.18201097  0.44443732  0.93856762  1
  Zn  Zn125  1  0.18930397  0.93899300  0.43879809  1
  Zn  Zn126  1  0.18510997  0.94224352  0.94183027  1
  Zn  Zn127  1  0.68645368  0.42863740  0.44091157  1
  Zn  Zn128  1  0.69051790  0.43171524  0.93988142  1
  Zn  Zn129  1  0.70748224  0.93502408  0.43867873  1
  Zn  Zn130  1  0.68714943  0.93802419  0.93869308  1
  Zn  Zn131  1  0.30869373  0.06124674  0.06192920  1
  Zn  Zn132  1  0.31161629  0.06184413  0.56008158  1
  Zn  Zn133  1  0.27373337  0.58876418  0.08741507  1
  Zn  Zn134  1  0.31844760  0.55437954  0.56702732  1
  Zn  Zn135  1  0.80952151  0.06260228  0.06711730  1
  Zn  Zn136  1  0.80735266  0.06328196  0.56429812  1
  Zn  Zn137  1  0.82390301  0.56745321  0.04505448  1
  Zn  Zn138  1  0.81815176  0.56178268  0.56444115  1
  Zn  Zn139  1  0.43248832  0.43210951  0.18857758  1
  Zn  Zn140  1  0.43989228  0.43199976  0.68769793  1
  Zn  Zn141  1  0.43284670  0.94020226  0.19072549  1
  Zn  Zn142  1  0.43978438  0.93704139  0.68516702  1
  Zn  Zn143  1  0.92450079  0.42401872  0.19212434  1
  Zn  Zn144  1  0.93929271  0.43706406  0.68997255  1
  Zn  Zn145  1  0.93549039  0.93594532  0.18900512  1
  Zn  Zn146  1  0.93824573  0.93701605  0.68809967  1
  Zn  Zn147  1  0.06139979  0.05339703  0.31062490  1
  Zn  Zn148  1  0.06378967  0.05888953  0.81451752  1
  Zn  Zn149  1  0.07127659  0.56334952  0.31870676  1
  Zn  Zn150  1  0.06763645  0.56601707  0.80967014  1
  Zn  Zn151  1  0.56320558  0.06964186  0.30977560  1
  Zn  Zn152  1  0.56582881  0.06074498  0.81301039  1
  Zn  Zn153  1  0.53825077  0.56703506  0.31870550  1
  Zn  Zn154  1  0.59267349  0.54543229  0.83451854  1
  Zn  Zn155  1  0.43754587  0.18774223  0.43579876  1
  Zn  Zn156  1  0.43709366  0.18532412  0.94074150  1
  Zn  Zn157  1  0.43538709  0.68449325  0.44238295  1
  Zn  Zn158  1  0.43858648  0.68755162  0.93798783  1
  Zn  Zn159  1  0.93315597  0.18549856  0.43761403  1
  Zn  Zn160  1  0.94201451  0.18493123  0.93587753  1
  Zn  Zn161  1  0.95137017  0.69290862  0.43752973  1
  Zn  Zn162  1  0.94248943  0.69226751  0.93566840  1
  Zn  Zn163  1  0.05582633  0.30493596  0.05997730  1
  Zn  Zn164  1  0.06059110  0.31235860  0.56417350  1
  Zn  Zn165  1  0.04980898  0.76952241  0.04812952  1
  Zn  Zn166  1  0.06062844  0.81531258  0.55818989  1
  Zn  Zn167  1  0.56204345  0.31825716  0.06790020  1
  Zn  Zn168  1  0.56224577  0.30721743  0.56136240  1
  Zn  Zn169  1  0.58540287  0.77306611  0.08870710  1
  Zn  Zn170  1  0.56442426  0.81033403  0.56584823  1
  O  O171  1  0.11400800  0.12688130  0.11467101  1
  O  O172  1  0.12021882  0.11882178  0.61997479  1
  O  O173  1  0.17073587  0.62792431  0.11542391  1
  O  O174  1  0.11552095  0.61445101  0.62512138  1
  O  O175  1  0.61583638  0.11990229  0.12104208  1
  O  O176  1  0.61042434  0.12460006  0.62821927  1
  O  O177  1  0.60930114  0.65839987  0.11026422  1
  O  O178  1  0.62118237  0.62284296  0.62056401  1
  O  O179  1  0.38073520  0.37580073  0.38145669  1
  O  O180  1  0.38573537  0.37855717  0.86877365  1
  O  O181  1  0.36810039  0.88537103  0.38541118  1
  O  O182  1  0.38005276  0.87855397  0.87992663  1
  O  O183  1  0.88554476  0.38540748  0.37101069  1
  O  O184  1  0.88877418  0.37147889  0.87313034  1
  O  O185  1  0.88512309  0.87012967  0.38956993  1
  O  O186  1  0.89274210  0.88130088  0.87097646  1
  O  O187  1  0.25912084  0.01196911  0.37646864  1
  O  O188  1  0.25510068  0.00727091  0.86871618  1
  O  O189  1  0.26099568  0.49417161  0.37026902  1
  O  O190  1  0.25991153  0.50391443  0.86185322  1
  O  O191  1  0.74972195  0.00846194  0.36152589  1
  O  O192  1  0.75698370  0.00525959  0.86943339  1
  O  O193  1  0.75827599  0.50377122  0.38110007  1
  O  O194  1  0.70083446  0.51135750  0.86365081  1
  O  O195  1  0.26446546  0.48486387  0.14340238  1
  O  O196  1  0.24500567  0.49795565  0.63698882  1
  O  O197  1  0.25401067  0.98373034  0.12443204  1
  O  O198  1  0.24403661  0.99551591  0.63174085  1
  O  O199  1  0.73187723  0.54359349  0.10587977  1
  O  O200  1  0.75168788  0.48494135  0.62378645  1
  O  O201  1  0.74152652  0.99297542  0.13486779  1
  O  O202  1  0.74837616  0.99313628  0.63574573  1
  O  O203  1  0.00215330  0.36556031  0.25683843  1
  O  O204  1  0.00447335  0.36551003  0.75577340  1
  O  O205  1  -0.00355456  0.88164863  0.26738335  1
  O  O206  1  0.01023946  0.87521041  0.75348138  1
  O  O207  1  0.50013382  0.38315307  0.26713575  1
  O  O208  1  0.50383862  0.35894811  0.75402355  1
  O  O209  1  0.50312091  0.86900785  0.25189504  1
  O  O210  1  0.50946820  0.86889086  0.75284963  1
  O  O211  1  0.48930612  0.12129209  0.23861688  1
  O  O212  1  0.49639644  0.13286048  0.75107426  1
  O  O213  1  0.48212766  0.63466746  0.24950054  1
  O  O214  1  0.49762239  0.63013682  0.74505454  1
  O  O215  1  0.98985418  0.12975853  0.24641102  1
  O  O216  1  0.99682716  0.12985205  0.74623882  1
  O  O217  1  1.00604942  0.63156066  0.25063902  1
  O  O218  1  0.99418240  0.62864359  0.74038881  1
  O  O219  1  0.37271759  0.24466454  0.01564902  1
  O  O220  1  0.37409536  0.25420771  0.50790022  1
  O  O221  1  0.38490855  0.76067677  0.01109728  1
  O  O222  1  0.37984121  0.75614478  0.51349158  1
  O  O223  1  0.87561844  0.24333167  0.00830074  1
  O  O224  1  0.86465817  0.25192744  0.50689098  1
  O  O225  1  0.86681015  0.75803283  0.00224795  1
  O  O226  1  0.87208060  0.75039249  0.50884354  1
  O  O227  1  0.12527228  0.24153977  0.49992510  1
  O  O228  1  0.12183671  0.23248403  0.99834131  1
  O  O229  1  0.12828168  0.75632210  0.49371517  1
  O  O230  1  0.14080553  0.75550986  0.98074366  1
  O  O231  1  0.63843391  0.25441925  0.49062618  1
  O  O232  1  0.61453997  0.23510326  0.99998108  1
  O  O233  1  0.63099500  0.74584851  0.49209045  1
  O  O234  1  0.64209173  0.77071908  0.98956871  1
  O  O235  1  0.48982632  0.23678512  0.11986770  1
  O  O236  1  0.49413505  0.23755617  0.63143897  1
  O  O237  1  0.48443494  0.75340159  0.14506394  1
  O  O238  1  0.49565293  0.74333747  0.63216428  1
  O  O239  1  0.99030487  0.23658582  0.13219992  1
  O  O240  1  0.99513398  0.24262011  0.63514785  1
  O  O241  1  0.98254518  0.77222571  0.13677608  1
  O  O242  1  0.99577760  0.74170423  0.62456119  1
  O  O243  1  -0.00479036  0.25702790  0.36779490  1
  O  O244  1  0.00389665  0.25000188  0.86166581  1
  O  O245  1  0.01501235  0.76830656  0.38702011  1
  O  O246  1  0.01268306  0.76439601  0.86892392  1
  O  O247  1  0.51118346  0.25643208  0.38184051  1
  O  O248  1  0.49865244  0.25311852  0.86795047  1
  O  O249  1  0.50468668  0.74418827  0.37008737  1
  O  O250  1  0.50648872  0.75938825  0.87135401  1
  O  O251  1  0.23795377  0.12667181  0.49535024  1
  O  O252  1  0.24071075  0.12202670  0.99101268  1
  O  O253  1  0.25375539  0.61567745  0.50378999  1
  O  O254  1  0.26098016  0.62004313  0.97635261  1
  O  O255  1  0.75462443  0.13326107  0.49034942  1
  O  O256  1  0.73779704  0.11607190  0.99320542  1
  O  O257  1  0.74564757  0.63535765  0.50820431  1
  O  O258  1  0.75393293  0.64849967  0.98874416  1
  O  O259  1  0.24865498  0.37426122  -0.00588715  1
  O  O260  1  0.26301837  0.37124967  0.49574009  1
  O  O261  1  0.26415676  0.88039851  0.00373414  1
  O  O262  1  0.26155241  0.88331898  0.51444713  1
  O  O263  1  0.75425164  0.38683572  0.01477013  1
  O  O264  1  0.75401577  0.36598825  0.50954656  1
  O  O265  1  0.74954689  0.87720668  0.01449883  1
  O  O266  1  0.76545568  0.86078036  0.50544144  1
  O  O267  1  0.13474454  0.48880457  0.25800447  1
  O  O268  1  0.13439653  0.49427596  0.74059751  1
  O  O269  1  0.12924207  1.01148130  0.23494186  1
  O  O270  1  0.13158809  0.99412263  0.74095329  1
  O  O271  1  0.63190566  0.51723043  0.26988144  1
  O  O272  1  0.60654108  0.47817159  0.73801226  1
  O  O273  1  0.62995993  0.99701325  0.24463111  1
  O  O274  1  0.63701461  0.99201665  0.75010048  1
  O  O275  1  0.36912185  0.01215803  0.25767309  1
  O  O276  1  0.37137068  0.00329150  0.75574909  1
  O  O277  1  0.37185079  0.50573273  0.26108490  1
  O  O278  1  0.37293416  0.50003555  0.75468686  1
  O  O279  1  0.86458300  0.01386679  0.24326243  1
  O  O280  1  0.86492963  0.00269966  0.75560954  1
  O  O281  1  0.88515567  0.51585706  0.25564406  1
  O  O282  1  0.87610531  0.51459565  0.74710380  1
  O  O283  1  0.10982331  0.37174210  0.36744308  1
  O  O284  1  0.11388908  0.37362179  0.86070791  1
  O  O285  1  0.11675528  0.87412618  0.38173164  1
  O  O286  1  0.12005808  0.87697501  0.86807673  1
  O  O287  1  0.61806226  0.36736771  0.37096736  1
  O  O288  1  0.61222532  0.36645543  0.86780016  1
  O  O289  1  0.62249164  0.87154172  0.37515581  1
  O  O290  1  0.61974116  0.87463890  0.86434628  1
  O  O291  1  0.37693469  0.13106461  0.13106483  1
  O  O292  1  0.38583073  0.12760816  0.63017063  1
  O  O293  1  0.36941880  0.63635436  0.13736815  1
  O  O294  1  0.38367119  0.63106557  0.62961923  1
  O  O295  1  0.87904968  0.13151286  0.13077739  1
  O  O296  1  0.87933884  0.12764606  0.63146575  1
  O  O297  1  0.87951751  0.64300293  0.12906047  1
  O  O298  1  0.88792512  0.63127908  0.62916944  1
  O  O299  1  0.25759510  0.24954090  0.13060557  1
  O  O300  1  0.26601021  0.24157951  0.62593230  1
  O  O301  1  0.26621620  0.76590279  0.13235064  1
  O  O302  1  0.25976724  0.75987708  0.62660865  1
  O  O303  1  0.76501835  0.24028297  0.12387199  1
  O  O304  1  0.75328170  0.25503622  0.61935769  1
  O  O305  1  0.75892746  0.75578905  0.11109756  1
  O  O306  1  0.75925441  0.75539086  0.61785550  1
  O  O307  1  0.24670310  0.23704923  0.37912507  1
  O  O308  1  0.24741702  0.23442500  0.86449259  1
  O  O309  1  0.23709521  0.75151459  0.38411181  1
  O  O310  1  0.24695127  0.74118394  0.86173938  1
  O  O311  1  0.74552811  0.24651674  0.38090038  1
  O  O312  1  0.74957588  0.23263267  0.87013865  1
  O  O313  1  0.73993753  0.75616084  0.38599109  1
  O  O314  1  0.74593318  0.76652003  0.88577715  1
  O  O315  1  0.00937926  0.12356397  0.00630919  1
  O  O316  1  0.00985911  0.12908684  0.50584857  1
  O  O317  1  0.01582604  0.65540734  0.01073808  1
  O  O318  1  -0.00144568  0.61010735  0.50873689  1
  O  O319  1  0.50448336  0.11297593  0.00587553  1
  O  O320  1  0.49891078  0.12518536  0.51195372  1
  O  O321  1  0.48702575  0.60647249  0.00305166  1
  O  O322  1  0.50760278  0.61464773  0.50621400  1
  O  O323  1  0.49475657  0.37855260  0.49357402  1
  O  O324  1  0.49015030  0.37895691  0.99176381  1
  O  O325  1  0.48535539  0.87163744  0.50787574  1
  O  O326  1  0.49036349  0.88910671  0.99492476  1
  O  O327  1  0.99683615  0.38259697  0.49327810  1
  O  O328  1  1.00239044  0.37019195  0.98007188  1
  O  O329  1  0.98588604  0.88158532  0.50435591  1
  O  O330  1  1.00915020  0.86978753  0.98634986  1
  O  O331  1  0.48737155  0.49199695  0.38829477  1
  O  O332  1  0.49471349  0.48877530  0.87693128  1
  O  O333  1  0.48536109  1.00790680  0.37068958  1
  O  O334  1  0.49514297  0.99595683  0.88140151  1
  O  O335  1  0.99640629  0.49547309  0.38318067  1
  O  O336  1  1.00182447  0.48716346  0.86203257  1
  O  O337  1  1.00342071  0.98621660  0.38198320  1
  O  O338  1  0.99375269  0.98769927  0.87303357  1
  O  O339  1  -0.00652508  0.01202329  0.12602800  1
  O  O340  1  0.01002003  0.00923831  0.63225570  1
  O  O341  1  -0.01087130  0.51377266  0.14035705  1
  O  O342  1  0.00772559  0.50409513  0.61971870  1
  O  O343  1  0.50221473  0.00620877  0.11866564  1
  O  O344  1  0.50316573  0.01532428  0.63124744  1
  O  O345  1  0.48456328  0.50091956  0.11271334  1
  O  O346  1  0.49850187  0.50176995  0.61348686  1
  O  O347  1  0.23617116  0.37796973  0.25464719  1
  O  O348  1  0.24026665  0.38213636  0.75427078  1
  O  O349  1  0.25439337  0.88091768  0.23605185  1
  O  O350  1  0.24608433  0.88289925  0.73884848  1
  O  O351  1  0.75001873  0.38749759  0.23410826  1
  O  O352  1  0.74283387  0.37653331  0.74664067  1
  O  O353  1  0.74234087  0.88344563  0.24887255  1
  O  O354  1  0.74660009  0.88066100  0.74701544  1
  O  O355  1  0.25607340  0.12510926  0.26028050  1
  O  O356  1  0.25673964  0.11660286  0.75506275  1
  O  O357  1  0.25873875  0.61425261  0.26287710  1
  O  O358  1  0.26608555  0.61103495  0.75708615  1
  O  O359  1  0.75484523  0.11823705  0.25463132  1
  O  O360  1  0.75314472  0.11599234  0.75668925  1
  O  O361  1  0.75159597  0.63086027  0.26489589  1
  O  O362  1  0.76889044  0.62257144  0.74181406  1
  O  O363  1  0.36801620  0.12246595  0.36959648  1
  O  O364  1  0.36782445  0.11947453  0.87070654  1
  O  O365  1  0.37409618  0.61342363  0.37296835  1
  O  O366  1  0.37658098  0.61706671  0.86592225  1
  O  O367  1  0.86141435  0.13083577  0.36455983  1
  O  O368  1  0.87035230  0.11578969  0.87037971  1
  O  O369  1  0.88212396  0.61648312  0.38401742  1
  O  O370  1  0.88172753  0.63796123  0.85501207  1
  O  O371  1  0.11779280  0.36662432  0.13856581  1
  O  O372  1  0.11809560  0.38312386  0.63764069  1
  O  O373  1  0.14244750  0.86861205  0.11457244  1
  O  O374  1  0.13142649  0.88239079  0.62939926  1
  O  O375  1  0.61697325  0.38224773  0.13625802  1
  O  O376  1  0.63500451  0.36955956  0.63105019  1
  O  O377  1  0.63197572  0.87365196  0.13745833  1
  O  O378  1  0.63297918  0.87122161  0.63879913  1
  O  O379  1  0.10938347  0.25197727  0.25379835  1
  O  O380  1  0.11821504  0.25697895  0.74830060  1
  O  O381  1  0.12888180  0.75901997  0.27460900  1
  O  O382  1  0.12736118  0.76926456  0.75552010  1
  O  O383  1  0.62816456  0.25097116  0.26311343  1
  O  O384  1  0.61740158  0.25620814  0.75227686  1
  O  O385  1  0.61280015  0.75646084  0.26787959  1
  O  O386  1  0.62556417  0.75635501  0.75964815  1
  O  O387  1  0.37215652  0.23726221  0.24056281  1
  O  O388  1  0.38308955  0.24311029  0.74310317  1
  O  O389  1  0.37559384  0.74549269  0.25364875  1
  O  O390  1  0.38300169  0.74548471  0.73807725  1
  O  O391  1  0.88178202  0.24222329  0.24359672  1
  O  O392  1  0.88234735  0.24048927  0.74461515  1
  O  O393  1  0.86893689  0.75125644  0.24206742  1
  O  O394  1  0.87764870  0.74458094  0.73584468  1
  O  O395  1  0.38279262  0.48750125  0.49621907  1
  O  O396  1  0.38216281  0.49154172  0.98061616  1
  O  O397  1  0.37500134  0.99249390  0.49183272  1
  O  O398  1  0.38148002  0.99628876  0.99353999  1
  O  O399  1  0.88395987  0.49590066  0.49310095  1
  O  O400  1  0.89680128  0.50444956  0.99539576  1
  O  O401  1  0.86504953  0.98615501  0.50178583  1
  O  O402  1  0.87016748  1.00256909  0.98933732  1
  O  O403  1  0.12770244  0.01520948  0.00804035  1
  O  O404  1  0.13037190  0.00795277  0.51482501  1
  O  O405  1  0.11149831  0.51410923  -0.01297228  1
  O  O406  1  0.11944152  0.48847002  0.51241401  1
  O  O407  1  0.61640622  0.00487786  0.00736968  1
  O  O408  1  0.63139694  -0.01424864  0.50301095  1
  O  O409  1  0.59884900  0.49646875  -0.00525672  1
  O  O410  1  0.61805428  0.50246224  0.50179374  1
  O  O411  1  0.37425521  0.35465026  0.12610045  1
  O  O412  1  0.38399835  0.36109846  0.61497560  1
  O  O413  1  0.37248716  0.87192235  0.11625459  1
  O  O414  1  0.36864227  0.86862033  0.62206782  1
  O  O415  1  0.88249091  0.35479668  0.11576368  1
  O  O416  1  0.86749073  0.36637377  0.62800545  1
  O  O417  1  0.86049436  0.86788126  0.13429691  1
  O  O418  1  0.87270437  0.86690568  0.61861583  1
  O  O419  1  0.12943209  0.12401000  0.38436363  1
  O  O420  1  0.13170836  0.12258292  0.88444625  1
  O  O421  1  0.12605706  0.64017086  0.38156138  1
  O  O422  1  0.13760121  0.63874029  0.86437039  1
  O  O423  1  0.63890248  0.13219645  0.37076651  1
  O  O424  1  0.63342046  0.12306830  0.88480910  1
  O  O425  1  0.62964814  0.62932555  0.38048633  1
  O  O426  1  0.61456818  0.64603187  0.88883118  1
