# generated using pymatgen
data_V85Zn86O256
_symmetry_space_group_name_H-M   'P 1'
_cell_length_a   16.94903114
_cell_length_b   16.96099328
_cell_length_c   16.94377808
_cell_angle_alpha   90.00215902
_cell_angle_beta   89.94080802
_cell_angle_gamma   90.00022247
_symmetry_Int_Tables_number   1
_chemical_formula_structural   V85Zn86O256
_chemical_formula_sum   'V85 Zn86 O256'
_cell_volume   4870.86599971
_cell_formula_units_Z   1
loop_
 _symmetry_equiv_pos_site_id
 _symmetry_equiv_pos_as_xyz
  1  'x, y, z'
loop_
 _atom_site_type_symbol
 _atom_site_label
 _atom_site_symmetry_multiplicity
 _atom_site_fract_x
 _atom_site_fract_y
 _atom_site_fract_z
 _atom_site_occupancy
  V  V0  1  -0.01177724  0.62412792  0.13253379  1
  V  V1  1  0.01176459  0.00129864  0.50159568  1
  V  V2  1  0.89014450  0.50853820  0.87467813  1
  V  V3  1  0.87816080  0.11508408  0.75120180  1
  V  V4  1  0.62476964  0.76057022  0.37657498  1
  V  V5  1  0.49938264  0.62333881  0.13257759  1
  V  V6  1  0.04184333  0.70705238  0.28093501  1
  V  V7  1  0.23035292  0.74223692  0.49347253  1
  V  V8  1  0.61927310  0.49841321  0.61811355  1
  V  V9  1  0.12506161  0.88002531  0.74848945  1
  V  V10  1  0.25201783  0.75084950  -0.00066855  1
  V  V11  1  0.86783016  0.25093239  0.62957013  1
  V  V12  1  0.12329265  0.75177486  0.87979847  1
  V  V13  1  0.00406832  0.88888680  0.89146928  1
  V  V14  1  0.12296961  0.24504616  0.38548700  1
  V  V15  1  0.12432351  0.36754043  0.24936624  1
  V  V16  1  0.24882200  0.49796166  0.24816062  1
  V  V17  1  0.87268004  0.50358137  0.37898891  1
  V  V18  1  0.24735509  0.87257047  0.62023558  1
  V  V19  1  0.49781517  0.75860404  0.25779039  1
  V  V20  1  0.75214369  0.37748564  0.12750237  1
  V  V21  1  0.25173825  0.24743782  -0.00359245  1
  V  V22  1  0.86647849  0.12707446  0.25749050  1
  V  V23  1  0.12107081  0.87315814  0.23943483  1
  V  V24  1  0.24919995  0.37362100  0.12354569  1
  V  V25  1  0.50692493  0.11505144  0.62197548  1
  V  V26  1  0.74649808  0.62901643  0.37966017  1
  V  V27  1  0.62582775  0.37844786  0.25608754  1
  V  V28  1  0.25379462  0.62544618  0.87401960  1
  V  V29  1  0.75020227  0.25454738  -0.00031579  1
  V  V30  1  0.25269950  0.24171516  0.50088711  1
  V  V31  1  0.01212988  0.12062927  0.62254028  1
  V  V32  1  0.37087442  0.49518454  0.38527514  1
  V  V33  1  0.37652864  0.87405919  0.49020266  1
  V  V34  1  0.37890748  0.12614673  0.74701117  1
  V  V35  1  0.62626405  0.50109200  0.13029653  1
  V  V36  1  0.87664511  0.25206414  0.12710377  1
  V  V37  1  0.74776330  -0.00365136  0.73522834  1
  V  V38  1  0.62920649  0.24448048  0.37675388  1
  V  V39  1  0.11763267  0.62062646  -0.00312574  1
  V  V40  1  0.50308077  0.00177657  0.00518711  1
  V  V41  1  0.37658726  0.24982743  0.12582896  1
  V  V42  1  0.37662437  0.00214869  0.87279632  1
  V  V43  1  0.01396760  0.50208646  0.50733932  1
  V  V44  1  -0.00027412  0.11669215  0.12266118  1
  V  V45  1  0.75126264  0.24948542  0.49828402  1
  V  V46  1  0.50661587  0.50093439  0.00180706  1
  V  V47  1  0.49262550  0.37399268  0.38901128  1
  V  V48  1  0.37638922  0.37643586  0.00023050  1
  V  V49  1  -0.00349774  0.75204352  0.75024833  1
  V  V50  1  0.75217711  0.50944645  0.25314504  1
  V  V51  1  0.25153702  0.50088652  0.74407946  1
  V  V52  1  0.50914607  0.37644457  0.86685166  1
  V  V53  1  0.24584526  0.11860824  0.37529242  1
  V  V54  1  0.37107773  0.87658403  0.00373366  1
  V  V55  1  0.37056307  0.75478769  0.12729952  1
  V  V56  1  0.50020522  0.74102986  0.74350093  1
  V  V57  1  0.88702676  0.38164044  -0.00026737  1
  V  V58  1  0.37980997  0.25220691  0.61856296  1
  V  V59  1  0.63166550  0.11590926  0.50069247  1
  V  V60  1  0.37021152  0.62437441  0.25451576  1
  V  V61  1  0.74718648  0.75124111  0.51123178  1
  V  V62  1  0.62546447  0.88052831  0.23348456  1
  V  V63  1  0.49935164  0.87446462  0.86988126  1
  V  V64  1  0.74697095  -0.00288847  0.23766276  1
  V  V65  1  0.11815000  0.49714938  0.11776375  1
  V  V66  1  0.87173912  0.37933642  0.50710693  1
  V  V67  1  0.37807569  0.50464655  0.87567919  1
  V  V68  1  0.74671269  0.62626408  0.87955067  1
  V  V69  1  0.83151288  -0.05160231  0.93095480  1
  V  V70  1  0.86739631  0.00078058  0.37719364  1
  V  V71  1  0.00256490  0.87327129  0.37247098  1
  V  V72  1  0.12837817  0.37339289  0.74526651  1
  V  V73  1  0.24835312  -0.00253962  0.23975539  1
  V  V74  1  -0.00018202  0.24612741  0.25298636  1
  V  V75  1  0.50744592  0.12398039  0.12608076  1
  V  V76  1  0.62680524  0.87824140  0.73669888  1
  V  V77  1  0.85153969  0.76540861  0.12906489  1
  V  V78  1  0.75450112  0.12587331  0.87628520  1
  V  V79  1  0.12239739  0.11969682  -0.00210466  1
  V  V80  1  0.49950813  0.25089781  0.25160403  1
  V  V81  1  0.25270119  0.37751642  0.61681170  1
  V  V82  1  0.87079102  0.87546519  0.50847770  1
  V  V83  1  0.25002449  0.00074213  0.74190275  1
  V  V84  1  0.00109619  0.25040578  0.75187509  1
  Zn  Zn85  1  0.00740992  0.63029345  0.61413200  1
  Zn  Zn86  1  0.37553833  0.12122103  0.25159997  1
  Zn  Zn87  1  0.37852312  -0.00366999  0.37080524  1
  Zn  Zn88  1  0.63090098  0.75219245  0.87877011  1
  Zn  Zn89  1  -0.00238052  0.37084934  0.37944877  1
  Zn  Zn90  1  0.12553964  0.24986545  0.87505860  1
  Zn  Zn91  1  0.50792625  -0.00869177  0.49355057  1
  Zn  Zn92  1  0.38326832  0.61773031  0.73516245  1
  Zn  Zn93  1  0.00804806  0.38286729  0.87689458  1
  Zn  Zn94  1  0.87364519  0.74916086  0.62550961  1
  Zn  Zn95  1  0.75351011  0.49545340  0.74477996  1
  Zn  Zn96  1  0.87300759  0.62738337  0.74365345  1
  Zn  Zn97  1  0.63671878  0.63838748  0.01229912  1
  Zn  Zn98  1  0.62924312  0.25348905  0.87038294  1
  Zn  Zn99  1  0.59176538  0.63033954  0.52309562  1
  Zn  Zn100  1  0.62858625  0.12503112  0.00142477  1
  Zn  Zn101  1  0.50721091  0.25011031  0.74839969  1
  Zn  Zn102  1  0.25068448  0.12539823  0.87259387  1
  Zn  Zn103  1  0.37495294  0.74328360  0.61982585  1
  Zn  Zn104  1  0.22200670  0.62849075  0.37120549  1
  Zn  Zn105  1  0.65512023  0.36583206  0.72569576  1
  Zn  Zn106  1  0.12285398  -0.00938088  0.11482470  1
  Zn  Zn107  1  0.18677538  0.18278128  0.18639340  1
  Zn  Zn108  1  0.18969017  0.18829906  0.68666964  1
  Zn  Zn109  1  0.18820505  0.68569400  0.18111507  1
  Zn  Zn110  1  0.18584376  0.68785393  0.68376989  1
  Zn  Zn111  1  0.68828172  0.18853857  0.18931169  1
  Zn  Zn112  1  0.68766682  0.18460523  0.68845413  1
  Zn  Zn113  1  0.68996636  0.69150778  0.18957639  1
  Zn  Zn114  1  0.68538816  0.67969130  0.69276763  1
  Zn  Zn115  1  0.31117020  0.30933245  0.31416514  1
  Zn  Zn116  1  0.31882222  0.31457145  0.81065118  1
  Zn  Zn117  1  0.30041978  0.81215405  0.31305597  1
  Zn  Zn118  1  0.31618813  0.81133581  0.80971111  1
  Zn  Zn119  1  0.81162606  0.31686392  0.31774220  1
  Zn  Zn120  1  0.81950987  0.31479655  0.81754690  1
  Zn  Zn121  1  0.81305780  0.81346028  0.31069944  1
  Zn  Zn122  1  0.80879858  0.80899974  0.81252702  1
  Zn  Zn123  1  0.19071423  0.43072676  0.43559056  1
  Zn  Zn124  1  0.18807197  0.43664087  0.93286821  1
  Zn  Zn125  1  0.18665258  0.93231910  0.43171568  1
  Zn  Zn126  1  0.19195422  0.93973813  0.93392338  1
  Zn  Zn127  1  0.68474393  0.43607552  0.44790112  1
  Zn  Zn128  1  0.69359772  0.44408333  0.93521892  1
  Zn  Zn129  1  0.69174658  0.93480287  0.43233707  1
  Zn  Zn130  1  0.67176724  0.93783442  0.93586236  1
  Zn  Zn131  1  0.31537408  0.06475890  0.06489022  1
  Zn  Zn132  1  0.31234463  0.06165091  0.56125745  1
  Zn  Zn133  1  0.31091443  0.56392809  0.06318277  1
  Zn  Zn134  1  0.30683976  0.56993249  0.56032259  1
  Zn  Zn135  1  0.81327508  0.06801554  0.06648930  1
  Zn  Zn136  1  0.81739095  0.06623897  0.56153919  1
  Zn  Zn137  1  0.81424619  0.56071613  0.05847744  1
  Zn  Zn138  1  0.80913109  0.56667509  0.56932572  1
  Zn  Zn139  1  0.43779229  0.43638938  0.19282939  1
  Zn  Zn140  1  0.43926974  0.43815896  0.68180954  1
  Zn  Zn141  1  0.43764715  0.93805702  0.18918026  1
  Zn  Zn142  1  0.43546010  0.93429852  0.68014656  1
  Zn  Zn143  1  0.93807860  0.43855625  0.19247530  1
  Zn  Zn144  1  0.93487958  0.43804035  0.68880321  1
  Zn  Zn145  1  0.93563415  0.94079780  0.19235929  1
  Zn  Zn146  1  0.94204069  0.93674579  0.68796494  1
  Zn  Zn147  1  0.06107171  0.05868220  0.31240346  1
  Zn  Zn148  1  0.06643361  0.06404973  0.81214708  1
  Zn  Zn149  1  0.05889919  0.54179814  0.31431071  1
  Zn  Zn150  1  0.07647103  0.57692963  0.78010181  1
  Zn  Zn151  1  0.56296995  0.05955851  0.31566321  1
  Zn  Zn152  1  0.56640902  0.06279672  0.81293649  1
  Zn  Zn153  1  0.54238827  0.58150838  0.35141915  1
  Zn  Zn154  1  0.57246775  0.55606177  0.80456059  1
  Zn  Zn155  1  0.43858190  0.17822482  0.43646458  1
  Zn  Zn156  1  0.44010977  0.18903640  0.93564787  1
  Zn  Zn157  1  0.42583487  0.69087743  0.44033290  1
  Zn  Zn158  1  0.45295797  0.69030134  0.94055341  1
  Zn  Zn159  1  0.93679878  0.18405161  0.44125618  1
  Zn  Zn160  1  0.93700616  0.18683022  0.93715432  1
  Zn  Zn161  1  0.93377809  0.68367920  0.43990843  1
  Zn  Zn162  1  0.93847827  0.69175103  0.94223933  1
  Zn  Zn163  1  0.06376499  0.30382515  0.06329022  1
  Zn  Zn164  1  0.05954691  0.31464356  0.56621050  1
  Zn  Zn165  1  0.00600961  0.81388834  0.08369012  1
  Zn  Zn166  1  0.06027209  0.81992330  0.56531116  1
  Zn  Zn167  1  0.56575942  0.31527419  0.06216826  1
  Zn  Zn168  1  0.56355382  0.30973980  0.56340621  1
  Zn  Zn169  1  0.55718457  0.81086817  0.06318320  1
  Zn  Zn170  1  0.56145684  0.81367645  0.56216553  1
  O  O171  1  0.11545186  0.12449342  0.11673568  1
  O  O172  1  0.11123245  0.12754129  0.63130498  1
  O  O173  1  0.12261531  0.61314348  0.11632120  1
  O  O174  1  0.10463597  0.61488194  0.67135511  1
  O  O175  1  0.61163572  0.13308866  0.12303225  1
  O  O176  1  0.61817906  0.12797436  0.61465384  1
  O  O177  1  0.61738539  0.61932781  0.12951256  1
  O  O178  1  0.61994789  0.61355412  0.62930065  1
  O  O179  1  0.37653031  0.38573654  0.36974198  1
  O  O180  1  0.38279937  0.38629666  0.88183967  1
  O  O181  1  0.36723863  0.87402828  0.38708458  1
  O  O182  1  0.38358569  0.88181003  0.87850570  1
  O  O183  1  0.87448393  0.38223367  0.38972606  1
  O  O184  1  0.88404597  0.38836848  0.88415651  1
  O  O185  1  0.88358351  0.88186948  0.37836398  1
  O  O186  1  0.88846943  0.87817200  0.87576024  1
  O  O187  1  0.24769568  0.00591091  0.36482185  1
  O  O188  1  0.25997138  0.00071264  0.86014514  1
  O  O189  1  0.25369424  0.50051126  0.36575862  1
  O  O190  1  0.26159348  0.50420119  0.87020850  1
  O  O191  1  0.76353897  -0.00321992  0.36484680  1
  O  O192  1  0.75911382  0.00478379  0.87186339  1
  O  O193  1  0.75153773  0.50710425  0.37237819  1
  O  O194  1  0.76422925  0.51066950  0.87348793  1
  O  O195  1  0.24046629  0.49361474  0.12883656  1
  O  O196  1  0.25727093  0.48826571  0.63164894  1
  O  O197  1  0.24544057  1.00478999  0.13569400  1
  O  O198  1  0.25426906  0.99234934  0.63557575  1
  O  O199  1  0.74845483  0.49639502  0.13431876  1
  O  O200  1  0.73525397  0.50630252  0.62800685  1
  O  O201  1  0.75359783  1.00357496  0.13796101  1
  O  O202  1  0.75392198  1.00444851  0.63666449  1
  O  O203  1  0.00602802  0.36460350  0.25386613  1
  O  O204  1  0.01061392  0.36770827  0.74803778  1
  O  O205  1  0.00984928  0.87853866  0.25795756  1
  O  O206  1  0.00947395  0.87129217  0.75750807  1
  O  O207  1  0.50588637  0.36335803  0.25458225  1
  O  O208  1  0.49367066  0.37289424  0.76387851  1
  O  O209  1  0.51180254  0.87080847  0.24672013  1
  O  O210  1  0.50716294  0.87340559  0.75323747  1
  O  O211  1  0.50073284  0.13656331  0.24431937  1
  O  O212  1  0.49568459  0.12470169  0.74227940  1
  O  O213  1  0.48888090  0.63379006  0.25056252  1
  O  O214  1  0.50156497  0.63916092  0.76093908  1
  O  O215  1  0.99097880  0.12880746  0.24472935  1
  O  O216  1  0.99415843  0.12918087  0.74594792  1
  O  O217  1  0.99503659  0.61341517  0.24684566  1
  O  O218  1  0.98794045  0.65005414  0.77376169  1
  O  O219  1  0.37078209  0.25597687  0.00556453  1
  O  O220  1  0.36641849  0.24232961  0.50796916  1
  O  O221  1  0.37629441  0.75722909  0.00773453  1
  O  O222  1  0.36123722  0.76074590  0.49955678  1
  O  O223  1  0.86688081  0.25740896  0.00535197  1
  O  O224  1  0.87004290  0.25436397  0.50702962  1
  O  O225  1  0.90941023  0.74562547  0.03890865  1
  O  O226  1  0.86660872  0.75866401  0.50026362  1
  O  O227  1  0.12888960  0.25294307  0.49004255  1
  O  O228  1  0.13610417  0.24067510  0.99834575  1
  O  O229  1  0.13207341  0.75686838  0.50009918  1
  O  O230  1  0.13250917  0.74197230  0.98864081  1
  O  O231  1  0.63421248  0.24341703  0.49467009  1
  O  O232  1  0.64093325  0.25132109  1.00054006  1
  O  O233  1  0.62859837  0.74953548  0.49315790  1
  O  O234  1  0.59215260  0.73928453  0.98684779  1
  O  O235  1  0.49661684  0.24826938  0.13178549  1
  O  O236  1  0.49276200  0.24026292  0.62586939  1
  O  O237  1  0.48749346  0.74427899  0.13756778  1
  O  O238  1  0.50035063  0.75389857  0.64009037  1
  O  O239  1  0.99436193  0.24206580  0.13449437  1
  O  O240  1  0.99277534  0.24340127  0.63459792  1
  O  O241  1  1.01763662  0.72739104  0.16210863  1
  O  O242  1  1.00120326  0.75281715  0.63723870  1
  O  O243  1  0.00722081  0.24728098  0.37178476  1
  O  O244  1  -0.00137825  0.25152046  0.86046094  1
  O  O245  1  -0.01162462  0.75456810  0.35998451  1
  O  O246  1  0.00837353  0.76486344  0.87583781  1
  O  O247  1  0.50270225  0.25417012  0.36755053  1
  O  O248  1  0.50476918  0.26178019  0.87560511  1
  O  O249  1  0.50531890  0.75258052  0.36182233  1
  O  O250  1  0.49465082  0.76253764  0.86028961  1
  O  O251  1  0.24809584  0.13331064  0.49417898  1
  O  O252  1  0.24719376  0.13330099  0.99851253  1
  O  O253  1  0.23748126  0.63659165  0.49383537  1
  O  O254  1  0.24337315  0.63032485  0.99342312  1
  O  O255  1  0.74565292  0.13709357  0.50336313  1
  O  O256  1  0.75149365  0.13499614  0.99446517  1
  O  O257  1  0.75027442  0.63657290  0.49005097  1
  O  O258  1  0.74837927  0.61961502  0.98762379  1
  O  O259  1  0.25497154  0.36765670  0.00484334  1
  O  O260  1  0.24602288  0.36121922  0.51081860  1
  O  O261  1  0.26429200  0.86945884  -0.00753376  1
  O  O262  1  0.25183895  0.86728818  0.50456829  1
  O  O263  1  0.76129172  0.37125060  0.00584277  1
  O  O264  1  0.75822264  0.36046290  0.49834248  1
  O  O265  1  0.76654321  0.89355493  -0.01695027  1
  O  O266  1  0.75923949  0.86505819  0.49388405  1
  O  O267  1  0.13079503  0.48516465  0.24173053  1
  O  O268  1  0.14556787  0.48602707  0.76047876  1
  O  O269  1  0.12848441  0.98941848  0.24471551  1
  O  O270  1  0.13549075  0.98862083  0.75560280  1
  O  O271  1  0.63427253  0.49237456  0.24800855  1
  O  O272  1  0.63074112  0.48675231  0.74029541  1
  O  O273  1  0.63119466  0.98889871  0.25315606  1
  O  O274  1  0.63285131  0.98750250  0.75388275  1
  O  O275  1  0.36324904  -0.00059829  0.25105467  1
  O  O276  1  0.37183535  0.00925149  0.75009533  1
  O  O277  1  0.36528376  0.50747135  0.25003321  1
  O  O278  1  0.36840411  0.49826373  0.75862151  1
  O  O279  1  0.86750856  0.00786351  0.25669741  1
  O  O280  1  0.87044654  0.00968137  0.74685231  1
  O  O281  1  0.86289703  0.48797740  0.26551556  1
  O  O282  1  0.87926298  0.50541799  0.76394614  1
  O  O283  1  0.12445639  0.36223621  0.36678258  1
  O  O284  1  0.12535700  0.36884194  0.86398691  1
  O  O285  1  0.10868174  0.87640331  0.36489702  1
  O  O286  1  0.11968563  0.87112900  0.87210125  1
  O  O287  1  0.61479548  0.36713370  0.37423595  1
  O  O288  1  0.61583383  0.37665468  0.88202460  1
  O  O289  1  0.62765893  0.86382660  0.36618963  1
  O  O290  1  0.61025292  0.87339406  0.86702448  1
  O  O291  1  0.38642241  0.13473449  0.12774382  1
  O  O292  1  0.38162689  0.13135694  0.62948556  1
  O  O293  1  0.37816092  0.63015267  0.13659604  1
  O  O294  1  0.37474118  0.62944922  0.62316055  1
  O  O295  1  0.88153496  0.13446723  0.13412098  1
  O  O296  1  0.88384078  0.13315707  0.63433887  1
  O  O297  1  0.88743502  0.61821779  0.12490032  1
  O  O298  1  0.88624099  0.63045706  0.62686256  1
  O  O299  1  0.25528376  0.25248466  0.11527194  1
  O  O300  1  0.25771453  0.25196562  0.61696703  1
  O  O301  1  0.26349970  0.74544487  0.11660791  1
  O  O302  1  0.24677436  0.75568173  0.61357082  1
  O  O303  1  0.75715978  0.25690793  0.12072227  1
  O  O304  1  0.76333644  0.24395643  0.61978690  1
  O  O305  1  0.75279362  0.75005195  0.11239058  1
  O  O306  1  0.74691082  0.74464683  0.61393139  1
  O  O307  1  0.24304782  0.24337780  0.38260411  1
  O  O308  1  0.25574672  0.25038037  0.88721279  1
  O  O309  1  0.24601828  0.74609134  0.38876022  1
  O  O310  1  0.24613567  0.74515359  0.87818514  1
  O  O311  1  0.74023778  0.25310803  0.38339391  1
  O  O312  1  0.75289871  0.24412374  0.88449634  1
  O  O313  1  0.74483163  0.74546995  0.38112747  1
  O  O314  1  0.75047096  0.73418980  0.87713992  1
  O  O315  1  0.01048546  0.13537311  0.00891991  1
  O  O316  1  -0.00498399  0.11380174  0.51019348  1
  O  O317  1  0.01498889  0.62757041  0.01000852  1
  O  O318  1  0.00057378  0.60789824  0.49687788  1
  O  O319  1  0.50009157  0.11942373  0.00714266  1
  O  O320  1  0.51372091  0.12731328  0.50764370  1
  O  O321  1  0.49348522  0.60843712  0.01231984  1
  O  O322  1  0.50618005  0.61906132  0.45541828  1
  O  O323  1  0.49525320  0.36596586  0.48743570  1
  O  O324  1  0.49586609  0.38598929  0.99742957  1
  O  O325  1  0.48122778  0.87381950  0.50542518  1
  O  O326  1  0.48926375  0.88396571  0.99264666  1
  O  O327  1  0.99159838  0.38203195  0.49937809  1
  O  O328  1  0.99028964  0.36571330  0.99940581  1
  O  O329  1  0.99159285  0.88005445  0.49171618  1
  O  O330  1  1.01081800  0.88164094  0.99019547  1
  O  O331  1  0.47914065  0.48535794  0.36316207  1
  O  O332  1  0.49739698  0.49580539  0.88301333  1
  O  O333  1  0.48993760  1.01293575  0.38368480  1
  O  O334  1  0.49469062  0.99532237  0.88061728  1
  O  O335  1  0.98747066  0.49216203  0.38681759  1
  O  O336  1  0.99184259  0.50456458  0.87058113  1
  O  O337  1  0.99014310  0.99254072  0.38044595  1
  O  O338  1  1.00504669  0.98718725  0.87160250  1
  O  O339  1  0.00028820  0.01417483  0.12796659  1
  O  O340  1  -0.00355134  0.00785614  0.61503434  1
  O  O341  1  0.01248997  0.50438459  0.13077003  1
  O  O342  1  -0.00159494  0.49588396  0.60901829  1
  O  O343  1  0.49149590  0.01192659  0.11702555  1
  O  O344  1  0.49364453  0.01171882  0.61559769  1
  O  O345  1  0.50541585  0.50182555  0.12215189  1
  O  O346  1  0.51600361  0.49891950  0.62931864  1
  O  O347  1  0.24385201  0.37512236  0.24180659  1
  O  O348  1  0.24806923  0.37766437  0.74075960  1
  O  O349  1  0.23232372  0.88372507  0.25301759  1
  O  O350  1  0.24597528  0.87984977  0.74284048  1
  O  O351  1  0.74374016  0.38116902  0.24694880  1
  O  O352  1  0.76454427  0.37933832  0.74860009  1
  O  O353  1  0.73542184  0.88240727  0.25058360  1
  O  O354  1  0.73587815  0.88166665  0.75728386  1
  O  O355  1  0.24973784  0.11563118  0.25618925  1
  O  O356  1  0.25885336  0.11749893  0.74829874  1
  O  O357  1  0.25438259  0.61823763  0.25034017  1
  O  O358  1  0.25662598  0.61576460  0.75750975  1
  O  O359  1  0.76046064  0.12015836  0.24786519  1
  O  O360  1  0.75693209  0.11595640  0.75701736  1
  O  O361  1  0.74945926  0.61336601  0.25500630  1
  O  O362  1  0.75663316  0.62238523  0.76449526  1
  O  O363  1  0.35762441  0.12583190  0.37187136  1
  O  O364  1  0.37605380  0.12019176  0.86462030  1
  O  O365  1  0.36710830  0.61315748  0.36277797  1
  O  O366  1  0.37615721  0.61317015  0.87827754  1
  O  O367  1  0.88038306  0.11599806  0.36644285  1
  O  O368  1  0.86458032  0.12948936  0.86569979  1
  O  O369  1  0.86292171  0.61161926  0.37913230  1
  O  O370  1  0.87084387  0.61718356  0.88339763  1
  O  O371  1  0.12870801  0.37814087  0.12715832  1
  O  O372  1  0.13691675  0.36725230  0.63693482  1
  O  O373  1  0.10661798  0.87345372  0.13683608  1
  O  O374  1  0.13669328  0.87421405  0.63553311  1
  O  O375  1  0.63275640  0.38087668  0.13342015  1
  O  O376  1  0.62430984  0.38653968  0.61663305  1
  O  O377  1  0.62149772  0.87460786  0.13443729  1
  O  O378  1  0.62230720  0.87721557  0.63780065  1
  O  O379  1  0.12086981  0.25186843  0.25671850  1
  O  O380  1  0.11935860  0.25502637  0.75174447  1
  O  O381  1  0.13469299  0.76422702  0.25100201  1
  O  O382  1  0.12260657  0.76403471  0.76367418  1
  O  O383  1  0.62027442  0.25604449  0.25863740  1
  O  O384  1  0.62497340  0.25601751  0.75140711  1
  O  O385  1  0.61760922  0.76243017  0.25200687  1
  O  O386  1  0.61637202  0.76102593  0.75413654  1
  O  O387  1  0.38368208  0.24907977  0.24466418  1
  O  O388  1  0.37675783  0.23722036  0.74263789  1
  O  O389  1  0.37626530  0.74736703  0.24701856  1
  O  O390  1  0.38943221  0.74975691  0.74600999  1
  O  O391  1  0.87807884  0.24424924  0.25012201  1
  O  O392  1  0.88254628  0.24074526  0.74458616  1
  O  O393  1  0.86071386  0.74768580  0.22962824  1
  O  O394  1  0.88318393  0.75826411  0.74480267  1
  O  O395  1  0.36163203  0.50037062  0.48291771  1
  O  O396  1  0.38025138  0.49444410  0.99526796  1
  O  O397  1  0.36656607  0.98164041  0.49835644  1
  O  O398  1  0.38033246  0.99473700  0.99498916  1
  O  O399  1  0.87344844  0.49196359  0.49615269  1
  O  O400  1  0.87771725  0.49168077  0.98964962  1
  O  O401  1  0.87757995  0.99347556  0.49245547  1
  O  O402  1  0.88027626  1.00873467  0.99344383  1
  O  O403  1  0.13511013  0.01494609  -0.00028312  1
  O  O404  1  0.11081045  -0.00689384  0.49442824  1
  O  O405  1  0.13125721  0.50623906  0.00686198  1
  O  O406  1  0.11228818  0.49246491  0.49322428  1
  O  O407  1  0.60794788  0.00525760  -0.00046260  1
  O  O408  1  0.63063738  0.01254198  0.49166811  1
  O  O409  1  0.61886100  0.50133827  0.01071496  1
  O  O410  1  0.62702833  0.50870382  0.51075581  1
  O  O411  1  0.36989576  0.36964407  0.12050218  1
  O  O412  1  0.36815246  0.36019875  0.63038276  1
  O  O413  1  0.37970442  0.86657713  0.11592866  1
  O  O414  1  0.36096918  0.86879525  0.61696224  1
  O  O415  1  0.87219995  0.37230161  0.11981434  1
  O  O416  1  0.88170582  0.36476635  0.61505547  1
  O  O417  1  0.88714797  0.86391170  0.12622030  1
  O  O418  1  0.87896112  0.87529177  0.61111230  1
  O  O419  1  0.13461691  0.13239041  0.36882277  1
  O  O420  1  0.12990001  0.13024466  0.88172176  1
  O  O421  1  0.10860935  0.64146358  0.33912546  1
  O  O422  1  0.13107332  0.63254837  0.87853124  1
  O  O423  1  0.62189040  0.13929858  0.38194499  1
  O  O424  1  0.64107660  0.12686433  0.87680911  1
  O  O425  1  0.64006831  0.64275711  0.36157609  1
  O  O426  1  0.63915796  0.62090788  0.87677939  1
