# generated using pymatgen
data_V85Zn86O256
_symmetry_space_group_name_H-M   'P 1'
_cell_length_a   16.95867923
_cell_length_b   16.94964253
_cell_length_c   16.94271716
_cell_angle_alpha   90.01660874
_cell_angle_beta   89.94886991
_cell_angle_gamma   89.96180270
_symmetry_Int_Tables_number   1
_chemical_formula_structural   V85Zn86O256
_chemical_formula_sum   'V85 Zn86 O256'
_cell_volume   4870.07154990
_cell_formula_units_Z   1
loop_
 _symmetry_equiv_pos_site_id
 _symmetry_equiv_pos_as_xyz
  1  'x, y, z'
loop_
 _atom_site_type_symbol
 _atom_site_label
 _atom_site_symmetry_multiplicity
 _atom_site_fract_x
 _atom_site_fract_y
 _atom_site_fract_z
 _atom_site_occupancy
  V  V0  1  0.49072566  0.50255821  0.50699820  1
  V  V1  1  0.12081211  0.50055449  0.11375398  1
  V  V2  1  0.00183834  0.01587540  0.00160910  1
  V  V3  1  0.74589704  0.62817415  0.87219386  1
  V  V4  1  0.00216312  0.75026189  0.24729544  1
  V  V5  1  0.24725251  0.62445495  0.37457763  1
  V  V6  1  0.37064895  0.49907515  0.37760253  1
  V  V7  1  0.88259894  0.62344310  0.74493459  1
  V  V8  1  0.74844218  0.49981959  0.75058775  1
  V  V9  1  0.74977140  0.25129048  -0.01368425  1
  V  V10  1  0.24826254  0.49667401  0.75059328  1
  V  V11  1  0.04846782  0.19228047  0.19264653  1
  V  V12  1  0.74550228  0.75136341  0.49588261  1
  V  V13  1  0.49991803  0.00201557  0.50479260  1
  V  V14  1  0.74308136  0.62621195  0.37493992  1
  V  V15  1  0.25030138  0.37769639  0.12322080  1
  V  V16  1  0.11682715  0.24757859  0.37769729  1
  V  V17  1  0.88259809  0.12370366  0.76249913  1
  V  V18  1  0.87501035  0.75282797  0.12028538  1
  V  V19  1  0.37485821  0.37060383  -0.00308581  1
  V  V20  1  0.61676070  0.62948221  0.50078680  1
  V  V21  1  0.11504284  0.50665344  0.62576213  1
  V  V22  1  0.25022810  0.76544780  -0.00411089  1
  V  V23  1  0.63116042  0.00448881  0.13132988  1
  V  V24  1  -0.00089585  0.62288701  0.11436579  1
  V  V25  1  0.24991331  0.11953069  0.88072010  1
  V  V26  1  0.36438277  0.11816983  0.74297608  1
  V  V27  1  0.88387153  0.74611075  0.62341254  1
  V  V28  1  0.50217836  0.23869638  0.74528343  1
  V  V29  1  0.37963308  0.12310803  0.25293272  1
  V  V30  1  0.25346404  0.25543699  0.49839852  1
  V  V31  1  0.48638410  0.74047844  0.75206325  1
  V  V32  1  0.24716354  0.49995011  0.24826050  1
  V  V33  1  0.12583010  0.62907799  -0.01115459  1
  V  V34  1  0.87368262  0.62366050  0.25016329  1
  V  V35  1  0.62358098  0.37757091  0.25332705  1
  V  V36  1  0.62405476  0.50020956  0.12543172  1
  V  V37  1  0.75032127  0.36951472  0.62526248  1
  V  V38  1  0.50451500  0.12441274  0.12335416  1
  V  V39  1  0.11947175  0.24429795  0.88197329  1
  V  V40  1  0.74575817  0.75170536  -0.00213328  1
  V  V41  1  0.50095178  0.75004362  0.25960579  1
  V  V42  1  0.75222863  0.00551233  0.76716217  1
  V  V43  1  0.11807176  0.36348403  0.74694152  1
  V  V44  1  0.12284497  0.12393413  0.50583912  1
  V  V45  1  0.61959074  0.62638525  -0.00578553  1
  V  V46  1  0.75150789  0.87766408  0.62865623  1
  V  V47  1  0.13067366  0.87319254  0.23848886  1
  V  V48  1  0.62475655  0.12577483  0.50668921  1
  V  V49  1  0.12832487  0.75037294  0.37644747  1
  V  V50  1  0.87508237  0.87610861  0.49986589  1
  V  V51  1  0.49927216  0.25198143  0.25400624  1
  V  V52  1  0.37665411  -0.00556122  0.37739638  1
  V  V53  1  0.25599907  0.87736272  0.62779627  1
  V  V54  1  0.50182744  0.36016919  0.87418302  1
  V  V55  1  0.37362149  0.76762028  0.11695497  1
  V  V56  1  0.62709784  0.87335872  0.25655606  1
  V  V57  1  0.26208600  0.74852270  0.50428682  1
  V  V58  1  -0.00119748  0.00341204  0.50600641  1
  V  V59  1  0.62447333  0.25047005  0.37934364  1
  V  V60  1  0.49464308  0.37680896  0.38310284  1
  V  V61  1  0.12224128  0.86654482  0.75491687  1
  V  V62  1  0.37288117  0.62516011  0.24577059  1
  V  V63  1  0.88232370  0.50064548  0.88172948  1
  V  V64  1  0.87841264  0.37542239  0.50120005  1
  V  V65  1  0.87259980  -0.00129015  0.36432531  1
  V  V66  1  0.49716237  0.62512581  0.12335763  1
  V  V67  1  0.12539615  0.00045019  0.63479747  1
  V  V68  1  0.74856393  0.12130790  0.36935638  1
  V  V69  1  0.63185507  0.12638451  -0.01313101  1
  V  V70  1  0.62221924  0.50330208  0.62499252  1
  V  V71  1  0.88950258  0.23921740  0.62728483  1
  V  V72  1  0.11435943  0.37820005  0.24770341  1
  V  V73  1  0.26182858  0.62642201  0.87623472  1
  V  V74  1  0.62366254  0.00233915  0.62892404  1
  V  V75  1  0.62098307  0.86292276  0.76190380  1
  V  V76  1  0.87199149  0.24518800  0.13226848  1
  V  V77  1  0.37828066  0.25532223  0.62118837  1
  V  V78  1  0.25374506  -0.00684414  0.24428208  1
  V  V79  1  0.74935144  0.37438807  0.12621728  1
  V  V80  1  0.62326421  0.37047559  0.75475339  1
  V  V81  1  0.75252679  0.88033685  0.13084646  1
  V  V82  1  0.50133377  0.49729347  -0.00479601  1
  V  V83  1  0.37922911  0.25299900  0.12519869  1
  V  V84  1  0.00137077  0.87434268  0.37372298  1
  Zn  Zn85  1  0.11613744  0.63400100  0.50906989  1
  Zn  Zn86  1  0.37594951  0.61836413  0.73308442  1
  Zn  Zn87  1  0.87596940  0.12577784  0.25010535  1
  Zn  Zn88  1  0.87534314  0.50021363  0.37764658  1
  Zn  Zn89  1  0.75222415  0.24768620  0.50112921  1
  Zn  Zn90  1  -0.00116490  0.37247516  0.87609209  1
  Zn  Zn91  1  0.38135371  0.87172596  0.50650907  1
  Zn  Zn92  1  0.50657535  0.86916697  0.38175853  1
  Zn  Zn93  1  -0.00416070  0.51004458  0.49885953  1
  Zn  Zn94  1  0.24996475  0.37496062  0.62202622  1
  Zn  Zn95  1  0.74880157  0.49971775  0.25305135  1
  Zn  Zn96  1  0.87188162  0.89172202  -0.01170798  1
  Zn  Zn97  1  0.87970798  0.37763649  0.00333480  1
  Zn  Zn98  1  0.24853063  0.24865654  -0.00134632  1
  Zn  Zn99  1  0.00317002  0.74724513  0.75586998  1
  Zn  Zn100  1  -0.00605380  0.37503401  0.37153438  1
  Zn  Zn101  1  0.25125793  0.12224588  0.37861304  1
  Zn  Zn102  1  0.37787679  0.49508855  0.86923389  1
  Zn  Zn103  1  -0.01021770  0.87476069  0.87994729  1
  Zn  Zn104  1  0.12487235  0.01081332  0.12277242  1
  Zn  Zn105  1  0.49606390  -0.02490049  -0.00450010  1
  Zn  Zn106  1  0.37411071  -0.02024013  0.87893830  1
  Zn  Zn107  1  0.21105370  0.18960398  0.19337243  1
  Zn  Zn108  1  0.18863094  0.18734371  0.68458089  1
  Zn  Zn109  1  0.18955083  0.68952271  0.18035036  1
  Zn  Zn110  1  0.19426411  0.68815859  0.68764958  1
  Zn  Zn111  1  0.68893278  0.19066287  0.19018721  1
  Zn  Zn112  1  0.69088388  0.18659407  0.69133609  1
  Zn  Zn113  1  0.68574574  0.68947253  0.18650976  1
  Zn  Zn114  1  0.69185249  0.68776822  0.68277859  1
  Zn  Zn115  1  0.30778275  0.31434670  0.31416565  1
  Zn  Zn116  1  0.31036926  0.30681267  0.81099842  1
  Zn  Zn117  1  0.31659517  0.81220917  0.31326757  1
  Zn  Zn118  1  0.30615394  0.80894730  0.80758857  1
  Zn  Zn119  1  0.81077294  0.31002026  0.31369294  1
  Zn  Zn120  1  0.81729307  0.31164586  0.80755529  1
  Zn  Zn121  1  0.81223041  0.81023185  0.31199220  1
  Zn  Zn122  1  0.81472956  0.81130940  0.81200896  1
  Zn  Zn123  1  0.18126361  0.43517429  0.43799299  1
  Zn  Zn124  1  0.18585135  0.43475463  0.93304474  1
  Zn  Zn125  1  0.19020503  0.93490804  0.43866211  1
  Zn  Zn126  1  0.17937666  0.94693789  0.93640483  1
  Zn  Zn127  1  0.68861555  0.44023578  0.44014974  1
  Zn  Zn128  1  0.68968075  0.43772337  0.93576266  1
  Zn  Zn129  1  0.68895381  0.93984202  0.43847490  1
  Zn  Zn130  1  0.68254617  0.93648289  0.94284070  1
  Zn  Zn131  1  0.31213206  0.06091684  0.06284121  1
  Zn  Zn132  1  0.30966991  0.06428191  0.56381256  1
  Zn  Zn133  1  0.31345990  0.56215195  0.05766962  1
  Zn  Zn134  1  0.29984469  0.55639186  0.55896403  1
  Zn  Zn135  1  0.81401827  0.06552581  0.06031873  1
  Zn  Zn136  1  0.81033082  0.06252522  0.56099881  1
  Zn  Zn137  1  0.80863314  0.56404374  0.06179021  1
  Zn  Zn138  1  0.80990339  0.56157841  0.56242783  1
  Zn  Zn139  1  0.43856115  0.43885934  0.18855376  1
  Zn  Zn140  1  0.43508961  0.43404258  0.68682772  1
  Zn  Zn141  1  0.44523612  0.93927342  0.18682034  1
  Zn  Zn142  1  0.44132337  0.93493390  0.69385347  1
  Zn  Zn143  1  0.93543374  0.44009244  0.18286136  1
  Zn  Zn144  1  0.93690138  0.43442204  0.69021206  1
  Zn  Zn145  1  0.94413194  0.93954909  0.17794186  1
  Zn  Zn146  1  0.93721517  0.94173227  0.69221732  1
  Zn  Zn147  1  0.06794826  0.05426685  0.32035689  1
  Zn  Zn148  1  0.05936933  0.06100328  0.81927955  1
  Zn  Zn149  1  0.05752952  0.56259173  0.31342200  1
  Zn  Zn150  1  0.06376567  0.56332678  0.80907622  1
  Zn  Zn151  1  0.56344379  0.05904846  0.31501781  1
  Zn  Zn152  1  0.56256643  0.05893555  0.81025590  1
  Zn  Zn153  1  0.55985495  0.56483039  0.31525995  1
  Zn  Zn154  1  0.55680265  0.56509777  0.81264582  1
  Zn  Zn155  1  0.43850889  0.18296339  0.44161181  1
  Zn  Zn156  1  0.44035242  0.11936866  0.93533983  1
  Zn  Zn157  1  0.43857537  0.68870457  0.57307523  1
  Zn  Zn158  1  0.44578044  0.80739594  0.92894738  1
  Zn  Zn159  1  0.93682589  0.18608322  0.43924396  1
  Zn  Zn160  1  0.93648756  0.18933069  0.94039868  1
  Zn  Zn161  1  0.93754299  0.68646005  0.43705078  1
  Zn  Zn162  1  0.93618593  0.69487425  0.93244106  1
  Zn  Zn163  1  0.05934093  0.31929736  0.05274133  1
  Zn  Zn164  1  0.06161000  0.31391577  0.56291152  1
  Zn  Zn165  1  0.06252836  0.81584862  0.05307833  1
  Zn  Zn166  1  0.06501595  0.81541064  0.56276635  1
  Zn  Zn167  1  0.56526217  0.30822963  0.06043301  1
  Zn  Zn168  1  0.56083390  0.31449820  0.56503135  1
  Zn  Zn169  1  0.56806574  0.80847487  0.07381872  1
  Zn  Zn170  1  0.56610049  0.81722159  0.56864379  1
  O  O171  1  0.11799578  0.13882648  0.14144901  1
  O  O172  1  0.12984304  0.11664481  0.61411580  1
  O  O173  1  0.11765623  0.61849906  0.11712899  1
  O  O174  1  0.12827403  0.60972734  0.62884945  1
  O  O175  1  0.62230646  0.11969704  0.12694252  1
  O  O176  1  0.63250945  0.11756160  0.61493004  1
  O  O177  1  0.61883389  0.61888475  0.11912159  1
  O  O178  1  0.63481895  0.61030567  0.61587290  1
  O  O179  1  0.38147775  0.38803314  0.36668455  1
  O  O180  1  0.38226338  0.37264465  0.88125738  1
  O  O181  1  0.37956349  0.88526998  0.37954094  1
  O  O182  1  0.37723304  0.86995584  0.86508400  1
  O  O183  1  0.87287381  0.37414374  0.38657714  1
  O  O184  1  0.87347388  0.39104966  0.86942804  1
  O  O185  1  0.87843795  0.88072479  0.37904867  1
  O  O186  1  0.87199102  0.87845372  0.87565357  1
  O  O187  1  0.26003225  -0.00052026  0.36856788  1
  O  O188  1  0.25266970  0.01623202  0.87548238  1
  O  O189  1  0.25191092  0.50100630  0.37017647  1
  O  O190  1  0.24788697  0.50407882  0.86330535  1
  O  O191  1  0.76162434  0.00723455  0.38043789  1
  O  O192  1  0.74509396  -0.00052207  0.86480995  1
  O  O193  1  0.75316783  0.51145446  0.37406702  1
  O  O194  1  0.75571391  0.50901242  0.86861579  1
  O  O195  1  0.24151409  0.49661525  0.12857754  1
  O  O196  1  0.23677412  0.49333964  0.63517860  1
  O  O197  1  0.24591429  1.01016076  0.14004359  1
  O  O198  1  0.23884067  0.98667603  0.61556580  1
  O  O199  1  0.74456589  0.48914715  0.12574108  1
  O  O200  1  0.74295772  0.48837945  0.63006465  1
  O  O201  1  0.74470021  0.99137187  0.12278241  1
  O  O202  1  0.74140738  0.99255168  0.62612533  1
  O  O203  1  0.01095137  0.37850953  0.24704545  1
  O  O204  1  0.01431558  0.37767398  0.75624749  1
  O  O205  1  0.00836120  0.86894658  0.25449684  1
  O  O206  1  0.01383560  0.87619823  0.74729672  1
  O  O207  1  0.50447367  0.37364056  0.26290594  1
  O  O208  1  0.50636710  0.36812524  0.75505546  1
  O  O209  1  0.50980403  0.86752901  0.25057574  1
  O  O210  1  0.51598532  0.86481119  0.74463367  1
  O  O211  1  0.49916460  0.12958737  0.24226304  1
  O  O212  1  0.49216469  0.13621736  0.75186401  1
  O  O213  1  0.49428457  0.63057827  0.24398664  1
  O  O214  1  0.49772656  0.63429012  0.74497810  1
  O  O215  1  1.00029409  0.12730890  0.25508265  1
  O  O216  1  0.98130256  0.11232190  0.74961646  1
  O  O217  1  0.99168537  0.63181934  0.24071950  1
  O  O218  1  0.98608790  0.62563582  0.74992730  1
  O  O219  1  0.37680425  0.26392570  0.00787370  1
  O  O220  1  0.36631471  0.24171549  0.50693341  1
  O  O221  1  0.36538571  0.75412768  0.00976595  1
  O  O222  1  0.36522606  0.75098993  0.49996973  1
  O  O223  1  0.86154401  0.25095628  0.00875625  1
  O  O224  1  0.87340634  0.25434444  0.51244979  1
  O  O225  1  0.86180002  0.74344602  0.01113527  1
  O  O226  1  0.86727559  0.75697127  0.50486996  1
  O  O227  1  0.12885877  0.24335894  0.49523765  1
  O  O228  1  0.12855569  0.25302700  0.98531684  1
  O  O229  1  0.13283735  0.75318924  0.48999133  1
  O  O230  1  0.14211997  0.74058864  1.01144076  1
  O  O231  1  0.62321942  0.24148540  0.49740359  1
  O  O232  1  0.64111798  0.24116478  1.00500312  1
  O  O233  1  0.63260194  0.74102791  0.50699369  1
  O  O234  1  0.63852494  0.73913440  1.00892387  1
  O  O235  1  0.49853069  0.24689592  0.13562719  1
  O  O236  1  0.49135191  0.25357118  0.63198179  1
  O  O237  1  0.48646017  0.74256553  0.13034892  1
  O  O238  1  0.50622333  0.75182313  0.63880702  1
  O  O239  1  0.99339284  0.25019756  0.12603962  1
  O  O240  1  0.98768665  0.24866734  0.62513662  1
  O  O241  1  0.99207860  0.74387336  0.12834268  1
  O  O242  1  0.98572589  0.75655477  0.62605077  1
  O  O243  1  0.01232868  0.25320114  0.38028916  1
  O  O244  1  0.01562493  0.24658868  0.87433862  1
  O  O245  1  0.00764232  0.75530963  0.36655393  1
  O  O246  1  -0.00122684  0.75829142  0.86905826  1
  O  O247  1  0.50218253  0.25843495  0.37445091  1
  O  O248  1  0.49974992  0.25943881  0.86376919  1
  O  O249  1  0.49422672  0.75162926  0.35871422  1
  O  O250  1  0.50656912  0.74563526  0.85122726  1
  O  O251  1  0.24139212  0.13411608  0.49719340  1
  O  O252  1  0.25330852  0.12999559  0.98442558  1
  O  O253  1  0.23918858  0.63284385  0.49136370  1
  O  O254  1  0.24387971  0.62819849  0.99241661  1
  O  O255  1  0.74028231  0.12569172  0.49059322  1
  O  O256  1  0.74037356  0.13718786  1.00311273  1
  O  O257  1  0.74183492  0.63168688  0.49340055  1
  O  O258  1  0.73994145  0.62969550  0.99383013  1
  O  O259  1  0.25890149  0.37608942  0.00465567  1
  O  O260  1  0.24417014  0.35941919  0.49870184  1
  O  O261  1  0.24252159  0.86347400  -0.00681121  1
  O  O262  1  0.25348907  0.86654394  0.50899483  1
  O  O263  1  0.75022687  0.36557919  0.00737331  1
  O  O264  1  0.75862255  0.37372140  0.50905893  1
  O  O265  1  0.74946206  0.86716546  0.01074382  1
  O  O266  1  0.75309831  0.86916924  0.50682235  1
  O  O267  1  0.12872899  0.49432652  0.24099640  1
  O  O268  1  0.12807053  0.49119448  0.74248395  1
  O  O269  1  0.13529753  0.99064658  0.25068928  1
  O  O270  1  0.11955293  0.99569009  0.73714400  1
  O  O271  1  0.62408818  0.49530908  0.24446009  1
  O  O272  1  0.62697730  0.49364166  0.74142800  1
  O  O273  1  0.62042179  0.99239209  0.23837978  1
  O  O274  1  0.63394391  0.99533538  0.74484373  1
  O  O275  1  0.37249332  0.00088061  0.25654989  1
  O  O276  1  0.38227643  0.01750476  0.74984032  1
  O  O277  1  0.36604486  0.50430767  0.25265674  1
  O  O278  1  0.36322987  0.49719704  0.75011642  1
  O  O279  1  0.88301166  0.00019271  0.26183959  1
  O  O280  1  0.86007507  0.01064417  0.74436169  1
  O  O281  1  0.87148439  0.51421333  0.24815452  1
  O  O282  1  0.86697947  0.50616114  0.75371800  1
  O  O283  1  0.12295910  0.36609118  0.36353776  1
  O  O284  1  0.12491932  0.36244418  0.86438123  1
  O  O285  1  0.12278152  0.86497610  0.36794450  1
  O  O286  1  0.13241598  0.88025295  0.85415786  1
  O  O287  1  0.61698240  0.37219756  0.37379659  1
  O  O288  1  0.61946033  0.37934217  0.86168016  1
  O  O289  1  0.62776278  0.88085888  0.36089160  1
  O  O290  1  0.62937438  0.87691874  0.86011782  1
  O  O291  1  0.38608148  0.13269437  0.13220160  1
  O  O292  1  0.36874847  0.13414464  0.63636361  1
  O  O293  1  0.38241336  0.62574414  0.12775124  1
  O  O294  1  0.36766852  0.61845978  0.62012346  1
  O  O295  1  0.86636272  0.14030576  0.13162907  1
  O  O296  1  0.86965122  0.13714003  0.62619633  1
  O  O297  1  0.88017242  0.63001345  0.12852437  1
  O  O298  1  0.86435870  0.63409773  0.63316588  1
  O  O299  1  0.26050401  0.25945379  0.12072322  1
  O  O300  1  0.25640518  0.25189522  0.61514075  1
  O  O301  1  0.26619143  0.74575488  0.11317061  1
  O  O302  1  0.24316398  0.76345358  0.61454146  1
  O  O303  1  0.75409081  0.26147112  0.12285139  1
  O  O304  1  0.75193966  0.26112431  0.62368110  1
  O  O305  1  0.75720210  0.75574787  0.11908618  1
  O  O306  1  0.75704678  0.75886023  0.61408619  1
  O  O307  1  0.23804466  0.24749151  0.37929140  1
  O  O308  1  0.23837941  0.24357024  0.87517997  1
  O  O309  1  0.24589152  0.74653517  0.38192429  1
  O  O310  1  0.25206598  0.74057814  0.88869126  1
  O  O311  1  0.74089551  0.24250624  0.38038557  1
  O  O312  1  0.75238089  0.25874498  0.88815656  1
  O  O313  1  0.75275934  0.74430743  0.38825328  1
  O  O314  1  0.75374193  0.73617240  0.88347066  1
  O  O315  1  0.00127692  0.11663533  -0.00204263  1
  O  O316  1  0.00860970  0.11433756  0.49593943  1
  O  O317  1  0.00761712  0.63332927  0.00892893  1
  O  O318  1  0.00460152  0.62404915  0.49773757  1
  O  O319  1  0.51998186  0.14266786  0.01565331  1
  O  O320  1  0.51093236  0.11133982  0.49791454  1
  O  O321  1  0.51257227  0.61866058  0.00470227  1
  O  O322  1  0.51064492  0.61801168  0.50189421  1
  O  O323  1  0.50251563  0.38445898  0.48906201  1
  O  O324  1  0.49744311  0.37512447  0.99158534  1
  O  O325  1  0.50180167  0.88631255  0.50051357  1
  O  O326  1  0.50824683  0.86538871  1.00146836  1
  O  O327  1  0.98646646  0.37651323  0.50118193  1
  O  O328  1  0.99179255  0.37772060  0.98955104  1
  O  O329  1  0.99420529  0.87949215  0.49231817  1
  O  O330  1  0.99119091  0.88156387  1.00176346  1
  O  O331  1  0.49048038  0.49654579  0.38379887  1
  O  O332  1  0.49899301  0.48865926  0.88028314  1
  O  O333  1  0.49456826  0.99552284  0.38472433  1
  O  O334  1  0.49078272  1.02160283  0.88588949  1
  O  O335  1  0.99461923  0.49408479  0.37745286  1
  O  O336  1  0.98351582  0.50508161  0.87029764  1
  O  O337  1  0.99349515  0.99237060  0.38510180  1
  O  O338  1  1.00931410  0.99357095  0.89373342  1
  O  O339  1  0.00927102  0.00346221  0.11498396  1
  O  O340  1  0.00707688  -0.00786565  0.61131032  1
  O  O341  1  0.00841012  0.51128972  0.12744054  1
  O  O342  1  0.01251765  0.49546676  0.62670967  1
  O  O343  1  0.50963726  0.01089959  0.12081430  1
  O  O344  1  0.51516557  -0.00503232  0.62127889  1
  O  O345  1  0.50513213  0.50430351  0.11731220  1
  O  O346  1  0.50719054  0.49068827  0.61400882  1
  O  O347  1  0.23707658  0.37863364  0.24223637  1
  O  O348  1  0.23772723  0.38089796  0.75000244  1
  O  O349  1  0.24440456  0.88276152  0.25527130  1
  O  O350  1  0.23818617  0.86998764  0.73426087  1
  O  O351  1  0.74164956  0.37699637  0.24387100  1
  O  O352  1  0.74189640  0.37785726  0.74396399  1
  O  O353  1  0.74363923  0.86664384  0.23873026  1
  O  O354  1  0.74437183  0.88558762  0.74343821  1
  O  O355  1  0.26316732  0.11540174  0.25932720  1
  O  O356  1  0.26024504  0.12680816  0.75343311  1
  O  O357  1  0.25252458  0.61979756  0.25299397  1
  O  O358  1  0.24848097  0.61688889  0.75941918  1
  O  O359  1  0.74870709  0.12725315  0.26557736  1
  O  O360  1  0.75439210  0.11026626  0.74813436  1
  O  O361  1  0.75439109  0.62733072  0.25738167  1
  O  O362  1  0.75391860  0.61999066  0.75708330  1
  O  O363  1  0.37944973  0.11143921  0.36992580  1
  O  O364  1  0.35785676  0.13894894  0.85835819  1
  O  O365  1  0.36442375  0.60896254  0.36368598  1
  O  O366  1  0.36209821  0.61556250  0.87355920  1
  O  O367  1  0.86700264  0.11714461  0.37539399  1
  O  O368  1  0.87260238  0.13448917  0.86079658  1
  O  O369  1  0.86306862  0.62805092  0.36532624  1
  O  O370  1  0.86641853  0.61586383  0.86813781  1
  O  O371  1  0.12798164  0.38227881  0.12767998  1
  O  O372  1  0.12509085  0.37928913  0.63568997  1
  O  O373  1  0.12526400  0.86965135  0.13789781  1
  O  O374  1  0.13198492  0.88342774  0.62937719  1
  O  O375  1  0.63037926  0.37910383  0.13077847  1
  O  O376  1  0.63162607  0.38358820  0.63055377  1
  O  O377  1  0.63451240  0.88385331  0.13448931  1
  O  O378  1  0.63790149  0.88349608  0.63342133  1
  O  O379  1  0.11888298  0.25198370  0.25192492  1
  O  O380  1  0.12781699  0.26072446  0.75246445  1
  O  O381  1  0.12440228  0.75524831  0.25453766  1
  O  O382  1  0.12189588  0.76290105  0.74046529  1
  O  O383  1  0.61766764  0.25701624  0.25936344  1
  O  O384  1  0.61598139  0.25903561  0.74084625  1
  O  O385  1  0.61317351  0.76024099  0.24049390  1
  O  O386  1  0.63290648  0.76238597  0.74657360  1
  O  O387  1  0.38038476  0.24570207  0.24805473  1
  O  O388  1  0.38168149  0.24348013  0.74007026  1
  O  O389  1  0.37839593  0.74466104  0.23854184  1
  O  O390  1  0.38276162  0.74212763  0.74684127  1
  O  O391  1  0.87488364  0.24913201  0.24122601  1
  O  O392  1  0.86916542  0.23631628  0.73720073  1
  O  O393  1  0.87779779  0.74050176  0.23954237  1
  O  O394  1  0.86979050  0.73955248  0.73853522  1
  O  O395  1  0.38072840  0.50077391  0.49054999  1
  O  O396  1  0.38353261  0.48651070  0.99929930  1
  O  O397  1  0.38371081  1.00133365  0.49545229  1
  O  O398  1  0.38779103  1.02393007  0.99178333  1
  O  O399  1  0.87474079  0.48967754  0.50212911  1
  O  O400  1  0.86613193  0.50089758  0.98431990  1
  O  O401  1  0.88190261  0.99438512  0.49496158  1
  O  O402  1  0.89122893  1.00401138  1.00960608  1
  O  O403  1  0.11413449  0.00050563  0.00903582  1
  O  O404  1  0.11815459  0.00617816  0.50293173  1
  O  O405  1  0.13035644  0.50762544  0.00931207  1
  O  O406  1  0.12393393  0.49673459  0.51708119  1
  O  O407  1  0.62705024  0.01492103  0.01059419  1
  O  O408  1  0.62032584  0.00565024  0.50793710  1
  O  O409  1  0.62150188  0.50522233  0.00537520  1
  O  O410  1  0.61614678  0.50641276  0.50647366  1
  O  O411  1  0.37204650  0.37250556  0.11966732  1
  O  O412  1  0.36977021  0.36037415  0.62622896  1
  O  O413  1  0.37706160  0.86558437  0.12838195  1
  O  O414  1  0.35997057  0.88388308  0.62689968  1
  O  O415  1  0.86478481  0.36918905  0.12503250  1
  O  O416  1  0.86844286  0.36438631  0.62379996  1
  O  O417  1  0.86793320  0.86585134  0.12689594  1
  O  O418  1  0.86550077  0.87100212  0.62232070  1
  O  O419  1  0.12695893  0.13059329  0.38592715  1
  O  O420  1  0.13859954  0.13657435  0.86139287  1
  O  O421  1  0.12924147  0.63882832  0.36846388  1
  O  O422  1  0.13018768  0.61835821  0.88633068  1
  O  O423  1  0.62964730  0.12737846  0.38429197  1
  O  O424  1  0.62546539  0.12509876  0.88903822  1
  O  O425  1  0.63474302  0.62211984  0.38432270  1
  O  O426  1  0.63293710  0.61742373  0.88393167  1
