# generated using pymatgen
data_V85Zn86O256
_symmetry_space_group_name_H-M   'P 1'
_cell_length_a   16.94238515
_cell_length_b   16.93613174
_cell_length_c   16.93746441
_cell_angle_alpha   90.08941644
_cell_angle_beta   90.05905932
_cell_angle_gamma   89.97993443
_symmetry_Int_Tables_number   1
_chemical_formula_structural   V85Zn86O256
_chemical_formula_sum   'V85 Zn86 O256'
_cell_volume   4860.00127532
_cell_formula_units_Z   1
loop_
 _symmetry_equiv_pos_site_id
 _symmetry_equiv_pos_as_xyz
  1  'x, y, z'
loop_
 _atom_site_type_symbol
 _atom_site_label
 _atom_site_symmetry_multiplicity
 _atom_site_fract_x
 _atom_site_fract_y
 _atom_site_fract_z
 _atom_site_occupancy
  V  V0  1  0.12661094  -0.00369425  0.62600406  1
  V  V1  1  0.12483703  0.87952190  0.24840928  1
  V  V2  1  0.88174420  0.62975050  0.23265728  1
  V  V3  1  0.11917794  0.87627010  0.74311374  1
  V  V4  1  0.12559246  0.75163378  0.37869055  1
  V  V5  1  0.76452504  0.75119396  0.00580324  1
  V  V6  1  0.50419206  0.37230260  0.87734610  1
  V  V7  1  0.12484483  0.00563674  0.10178644  1
  V  V8  1  0.87480626  0.24593620  0.62084052  1
  V  V9  1  0.25075419  0.63015037  0.37509797  1
  V  V10  1  0.87846160  0.87505805  0.50112713  1
  V  V11  1  -0.00259312  0.50913753  0.00252292  1
  V  V12  1  0.87330012  0.51368372  0.37613144  1
  V  V13  1  0.37773465  0.24003673  0.12528356  1
  V  V14  1  0.12519207  0.37218709  0.25346345  1
  V  V15  1  0.81461787  0.31754656  -0.04526295  1
  V  V16  1  0.75183830  0.38000425  0.12880950  1
  V  V17  1  0.62781258  0.87625571  0.75083286  1
  V  V18  1  0.24953701  0.50192284  0.25073923  1
  V  V19  1  0.75648036  0.87990727  0.13526251  1
  V  V20  1  0.36924297  0.74813731  0.11441650  1
  V  V21  1  0.00052519  -0.00067293  0.49826106  1
  V  V22  1  0.62249810  0.37817759  0.74869031  1
  V  V23  1  0.13509247  0.75008685  0.87547006  1
  V  V24  1  0.12002407  0.49686573  0.12328332  1
  V  V25  1  0.23878731  0.24452592  -0.00921985  1
  V  V26  1  0.37503997  0.37435661  0.00281263  1
  V  V27  1  0.74939995  0.00265262  0.75989541  1
  V  V28  1  0.87504547  0.89518445  -0.00188658  1
  V  V29  1  0.50066815  0.38197765  0.37769014  1
  V  V30  1  0.50626678  0.12251540  0.60765872  1
  V  V31  1  0.00588411  0.24958012  0.75271057  1
  V  V32  1  0.49562761  0.61908874  0.61470262  1
  V  V33  1  0.12618669  0.62062555  0.51016202  1
  V  V34  1  0.25208985  0.37100958  0.12728801  1
  V  V35  1  0.37664134  0.25129398  0.62437384  1
  V  V36  1  0.63435225  0.61884406  0.49175293  1
  V  V37  1  0.86970602  0.25177217  0.12814297  1
  V  V38  1  0.28521486  -0.02389378  0.73238456  1
  V  V39  1  0.87361557  0.74704444  0.62543480  1
  V  V40  1  -0.00141335  0.24412659  0.24966468  1
  V  V41  1  0.62619783  0.00050381  0.60357762  1
  V  V42  1  0.49758918  0.74498373  0.74515170  1
  V  V43  1  0.87262024  0.37544019  0.49730146  1
  V  V44  1  0.75041422  0.62372987  0.87655935  1
  V  V45  1  0.12601026  0.12598568  0.50392187  1
  V  V46  1  0.62635628  0.62520397  0.00830532  1
  V  V47  1  0.62322139  0.37977593  0.24708968  1
  V  V48  1  0.75170238  0.87661937  0.62675264  1
  V  V49  1  0.00693069  0.37131612  0.88541128  1
  V  V50  1  0.26142935  0.76166555  0.51794499  1
  V  V51  1  0.00114823  0.87290031  0.37066697  1
  V  V52  1  0.62508747  0.74888650  0.87813382  1
  V  V53  1  0.50153573  0.50221626  0.01084694  1
  V  V54  1  0.50887113  0.24685316  0.75319623  1
  V  V55  1  0.74662758  0.51027929  0.25249037  1
  V  V56  1  0.37782725  0.12948788  0.75313506  1
  V  V57  1  0.62293067  0.24356710  0.37768650  1
  V  V58  1  0.87264041  0.61919790  0.75117839  1
  V  V59  1  0.50122974  0.24013427  0.24801912  1
  V  V60  1  0.37783426  -0.00063876  0.39086256  1
  V  V61  1  0.60031080  0.87395861  0.24493006  1
  V  V62  1  0.50360679  0.63221447  0.13125644  1
  V  V63  1  0.37448843  0.50334708  0.87627623  1
  V  V64  1  0.24777351  0.50301324  0.74873519  1
  V  V65  1  0.74667898  0.24018802  0.49768771  1
  V  V66  1  0.49199183  0.86962631  0.39894132  1
  V  V67  1  0.24189242  0.37630449  0.62542654  1
  V  V68  1  0.74435621  0.11499469  0.36674197  1
  V  V69  1  -0.00287865  0.37452541  0.37451484  1
  V  V70  1  -0.00321061  0.74844382  0.75476190  1
  V  V71  1  0.49933777  0.87697749  0.87895385  1
  V  V72  1  0.12563307  0.24794928  0.37708151  1
  V  V73  1  0.12171723  0.38147224  0.75230946  1
  V  V74  1  0.37862216  0.38438539  0.50136141  1
  V  V75  1  0.00251747  0.12141178  0.11062709  1
  V  V76  1  0.37439609  0.63392809  0.24955513  1
  V  V77  1  0.87216724  -0.00282710  0.36421671  1
  V  V78  1  0.24780924  0.87270401  0.11116420  1
  V  V79  1  0.25295328  0.00089368  0.24878396  1
  V  V80  1  -0.00515836  0.88959890  0.87780567  1
  V  V81  1  0.50377644  0.00788655  0.00981422  1
  V  V82  1  0.24966456  0.25163411  0.50318204  1
  V  V83  1  0.62955655  0.14122766  0.00106630  1
  V  V84  1  0.87421015  0.12159544  0.75751923  1
  Zn  Zn85  1  0.00274650  0.74386268  0.22234577  1
  Zn  Zn86  1  0.75262516  0.74452855  0.49232236  1
  Zn  Zn87  1  0.24893258  0.62862142  0.88565254  1
  Zn  Zn88  1  0.00467328  0.49675053  0.50501968  1
  Zn  Zn89  1  0.25177705  0.12419715  0.37497402  1
  Zn  Zn90  1  0.38049394  0.11942552  0.25001860  1
  Zn  Zn91  1  0.62421153  0.74924707  0.37182308  1
  Zn  Zn92  1  0.37262084  0.62600891  0.74454353  1
  Zn  Zn93  1  0.62376158  0.49742647  0.61687327  1
  Zn  Zn94  1  0.74670266  0.13230092  0.88006057  1
  Zn  Zn95  1  0.24280621  0.11393707  0.87705610  1
  Zn  Zn96  1  0.62828284  0.00993929  0.13376619  1
  Zn  Zn97  1  0.74481137  0.37501971  0.62178039  1
  Zn  Zn98  1  -0.00101022  0.12347945  0.62560848  1
  Zn  Zn99  1  0.86999975  0.11849063  0.24454615  1
  Zn  Zn100  1  0.87362125  0.49643914  0.88037736  1
  Zn  Zn101  1  0.12169359  0.65308297  0.03008265  1
  Zn  Zn102  1  0.37896204  0.50593439  0.37757121  1
  Zn  Zn103  1  0.74620040  0.50026598  0.74647486  1
  Zn  Zn104  1  0.37462369  0.87471853  -0.00371893  1
  Zn  Zn105  1  0.00312270  0.61401125  0.63045977  1
  Zn  Zn106  1  0.37944998  0.00682686  0.87962839  1
  Zn  Zn107  1  0.18769729  0.18412603  0.18492958  1
  Zn  Zn108  1  0.17538694  0.16796541  0.71687028  1
  Zn  Zn109  1  0.17478504  0.69719307  0.18320666  1
  Zn  Zn110  1  0.18921947  0.68826497  0.69228849  1
  Zn  Zn111  1  0.68550387  0.18854084  0.18613939  1
  Zn  Zn112  1  0.68530949  0.18422586  0.68474356  1
  Zn  Zn113  1  0.68988715  0.69561554  0.19000549  1
  Zn  Zn114  1  0.68345539  0.68475668  0.68389989  1
  Zn  Zn115  1  0.31540850  0.31019266  0.31461465  1
  Zn  Zn116  1  0.31582072  0.31546416  0.81235824  1
  Zn  Zn117  1  0.31422022  0.81426584  0.31180609  1
  Zn  Zn118  1  0.31836531  0.81986557  0.79425206  1
  Zn  Zn119  1  0.81003493  0.31206543  0.31231988  1
  Zn  Zn120  1  0.81345546  0.31156977  0.79432055  1
  Zn  Zn121  1  0.81475131  0.80437243  0.31247327  1
  Zn  Zn122  1  0.81369464  0.81222183  0.81654602  1
  Zn  Zn123  1  0.19040902  0.44011132  0.43612085  1
  Zn  Zn124  1  0.18731039  0.43759121  0.93856035  1
  Zn  Zn125  1  0.19247040  0.93746253  0.43913279  1
  Zn  Zn126  1  0.19200307  0.93560278  0.92170556  1
  Zn  Zn127  1  0.68960976  0.43701611  0.43355906  1
  Zn  Zn128  1  0.67863397  0.44449414  0.93554427  1
  Zn  Zn129  1  0.69662084  0.91194765  0.42281601  1
  Zn  Zn130  1  0.68505452  0.93921222  0.94296925  1
  Zn  Zn131  1  0.31171671  0.06241494  0.05911146  1
  Zn  Zn132  1  0.31073570  0.06638946  0.56857091  1
  Zn  Zn133  1  0.30389309  0.56607720  0.06037262  1
  Zn  Zn134  1  0.31022203  0.56539920  0.56423866  1
  Zn  Zn135  1  0.80627832  0.06663487  0.06434367  1
  Zn  Zn136  1  0.81023721  0.05996031  0.56020532  1
  Zn  Zn137  1  0.81351049  0.55877418  0.06294626  1
  Zn  Zn138  1  0.80984568  0.55882456  0.56487464  1
  Zn  Zn139  1  0.43515248  0.43929022  0.19191566  1
  Zn  Zn140  1  0.43730304  0.44096511  0.68713661  1
  Zn  Zn141  1  0.43024857  0.93885412  0.18268387  1
  Zn  Zn142  1  0.45233986  0.94013824  0.68711639  1
  Zn  Zn143  1  0.93500580  0.43796696  0.18837967  1
  Zn  Zn144  1  0.93621390  0.43674407  0.68527709  1
  Zn  Zn145  1  0.94171378  0.93624703  0.18050318  1
  Zn  Zn146  1  0.93836608  0.94035745  0.68839919  1
  Zn  Zn147  1  0.06299260  0.06343536  0.31119788  1
  Zn  Zn148  1  0.06503212  0.06592099  0.81592627  1
  Zn  Zn149  1  0.06068418  0.56226640  0.31473008  1
  Zn  Zn150  1  0.06097148  0.56141432  0.81645782  1
  Zn  Zn151  1  0.56258551  0.05359810  0.31845392  1
  Zn  Zn152  1  0.56747528  0.06339013  0.81625280  1
  Zn  Zn153  1  0.56192583  0.56406696  0.31167880  1
  Zn  Zn154  1  0.56039562  0.56192694  0.81455313  1
  Zn  Zn155  1  0.43400368  0.19065289  0.43381681  1
  Zn  Zn156  1  0.43754502  0.18797568  0.93857483  1
  Zn  Zn157  1  0.43690578  0.69067212  0.44162207  1
  Zn  Zn158  1  0.43793332  0.68650781  0.93833990  1
  Zn  Zn159  1  0.93547439  0.18190713  0.43469391  1
  Zn  Zn160  1  0.94262917  0.18223716  0.93233288  1
  Zn  Zn161  1  0.94263501  0.68903667  0.43839926  1
  Zn  Zn162  1  0.94221391  0.68676940  0.93726468  1
  Zn  Zn163  1  0.06092868  0.31194700  0.06464762  1
  Zn  Zn164  1  0.06054719  0.31389806  0.56567707  1
  Zn  Zn165  1  0.05914921  0.82089773  0.06039005  1
  Zn  Zn166  1  0.06221176  0.80663984  0.56217482  1
  Zn  Zn167  1  0.56161948  0.31474501  0.06802796  1
  Zn  Zn168  1  0.56108238  0.31024627  0.56177197  1
  Zn  Zn169  1  0.56383970  0.81206704  0.06475037  1
  Zn  Zn170  1  0.56759719  0.80428605  0.56361744  1
  O  O171  1  0.11641907  0.11528570  0.12760781  1
  O  O172  1  0.12312061  0.11585431  0.62195295  1
  O  O173  1  0.13835141  0.59712853  0.13609142  1
  O  O174  1  0.12519963  0.62923756  0.61295014  1
  O  O175  1  0.62833423  0.12479409  0.11122681  1
  O  O176  1  0.61900631  0.11357736  0.62303726  1
  O  O177  1  0.61483427  0.63486011  0.12322157  1
  O  O178  1  0.61812331  0.62150457  0.61185203  1
  O  O179  1  0.38306906  0.37603350  0.38309187  1
  O  O180  1  0.38506775  0.38539170  0.87994712  1
  O  O181  1  0.38455525  0.88448369  0.37353405  1
  O  O182  1  0.39096606  0.87332095  0.87525704  1
  O  O183  1  0.87874536  0.38004272  0.37989166  1
  O  O184  1  0.87371155  0.37094259  0.88385689  1
  O  O185  1  0.88364873  0.87995190  0.37896662  1
  O  O186  1  0.88025092  0.87314205  0.88836395  1
  O  O187  1  0.26129887  -0.00206483  0.36715821  1
  O  O188  1  0.26214537  -0.00411825  0.85131875  1
  O  O189  1  0.25134049  0.51399241  0.36919891  1
  O  O190  1  0.25753601  0.49587728  0.86555378  1
  O  O191  1  0.75974560  0.00317726  0.37950835  1
  O  O192  1  0.74511685  -0.00206488  0.86215815  1
  O  O193  1  0.76082740  0.49457310  0.36104735  1
  O  O194  1  0.75133149  0.51310434  0.87574930  1
  O  O195  1  0.24738560  0.48356261  0.13109902  1
  O  O196  1  0.25714367  0.49187535  0.64003812  1
  O  O197  1  0.24331033  0.99622293  0.12985165  1
  O  O198  1  0.24058330  0.99693927  0.63182630  1
  O  O199  1  0.75639808  0.48869192  0.13632364  1
  O  O200  1  0.74362177  0.49303703  0.62850121  1
  O  O201  1  0.74624106  0.98410502  0.11947769  1
  O  O202  1  0.74415801  0.99477352  0.63369296  1
  O  O203  1  0.00326111  0.36312636  0.25466761  1
  O  O204  1  0.00328552  0.37186657  0.75964724  1
  O  O205  1  0.00944072  0.86671504  0.24820510  1
  O  O206  1  -0.00025326  0.86799606  0.75724456  1
  O  O207  1  0.50680752  0.36933707  0.25564975  1
  O  O208  1  0.50434131  0.37002383  0.75717304  1
  O  O209  1  0.50099580  0.86840364  0.24082992  1
  O  O210  1  0.51159044  0.86520633  0.75759104  1
  O  O211  1  0.50288825  0.13696616  0.25636579  1
  O  O212  1  0.49801362  0.13408225  0.74736173  1
  O  O213  1  0.48992154  0.61996014  0.24013218  1
  O  O214  1  0.50379517  0.63043882  0.74076350  1
  O  O215  1  0.99885819  0.13561108  0.24412773  1
  O  O216  1  0.99014401  0.13351330  0.74763097  1
  O  O217  1  0.98634793  0.62492600  0.25289122  1
  O  O218  1  0.99030752  0.63131594  0.75159345  1
  O  O219  1  0.37169764  0.25660163  0.00961675  1
  O  O220  1  0.36766991  0.26005448  0.50364834  1
  O  O221  1  0.37369720  0.75040768  0.01001770  1
  O  O222  1  0.36007159  0.74789998  0.50288335  1
  O  O223  1  0.87539421  0.25207896  0.00717082  1
  O  O224  1  0.86887982  0.25283803  0.50270401  1
  O  O225  1  0.86622384  0.75046393  -0.00328567  1
  O  O226  1  0.87438371  0.75453842  0.50915216  1
  O  O227  1  0.12888494  0.24569166  0.49800582  1
  O  O228  1  0.14075891  0.25450725  1.00435107  1
  O  O229  1  0.13285908  0.74184688  0.49317273  1
  O  O230  1  0.12169189  0.76008589  0.97702105  1
  O  O231  1  0.63308496  0.25583304  0.48637891  1
  O  O232  1  0.61702663  0.24007603  1.00198512  1
  O  O233  1  0.62998810  0.73570657  0.49758921  1
  O  O234  1  0.63332333  0.74644727  0.99167815  1
  O  O235  1  0.48952167  0.25659660  0.13643833  1
  O  O236  1  0.49683340  0.24263169  0.63299326  1
  O  O237  1  0.48822623  0.73970105  0.12007070  1
  O  O238  1  0.50820191  0.73600121  0.63553593  1
  O  O239  1  0.99098415  0.24567196  0.13160295  1
  O  O240  1  0.98992580  0.24790562  0.63015254  1
  O  O241  1  1.06545075  0.73135061  0.12618568  1
  O  O242  1  0.98820855  0.74711600  0.63658012  1
  O  O243  1  0.00352116  0.25220361  0.36727443  1
  O  O244  1  -0.00493194  0.25806225  0.86337006  1
  O  O245  1  0.01234711  0.75725419  0.37601548  1
  O  O246  1  0.00238742  0.75781447  0.86401091  1
  O  O247  1  0.50599386  0.25842058  0.36809113  1
  O  O248  1  0.49270040  0.26120560  0.86605765  1
  O  O249  1  0.49729002  0.76709150  0.37958755  1
  O  O250  1  0.51032300  0.75345845  0.87339630  1
  O  O251  1  0.24183799  0.13296866  0.50141760  1
  O  O252  1  0.25228863  0.13858636  0.99441160  1
  O  O253  1  0.24157984  0.63145442  0.49487605  1
  O  O254  1  0.22904355  0.61817461  0.99758788  1
  O  O255  1  0.75512976  0.13516814  0.48828297  1
  O  O256  1  0.73639283  0.12736636  0.99759811  1
  O  O257  1  0.73885291  0.62633933  0.49987271  1
  O  O258  1  0.74746858  0.63154537  0.99723160  1
  O  O259  1  0.25619188  0.36844843  0.00959422  1
  O  O260  1  0.25432483  0.37230522  0.50747704  1
  O  O261  1  0.25230788  0.88252386  0.00783534  1
  O  O262  1  0.24580470  0.86007984  0.50119692  1
  O  O263  1  0.74863025  0.38008426  0.00680002  1
  O  O264  1  0.75984637  0.36178842  0.49476116  1
  O  O265  1  0.76096333  0.86982980  0.00198448  1
  O  O266  1  0.76217428  0.88053579  0.51909649  1
  O  O267  1  0.12892907  0.48899549  0.24946394  1
  O  O268  1  0.13132369  0.49040172  0.75406962  1
  O  O269  1  0.13160762  0.98963395  0.25097351  1
  O  O270  1  0.11205834  0.99195019  0.73348149  1
  O  O271  1  0.63501490  0.49343472  0.25509504  1
  O  O272  1  0.62369258  0.48794796  0.75194615  1
  O  O273  1  0.61935790  0.98128613  0.24779642  1
  O  O274  1  0.63230169  0.99283501  0.74481358  1
  O  O275  1  0.36684179  0.00137176  0.25463772  1
  O  O276  1  0.39193658  0.01720936  0.75765088  1
  O  O277  1  0.36568146  0.51258754  0.25137264  1
  O  O278  1  0.36840383  0.50086082  0.76026359  1
  O  O279  1  0.88422708  -0.00118079  0.26107777  1
  O  O280  1  0.86489062  0.01253238  0.74071459  1
  O  O281  1  0.87068627  0.51166685  0.25611098  1
  O  O282  1  0.87168083  0.50979175  0.75547444  1
  O  O283  1  0.11893626  0.36835609  0.37315602  1
  O  O284  1  0.11735386  0.37527098  0.86522105  1
  O  O285  1  0.12099604  0.87270094  0.36926500  1
  O  O286  1  0.11254903  0.86778076  0.86644155  1
  O  O287  1  0.61959095  0.36756796  0.36624596  1
  O  O288  1  0.61108198  0.37853190  0.86876903  1
  O  O289  1  0.59804471  0.88216963  0.36321514  1
  O  O290  1  0.61878635  0.86691605  0.87363313  1
  O  O291  1  0.37051296  0.13674511  0.12813075  1
  O  O292  1  0.38806380  0.13203558  0.62871485  1
  O  O293  1  0.37658685  0.63102322  0.13012650  1
  O  O294  1  0.39050615  0.62136228  0.62517901  1
  O  O295  1  0.88055917  0.13189370  0.12617084  1
  O  O296  1  0.87288843  0.13503533  0.62859294  1
  O  O297  1  0.87897784  0.62445531  0.13392523  1
  O  O298  1  0.87287116  0.63202519  0.63379960  1
  O  O299  1  0.25608286  0.25637198  0.12020322  1
  O  O300  1  0.25739367  0.26025842  0.62083404  1
  O  O301  1  0.25425829  0.76226446  0.12715002  1
  O  O302  1  0.24895434  0.74913518  0.61758087  1
  O  O303  1  0.76165566  0.26044747  0.13202954  1
  O  O304  1  0.75438121  0.24970288  0.61448204  1
  O  O305  1  0.74673207  0.76624046  0.11480570  1
  O  O306  1  0.76042591  0.75778869  0.62753331  1
  O  O307  1  0.24375643  0.24910272  0.38389643  1
  O  O308  1  0.25511289  0.25831820  0.89097124  1
  O  O309  1  0.24623867  0.74229708  0.38085185  1
  O  O310  1  0.23714395  0.75505662  0.86211654  1
  O  O311  1  0.74166972  0.24113339  0.37806655  1
  O  O312  1  0.76065220  0.26236764  0.88910495  1
  O  O313  1  0.73459742  0.79515539  0.38959123  1
  O  O314  1  0.74404109  0.74131361  0.88177009  1
  O  O315  1  0.00204585  0.12961104  0.01080665  1
  O  O316  1  0.00850758  0.11826476  0.50044531  1
  O  O317  1  0.01174570  0.61373411  -0.00563030  1
  O  O318  1  0.01707838  0.62735629  0.50159512  1
  O  O319  1  0.50790057  0.11374784  -0.00428189  1
  O  O320  1  0.49995395  0.13411512  0.50898531  1
  O  O321  1  0.50387354  0.61930689  0.01004669  1
  O  O322  1  0.50709322  0.62755499  0.51070979  1
  O  O323  1  0.49037582  0.36892134  0.49108838  1
  O  O324  1  0.49644967  0.38253421  0.99631735  1
  O  O325  1  0.49910706  0.87262256  0.49765689  1
  O  O326  1  0.50143476  0.88402707  0.99438603  1
  O  O327  1  0.98652473  0.37102757  0.49382829  1
  O  O328  1  1.00145915  0.37582899  0.98881014  1
  O  O329  1  0.99644002  0.87886252  0.49393452  1
  O  O330  1  0.98337506  0.87450460  0.99435893  1
  O  O331  1  0.49767343  0.48591557  0.36936051  1
  O  O332  1  0.49248066  0.49589409  0.88623964  1
  O  O333  1  0.48381998  0.99031700  0.37633537  1
  O  O334  1  0.50377238  0.99094628  0.88523532  1
  O  O335  1  0.99127846  0.49213005  0.38028809  1
  O  O336  1  0.99744157  0.49037403  0.88380560  1
  O  O337  1  0.99559276  0.99410471  0.38029659  1
  O  O338  1  1.00207535  0.98922360  0.86923832  1
  O  O339  1  0.01257780  0.00941080  0.12614553  1
  O  O340  1  0.00449333  0.00163869  0.61345386  1
  O  O341  1  0.00799430  0.48957678  0.11627641  1
  O  O342  1  -0.00550750  0.50160217  0.61773211  1
  O  O343  1  0.50121777  -0.00210164  0.11232116  1
  O  O344  1  0.51357814  0.00898376  0.62285212  1
  O  O345  1  0.49175581  0.50790800  0.11578685  1
  O  O346  1  0.50449775  0.51460644  0.62834846  1
  O  O347  1  0.24651063  0.37690625  0.24541397  1
  O  O348  1  0.24130288  0.37840032  0.74463686  1
  O  O349  1  0.24485468  0.88503886  0.24208350  1
  O  O350  1  0.22350186  0.88022925  0.75817890  1
  O  O351  1  0.74312525  0.38272585  0.24513917  1
  O  O352  1  0.73586901  0.37569078  0.74761524  1
  O  O353  1  0.76239293  0.87501993  0.23414760  1
  O  O354  1  0.74969825  0.88083842  0.74369854  1
  O  O355  1  0.24877981  0.11121540  0.25214357  1
  O  O356  1  0.27578539  0.10780007  0.73219311  1
  O  O357  1  0.25352227  0.62437552  0.25837833  1
  O  O358  1  0.25252228  0.61604341  0.75575136  1
  O  O359  1  0.75062471  0.12670891  0.26240290  1
  O  O360  1  0.75396443  0.12056565  0.75487257  1
  O  O361  1  0.76237845  0.61954218  0.24424772  1
  O  O362  1  0.75492735  0.62593950  0.75906879  1
  O  O363  1  0.37312621  0.11221093  0.37326165  1
  O  O364  1  0.36881112  0.12966555  0.86559637  1
  O  O365  1  0.36920403  0.62699214  0.36834600  1
  O  O366  1  0.37263689  0.61248142  0.87748526  1
  O  O367  1  0.86645785  0.11354677  0.37126667  1
  O  O368  1  0.86789100  0.13085397  0.86203414  1
  O  O369  1  0.87734058  0.61566585  0.37693981  1
  O  O370  1  0.86689195  0.62602365  0.86805381  1
  O  O371  1  0.13282181  0.37637750  0.13428196  1
  O  O372  1  0.13672073  0.37723265  0.62797165  1
  O  O373  1  0.13144391  0.88817756  0.13051097  1
  O  O374  1  0.11449966  0.88137561  0.63177648  1
  O  O375  1  0.63362784  0.37053312  0.13944775  1
  O  O376  1  0.62171207  0.37633932  0.63369667  1
  O  O377  1  0.63250826  0.87543085  0.13650878  1
  O  O378  1  0.63480600  0.87841404  0.63034050  1
  O  O379  1  0.11885053  0.25261388  0.25531612  1
  O  O380  1  0.10932488  0.26698339  0.73391189  1
  O  O381  1  0.13329333  0.76527022  0.26786250  1
  O  O382  1  0.11330724  0.75738522  0.75213286  1
  O  O383  1  0.61934705  0.25735847  0.25836228  1
  O  O384  1  0.61464581  0.25766711  0.74669467  1
  O  O385  1  0.63120492  0.77085657  0.25521805  1
  O  O386  1  0.62185937  0.75325280  0.76161959  1
  O  O387  1  0.38339387  0.24650196  0.24480550  1
  O  O388  1  0.38489033  0.24810148  0.74370282  1
  O  O389  1  0.36791556  0.73865145  0.23945488  1
  O  O390  1  0.39408435  0.74161286  0.75938599  1
  O  O391  1  0.88242358  0.24704032  0.24439013  1
  O  O392  1  0.88323916  0.24376733  0.73816484  1
  O  O393  1  0.88194086  0.73480033  0.25107291  1
  O  O394  1  0.87826140  0.74055712  0.74668032  1
  O  O395  1  0.36792051  0.48800817  0.49775180  1
  O  O396  1  0.37915423  0.49378666  0.99580897  1
  O  O397  1  0.36619502  1.00148075  0.48917321  1
  O  O398  1  0.38827960  0.99967090  0.99827834  1
  O  O399  1  0.87087317  0.49014004  0.49128031  1
  O  O400  1  0.88979232  0.50225237  0.99902437  1
  O  O401  1  0.88277227  0.99451569  0.49275051  1
  O  O402  1  0.87053034  0.99337509  0.99699404  1
  O  O403  1  0.13327162  -0.00083891  0.00266529  1
  O  O404  1  0.12223505  0.00447814  0.50784142  1
  O  O405  1  0.11293003  0.48708766  0.01108823  1
  O  O406  1  0.12687224  0.51715167  0.49396442  1
  O  O407  1  0.61404076  0.00453173  0.00567294  1
  O  O408  1  0.63752970  -0.01286384  0.50652546  1
  O  O409  1  0.61273649  0.51063893  0.00097926  1
  O  O410  1  0.62829066  0.51250851  0.49552617  1
  O  O411  1  0.36749799  0.36682931  0.12464981  1
  O  O412  1  0.37006236  0.37117649  0.61925021  1
  O  O413  1  0.36421628  0.86600240  0.12145881  1
  O  O414  1  0.34815535  0.89615952  0.69583607  1
  O  O415  1  0.86535861  0.36584676  0.12940219  1
  O  O416  1  0.87051558  0.36199421  0.61664943  1
  O  O417  1  0.86788833  0.87848880  0.11100539  1
  O  O418  1  0.87104566  0.86724123  0.62468985  1
  O  O419  1  0.12724929  0.13077895  0.38398079  1
  O  O420  1  0.14566824  0.13934211  0.82616321  1
  O  O421  1  0.13185072  0.63425565  0.38013362  1
  O  O422  1  0.12460098  0.64551681  0.86448276  1
  O  O423  1  0.63053381  0.13139477  0.37266780  1
  O  O424  1  0.62840906  0.12453001  0.89191439  1
  O  O425  1  0.61733730  0.62980581  0.38740138  1
  O  O426  1  0.63125450  0.63124325  0.88256173  1
