# generated using pymatgen
data_V85Zn86O256
_symmetry_space_group_name_H-M   'P 1'
_cell_length_a   16.91917030
_cell_length_b   16.92681491
_cell_length_c   16.92374804
_cell_angle_alpha   90.02940480
_cell_angle_beta   89.93502159
_cell_angle_gamma   90.04523746
_symmetry_Int_Tables_number   1
_chemical_formula_structural   V85Zn86O256
_chemical_formula_sum   'V85 Zn86 O256'
_cell_volume   4846.74740638
_cell_formula_units_Z   1
loop_
 _symmetry_equiv_pos_site_id
 _symmetry_equiv_pos_as_xyz
  1  'x, y, z'
loop_
 _atom_site_type_symbol
 _atom_site_label
 _atom_site_symmetry_multiplicity
 _atom_site_fract_x
 _atom_site_fract_y
 _atom_site_fract_z
 _atom_site_occupancy
  V  V0  1  0.38096951  0.12309804  0.24913801  1
  V  V1  1  0.24424684  0.24760881  0.49731933  1
  V  V2  1  0.87352075  0.87385453  0.49947160  1
  V  V3  1  0.61843506  0.62186615  0.49747615  1
  V  V4  1  0.12448844  0.00602659  0.61669929  1
  V  V5  1  0.37830003  0.49895451  0.36851671  1
  V  V6  1  -0.00654299  0.12344569  0.62513458  1
  V  V7  1  0.62329875  0.37652766  0.74870294  1
  V  V8  1  -0.00320528  0.87926240  0.87442468  1
  V  V9  1  0.38110418  0.24521119  0.12754462  1
  V  V10  1  0.75543809  0.75476205  0.01533376  1
  V  V11  1  0.75153142  0.14252354  0.37143635  1
  V  V12  1  0.25164346  -0.00268477  0.25183499  1
  V  V13  1  0.74741047  0.36951275  0.61874604  1
  V  V14  1  0.87140010  0.24614006  0.63627802  1
  V  V15  1  0.23885960  0.37195967  0.63020258  1
  V  V16  1  0.62903059  0.13029549  0.48997150  1
  V  V17  1  0.37140002  0.62532482  0.75267787  1
  V  V18  1  0.87418520  0.01046334  0.87123215  1
  V  V19  1  0.37800279  0.74713007  0.12275789  1
  V  V20  1  0.74946260  0.62460200  0.37304241  1
  V  V21  1  0.25058701  0.37856868  0.13236196  1
  V  V22  1  0.74414775  0.36139242  0.12233475  1
  V  V23  1  0.10800761  0.37068774  0.25131288  1
  V  V24  1  0.89875337  0.24852992  0.11817551  1
  V  V25  1  0.39171850  -0.00384552  0.37864335  1
  V  V26  1  0.87147805  0.37385716  -0.00456287  1
  V  V27  1  0.25478181  0.24878693  0.00353043  1
  V  V28  1  0.11499526  0.50421310  0.12714818  1
  V  V29  1  0.11309664  0.24914495  0.37152668  1
  V  V30  1  0.24965544  0.74752732  0.50051133  1
  V  V31  1  0.37557425  0.38188779  0.50096051  1
  V  V32  1  0.49847759  0.37519452  0.87527667  1
  V  V33  1  0.12343538  0.61872801  0.50485638  1
  V  V34  1  0.87726857  0.62675450  0.23754515  1
  V  V35  1  0.64177899  -0.00297903  0.12401863  1
  V  V36  1  0.37529183  0.37709814  0.00353938  1
  V  V37  1  0.12253203  0.00315819  0.12735624  1
  V  V38  1  0.37442112  0.24877414  0.62178344  1
  V  V39  1  0.62359435  0.86835349  0.25531775  1
  V  V40  1  0.24888759  0.87400666  0.62191193  1
  V  V41  1  0.24540805  0.12245514  0.37783725  1
  V  V42  1  0.12893244  0.75230263  0.88086559  1
  V  V43  1  0.38941652  0.87538290  0.49599199  1
  V  V44  1  0.25565918  0.86910180  0.10768102  1
  V  V45  1  0.37321373  0.74961082  0.62633158  1
  V  V46  1  0.61852616  0.49840109  0.62069490  1
  V  V47  1  0.49931013  0.87625669  0.88619230  1
  V  V48  1  0.12477104  0.74672897  0.37802382  1
  V  V49  1  0.62901188  0.75237477  0.87764057  1
  V  V50  1  0.87587502  0.50887423  0.87257021  1
  V  V51  1  0.37634910  0.12283962  0.74791822  1
  V  V52  1  0.12751719  0.12639066  0.00426744  1
  V  V53  1  0.12243630  0.63827417  0.01274931  1
  V  V54  1  0.49816654  0.00948327  0.01039546  1
  V  V55  1  0.12288803  0.87399649  0.74673882  1
  V  V56  1  -0.00224693  0.74422889  0.23994042  1
  V  V57  1  0.62688337  0.87933877  0.74857065  1
  V  V58  1  0.49929702  0.75091110  0.75308932  1
  V  V59  1  0.24968405  0.12462384  0.87435580  1
  V  V60  1  0.50964392  0.24868545  0.25385997  1
  V  V61  1  -0.00183510  0.49291317  0.49797345  1
  V  V62  1  0.49881249  0.50454179  0.00176193  1
  V  V63  1  0.49888322  0.24894683  0.74748665  1
  V  V64  1  0.87262141  0.36402441  0.49503712  1
  V  V65  1  0.87711501  0.49652060  0.37365667  1
  V  V66  1  0.87129716  -0.00001637  0.37106571  1
  V  V67  1  0.75111851  0.01179198  0.74726689  1
  V  V68  1  0.49650916  0.62792943  0.14324858  1
  V  V69  1  -0.01201691  0.62480557  0.63062415  1
  V  V70  1  -0.00145294  0.00883699  0.00098199  1
  V  V71  1  0.24172222  0.49779256  0.75305360  1
  V  V72  1  0.89052654  0.12933638  0.24283136  1
  V  V73  1  0.49822756  0.62105644  0.62616279  1
  V  V74  1  0.25198551  0.62192951  0.37031778  1
  V  V75  1  0.37274857  0.50187106  0.87672886  1
  V  V76  1  0.75159221  0.50944368  0.74899883  1
  V  V77  1  0.74881361  0.75028678  0.49836004  1
  V  V78  1  0.50756636  0.37285282  0.38089866  1
  V  V79  1  0.13203749  0.87203735  0.24916131  1
  V  V80  1  -0.00099009  0.87150647  0.37359720  1
  V  V81  1  0.63030845  0.24787135  0.87996755  1
  V  V82  1  0.37567441  -0.00507513  0.87800231  1
  V  V83  1  0.50076730  0.11427890  0.61376791  1
  V  V84  1  0.62132762  0.62652665  0.00129257  1
  Zn  Zn85  1  0.86348129  0.88172696  0.01324698  1
  Zn  Zn86  1  0.11358931  0.49130263  0.63698076  1
  Zn  Zn87  1  0.74881103  0.49796069  0.24503538  1
  Zn  Zn88  1  0.24983555  0.50182851  0.25008508  1
  Zn  Zn89  1  0.62660963  0.49837855  0.12889472  1
  Zn  Zn90  1  0.62460932  -0.00242742  0.61417305  1
  Zn  Zn91  1  0.12858864  0.26311388  0.86642486  1
  Zn  Zn92  1  0.63001210  0.37295103  0.25725249  1
  Zn  Zn93  1  0.75561851  0.13372710  0.87787127  1
  Zn  Zn94  1  0.75665776  -0.00635638  0.24455393  1
  Zn  Zn95  1  0.24965434  0.63148040  0.88323742  1
  Zn  Zn96  1  0.00372356  0.00452840  0.49603610  1
  Zn  Zn97  1  -0.01039195  0.74352770  0.75844525  1
  Zn  Zn98  1  0.00701445  0.37873270  0.86326565  1
  Zn  Zn99  1  0.01619366  0.25815284  0.74580003  1
  Zn  Zn100  1  0.74952170  0.87713624  0.62370344  1
  Zn  Zn101  1  -0.00525400  0.50758819  0.00192426  1
  Zn  Zn102  1  0.86875044  0.74852717  0.63485573  1
  Zn  Zn103  1  0.62872566  0.13427386  0.01421593  1
  Zn  Zn104  1  0.60714013  0.75263639  0.37401414  1
  Zn  Zn105  1  0.25017318  -0.00183681  0.74792410  1
  Zn  Zn106  1  0.75464151  0.63106464  0.87253035  1
  Zn  Zn107  1  0.18985040  0.18886022  0.19038355  1
  Zn  Zn108  1  0.18578787  0.18364197  0.68766167  1
  Zn  Zn109  1  0.19091804  0.69287977  0.18912370  1
  Zn  Zn110  1  0.18160875  0.68568824  0.69055540  1
  Zn  Zn111  1  0.69213412  0.18004641  0.18880759  1
  Zn  Zn112  1  0.68281621  0.18764558  0.68417843  1
  Zn  Zn113  1  0.68474282  0.68661757  0.18952687  1
  Zn  Zn114  1  0.68644019  0.69019867  0.68527526  1
  Zn  Zn115  1  0.31386626  0.31101927  0.31391531  1
  Zn  Zn116  1  0.30943443  0.31125642  0.81224762  1
  Zn  Zn117  1  0.43759111  0.80807881  0.30489382  1
  Zn  Zn118  1  0.31001416  0.81536977  0.81418405  1
  Zn  Zn119  1  0.82384758  0.31365917  0.30084072  1
  Zn  Zn120  1  0.81192292  0.32165197  0.80891047  1
  Zn  Zn121  1  0.80639148  0.81009207  0.30617499  1
  Zn  Zn122  1  0.81423626  0.81942276  0.81566192  1
  Zn  Zn123  1  0.18548739  0.43395108  0.43645707  1
  Zn  Zn124  1  0.18723278  0.44466179  0.94499903  1
  Zn  Zn125  1  0.19202572  0.93427702  0.43681028  1
  Zn  Zn126  1  0.18321754  0.94032309  0.93495656  1
  Zn  Zn127  1  0.68939125  0.43886870  0.43743545  1
  Zn  Zn128  1  0.68945863  0.43797900  0.93909418  1
  Zn  Zn129  1  0.68412881  0.94187624  0.43435979  1
  Zn  Zn130  1  0.68920190  0.94128036  0.93954788  1
  Zn  Zn131  1  0.31349696  0.05825823  0.06501124  1
  Zn  Zn132  1  0.31156199  0.06060381  0.55829726  1
  Zn  Zn133  1  0.30760153  0.56875291  0.06478080  1
  Zn  Zn134  1  0.30878998  0.55836317  0.56490353  1
  Zn  Zn135  1  0.81307776  0.07605481  0.05539809  1
  Zn  Zn136  1  0.81021644  0.06302858  0.55719173  1
  Zn  Zn137  1  0.80391524  0.55941806  0.06006765  1
  Zn  Zn138  1  0.80849269  0.55788650  0.55912667  1
  Zn  Zn139  1  0.44176124  0.43726646  0.19144481  1
  Zn  Zn140  1  0.43232757  0.43664931  0.68770515  1
  Zn  Zn141  1  0.43673274  0.93466957  0.18540428  1
  Zn  Zn142  1  0.43781448  0.93520128  0.68953348  1
  Zn  Zn143  1  0.93073626  0.43665792  0.18409793  1
  Zn  Zn144  1  0.93359721  0.43431608  0.68822895  1
  Zn  Zn145  1  0.93792455  0.93606579  0.18484784  1
  Zn  Zn146  1  0.93530797  0.93723900  0.68729222  1
  Zn  Zn147  1  0.06273986  0.06059795  0.31465432  1
  Zn  Zn148  1  0.06351184  0.06668438  0.80694370  1
  Zn  Zn149  1  0.06089829  0.55874513  0.31337596  1
  Zn  Zn150  1  0.06064624  0.56542049  0.81884070  1
  Zn  Zn151  1  0.56926156  0.06287833  0.30576015  1
  Zn  Zn152  1  0.56157978  0.06277457  0.81034794  1
  Zn  Zn153  1  0.56377551  0.55434122  0.31579525  1
  Zn  Zn154  1  0.56313105  0.56371936  0.81346748  1
  Zn  Zn155  1  0.43546206  0.18767758  0.43633383  1
  Zn  Zn156  1  0.44002738  0.18545168  0.93671307  1
  Zn  Zn157  1  0.43470619  0.68137320  0.44073459  1
  Zn  Zn158  1  0.43214466  0.69286361  0.94433627  1
  Zn  Zn159  1  0.93690365  0.18121442  0.44316467  1
  Zn  Zn160  1  0.94195731  0.19390057  0.93298764  1
  Zn  Zn161  1  0.93610271  0.68456057  0.43682312  1
  Zn  Zn162  1  0.94012538  0.68835952  0.94188383  1
  Zn  Zn163  1  0.07184918  0.32786409  0.03548755  1
  Zn  Zn164  1  0.05824213  0.30752441  0.55919796  1
  Zn  Zn165  1  0.03513450  0.82542781  0.07096405  1
  Zn  Zn166  1  0.05866093  0.80993715  0.56246488  1
  Zn  Zn167  1  0.55942207  0.31313312  0.06341987  1
  Zn  Zn168  1  0.56283349  0.30586382  0.55777302  1
  Zn  Zn169  1  0.56356597  0.81451548  0.06777632  1
  Zn  Zn170  1  0.56457075  0.80758147  0.56382265  1
  O  O171  1  0.13841743  0.11314954  0.11970653  1
  O  O172  1  0.12356993  0.10986549  0.62355313  1
  O  O173  1  0.13135446  0.61978375  0.12063590  1
  O  O174  1  0.11626022  0.62009627  0.61556458  1
  O  O175  1  0.62550862  0.10472930  0.12942797  1
  O  O176  1  0.61559370  0.12241618  0.61660531  1
  O  O177  1  0.61255202  0.62501823  0.11947376  1
  O  O178  1  0.61965672  0.61752569  0.61907211  1
  O  O179  1  0.37874567  0.38110800  0.38322763  1
  O  O180  1  0.37916329  0.37998410  0.88271628  1
  O  O181  1  0.37884046  0.88841573  0.38039838  1
  O  O182  1  0.38329269  0.88636134  0.86976903  1
  O  O183  1  0.86724775  0.38664866  0.38020832  1
  O  O184  1  0.87085392  0.38565861  0.88279261  1
  O  O185  1  0.88067343  0.87836485  0.37772493  1
  O  O186  1  0.88413472  0.88745392  0.88518907  1
  O  O187  1  0.25336051  0.00603825  0.36873389  1
  O  O188  1  0.25992343  0.00500043  0.87433226  1
  O  O189  1  0.25591930  0.50474100  0.37596902  1
  O  O190  1  0.25683968  0.49950106  0.87050288  1
  O  O191  1  0.76539808  0.00058131  0.37040460  1
  O  O192  1  0.75787464  -0.00073112  0.86661131  1
  O  O193  1  0.75626758  0.51096403  0.37385250  1
  O  O194  1  0.75335410  0.50298508  0.86507471  1
  O  O195  1  0.24284358  0.49368586  0.12950482  1
  O  O196  1  0.24623688  0.48965325  0.63557660  1
  O  O197  1  0.24548415  0.98804219  0.13170560  1
  O  O198  1  0.24254509  0.99223975  0.62357645  1
  O  O199  1  0.74765085  0.48491269  0.12571246  1
  O  O200  1  0.73893068  0.49473574  0.63062359  1
  O  O201  1  0.74405550  0.99779650  0.12019700  1
  O  O202  1  0.74981488  0.99764872  0.63323760  1
  O  O203  1  0.00978589  0.37490706  0.24760629  1
  O  O204  1  0.00338500  0.37461010  0.74799084  1
  O  O205  1  0.00831613  0.86615562  0.26031721  1
  O  O206  1  0.00649472  0.87728318  0.76001531  1
  O  O207  1  0.50194973  0.36592072  0.26079282  1
  O  O208  1  0.50280500  0.36988139  0.75441629  1
  O  O209  1  0.51377822  0.87888446  0.24730633  1
  O  O210  1  0.50979976  0.87232199  0.75977566  1
  O  O211  1  0.48837307  0.13212580  0.25760283  1
  O  O212  1  0.49430118  0.13049147  0.74120706  1
  O  O213  1  0.50260269  0.62312201  0.24129651  1
  O  O214  1  0.49204584  0.63033072  0.74679289  1
  O  O215  1  0.98962172  0.12244025  0.25298420  1
  O  O216  1  1.00839417  0.13096429  0.73108164  1
  O  O217  1  0.98505944  0.62975429  0.25897821  1
  O  O218  1  1.00489372  0.62375341  0.73373638  1
  O  O219  1  0.37459195  0.25363768  0.00832425  1
  O  O220  1  0.36292720  0.25753393  0.50198082  1
  O  O221  1  0.37087824  0.75240743  0.01745329  1
  O  O222  1  0.36790262  0.75506327  0.50885971  1
  O  O223  1  0.87691532  0.25716632  0.00927764  1
  O  O224  1  0.87781545  0.26179056  0.50458240  1
  O  O225  1  0.85631227  0.74766427  -0.00583312  1
  O  O226  1  0.86588056  0.75649281  0.49873201  1
  O  O227  1  0.13740840  0.25771465  0.48882998  1
  O  O228  1  0.13771060  0.23367692  1.01072982  1
  O  O229  1  0.12813231  0.73977197  0.49764325  1
  O  O230  1  0.11621104  0.74415586  0.99795200  1
  O  O231  1  0.62835048  0.23191408  0.50289485  1
  O  O232  1  0.61429018  0.25090144  0.98347879  1
  O  O233  1  0.63230324  0.74149254  0.49689349  1
  O  O234  1  0.62952963  0.74654036  0.99515900  1
  O  O235  1  0.48747152  0.25537194  0.13417637  1
  O  O236  1  0.49235466  0.24284217  0.63048249  1
  O  O237  1  0.49433470  0.73607498  0.12100487  1
  O  O238  1  0.49411376  0.74264223  0.63456122  1
  O  O239  1  0.99578654  0.25840548  0.11289468  1
  O  O240  1  0.98929163  0.24239158  0.62352075  1
  O  O241  1  1.01697939  0.73701426  0.14312479  1
  O  O242  1  0.99596118  0.73310563  0.62217295  1
  O  O243  1  0.01427459  0.24245083  0.38227630  1
  O  O244  1  0.00739815  0.25616464  0.86800352  1
  O  O245  1  0.00560963  0.75392123  0.37079449  1
  O  O246  1  0.00817609  0.76228341  0.87783595  1
  O  O247  1  0.49064909  0.26017542  0.36530926  1
  O  O248  1  0.50327812  0.25661336  0.86642607  1
  O  O249  1  0.49456875  0.75008855  0.37995184  1
  O  O250  1  0.50673218  0.75841763  0.87371777  1
  O  O251  1  0.25355933  0.13384146  0.48960434  1
  O  O252  1  0.24862133  0.12641234  0.99350435  1
  O  O253  1  0.23983610  0.62635494  0.49922425  1
  O  O254  1  0.23021542  0.62375695  0.99890243  1
  O  O255  1  0.74922329  0.12458043  0.47885007  1
  O  O256  1  0.73799345  0.12191634  0.98901534  1
  O  O257  1  0.74085045  0.62999656  0.49439185  1
  O  O258  1  0.73571460  0.63486950  0.99817018  1
  O  O259  1  0.25779705  0.37113334  0.01466739  1
  O  O260  1  0.25618563  0.36823959  0.50700467  1
  O  O261  1  0.24417928  0.87917841  0.01034054  1
  O  O262  1  0.25765717  0.86521755  0.50489182  1
  O  O263  1  0.75817095  0.37614030  0.01110537  1
  O  O264  1  0.75750102  0.38116692  0.51026570  1
  O  O265  1  0.74792133  0.86061072  0.00024276  1
  O  O266  1  0.75583862  0.86696680  0.49636769  1
  O  O267  1  0.12682832  0.48756709  0.24750886  1
  O  O268  1  0.13773365  0.50509915  0.75429019  1
  O  O269  1  0.12784984  0.99281778  0.24352745  1
  O  O270  1  0.12701073  0.98823962  0.74046158  1
  O  O271  1  0.62951990  0.49237249  0.24780758  1
  O  O272  1  0.62846799  0.49451862  0.74336843  1
  O  O273  1  0.63061396  0.99302949  0.23805415  1
  O  O274  1  0.63118086  0.99349126  0.74862357  1
  O  O275  1  0.37315538  0.00421720  0.25957149  1
  O  O276  1  0.37533181  0.00564685  0.75984754  1
  O  O277  1  0.37094006  0.49555056  0.26430071  1
  O  O278  1  0.36625660  0.50600347  0.75720876  1
  O  O279  1  0.87735002  0.00526298  0.25215404  1
  O  O280  1  0.86287585  -0.00715132  0.75850748  1
  O  O281  1  0.87350190  0.50850014  0.25723163  1
  O  O282  1  0.86143163  0.49629651  0.75723165  1
  O  O283  1  0.12908910  0.36649273  0.35874013  1
  O  O284  1  0.11195288  0.36498856  0.92264592  1
  O  O285  1  0.11816673  0.86988783  0.36936216  1
  O  O286  1  0.12100042  0.87318437  0.86414038  1
  O  O287  1  0.61196563  0.37670495  0.38017426  1
  O  O288  1  0.61803198  0.36825484  0.87092895  1
  O  O289  1  0.62505264  0.87562251  0.36114574  1
  O  O290  1  0.61752998  0.87080231  0.87046797  1
  O  O291  1  0.36998297  0.13255825  0.13604840  1
  O  O292  1  0.38080405  0.12856744  0.62551858  1
  O  O293  1  0.38715103  0.63114336  0.12411732  1
  O  O294  1  0.37820630  0.62816127  0.63100447  1
  O  O295  1  0.87805218  0.13987777  0.12711900  1
  O  O296  1  0.87872994  0.13464707  0.61918064  1
  O  O297  1  0.87041664  0.61824759  0.13939609  1
  O  O298  1  0.88527423  0.62383801  0.61819846  1
  O  O299  1  0.26223885  0.25693967  0.12302614  1
  O  O300  1  0.25490643  0.25339523  0.61648532  1
  O  O301  1  0.25314838  0.76417154  0.12483904  1
  O  O302  1  0.25239482  0.75306066  0.62082472  1
  O  O303  1  0.75077807  0.25922371  0.12515381  1
  O  O304  1  0.75395726  0.26044403  0.62863388  1
  O  O305  1  0.74792538  0.74725673  0.11368652  1
  O  O306  1  0.74983614  0.75253020  0.61177118  1
  O  O307  1  0.24584612  0.24176545  0.38006843  1
  O  O308  1  0.25222529  0.24122542  0.88560648  1
  O  O309  1  0.24169086  0.73680839  0.38845175  1
  O  O310  1  0.23367623  0.75390084  0.87298047  1
  O  O311  1  0.75852624  0.24068434  0.36684151  1
  O  O312  1  0.73311862  0.25474969  0.86577697  1
  O  O313  1  0.74894884  0.73761564  0.38318232  1
  O  O314  1  0.73676677  0.75155919  0.87762623  1
  O  O315  1  0.01263951  0.11629664  -0.00682048  1
  O  O316  1  0.00157754  0.12054677  0.51527962  1
  O  O317  1  0.01557235  0.62412342  0.00079897  1
  O  O318  1  0.00467843  0.61526156  0.50708372  1
  O  O319  1  0.50812756  0.11225120  -0.00450654  1
  O  O320  1  0.50662011  0.12983375  0.50552134  1
  O  O321  1  0.50915084  0.62212486  0.00114406  1
  O  O322  1  0.51174365  0.62615542  0.50995913  1
  O  O323  1  0.48773550  0.36560666  0.49361994  1
  O  O324  1  0.49326262  0.38441295  0.99700510  1
  O  O325  1  0.48811395  0.87269542  0.50879555  1
  O  O326  1  0.50414816  0.88492332  0.99009419  1
  O  O327  1  0.98961245  0.38557437  0.50563934  1
  O  O328  1  0.97690880  0.38770561  1.00762860  1
  O  O329  1  0.99219920  0.87062993  0.48661794  1
  O  O330  1  1.02003549  0.89759827  0.98066892  1
  O  O331  1  0.48955592  0.48863469  0.37667873  1
  O  O332  1  0.49262118  0.49509238  0.87981303  1
  O  O333  1  0.48920098  1.00813694  0.37392668  1
  O  O334  1  0.49516174  0.99528639  0.88261271  1
  O  O335  1  0.98939391  0.50351747  0.38561787  1
  O  O336  1  0.98946193  0.49835845  0.87723242  1
  O  O337  1  0.99148584  0.98990592  0.37513018  1
  O  O338  1  0.99416667  1.00005085  0.87607880  1
  O  O339  1  0.01495368  0.00228644  0.11552371  1
  O  O340  1  0.00629232  0.00430374  0.62318462  1
  O  O341  1  0.01209811  0.49898957  0.12958484  1
  O  O342  1  -0.00253917  0.50927973  0.61761720  1
  O  O343  1  0.49777346  -0.00000101  0.11116528  1
  O  O344  1  0.49914943  0.01182508  0.62834984  1
  O  O345  1  0.49894062  0.51274625  0.12087887  1
  O  O346  1  0.51073381  0.50324219  0.63185201  1
  O  O347  1  0.24816860  0.37382356  0.23969519  1
  O  O348  1  0.25718017  0.38425151  0.74095002  1
  O  O349  1  0.23582787  0.88029670  0.24712950  1
  O  O350  1  0.24143073  0.87557652  0.74015333  1
  O  O351  1  0.74923599  0.37353117  0.23577664  1
  O  O352  1  0.74113313  0.38553080  0.73759706  1
  O  O353  1  0.73528752  0.87715432  0.24839734  1
  O  O354  1  0.73640743  0.88215262  0.75063133  1
  O  O355  1  0.26190202  0.11931551  0.25731742  1
  O  O356  1  0.25815212  0.12016279  0.75808797  1
  O  O357  1  0.24325518  0.62385301  0.26700304  1
  O  O358  1  0.25567687  0.61798037  0.75299432  1
  O  O359  1  0.76314744  0.12005593  0.25939983  1
  O  O360  1  0.74306028  0.11455061  0.75430420  1
  O  O361  1  0.75921443  0.62534719  0.25712809  1
  O  O362  1  0.74092461  0.61351781  0.75077816  1
  O  O363  1  0.36628258  0.11428783  0.37106252  1
  O  O364  1  0.36745097  0.11746121  0.87141203  1
  O  O365  1  0.36269623  0.60983048  0.38865446  1
  O  O366  1  0.37167009  0.62174596  0.87113309  1
  O  O367  1  0.87038173  0.11897626  0.36813290  1
  O  O368  1  0.87567060  0.11471146  0.87691540  1
  O  O369  1  0.86617148  0.61483460  0.37265102  1
  O  O370  1  0.87312578  0.61394192  0.87885685  1
  O  O371  1  0.13160366  0.38219396  0.13261063  1
  O  O372  1  0.13636507  0.37453109  0.61747508  1
  O  O373  1  0.13048363  0.88152655  0.13159447  1
  O  O374  1  0.12693006  0.87678769  0.63079024  1
  O  O375  1  0.63542916  0.37376888  0.12331075  1
  O  O376  1  0.62783121  0.38052787  0.62510971  1
  O  O377  1  0.61968996  0.88985762  0.13346349  1
  O  O378  1  0.62501462  0.87738471  0.63417402  1
  O  O379  1  0.12785722  0.26254120  0.25437956  1
  O  O380  1  0.13465622  0.25462101  0.75331807  1
  O  O381  1  0.12111666  0.75555101  0.25992650  1
  O  O382  1  0.11718635  0.75977669  0.75703445  1
  O  O383  1  0.61224655  0.24796376  0.24426347  1
  O  O384  1  0.61632223  0.25805171  0.75449170  1
  O  O385  1  0.62647296  0.76271707  0.25238144  1
  O  O386  1  0.61929577  0.75705562  0.75781836  1
  O  O387  1  0.38050630  0.24155344  0.24507423  1
  O  O388  1  0.37889458  0.24302628  0.74370275  1
  O  O389  1  0.37103130  0.76123747  0.22623816  1
  O  O390  1  0.37885278  0.74608001  0.74679480  1
  O  O391  1  0.88121476  0.24379242  0.23055618  1
  O  O392  1  0.87348635  0.25468325  0.73759514  1
  O  O393  1  0.88158011  0.73579033  0.25444461  1
  O  O394  1  0.87749951  0.75782412  0.74798343  1
  O  O395  1  0.36981761  0.48608297  0.49654630  1
  O  O396  1  0.37769598  0.49849210  0.99562840  1
  O  O397  1  0.37076993  0.99049675  0.48618974  1
  O  O398  1  0.38844596  1.00525728  0.99218778  1
  O  O399  1  0.87929261  0.49164051  0.49302586  1
  O  O400  1  0.87045326  0.49578398  0.98992106  1
  O  O401  1  0.87766333  0.99009664  0.48961642  1
  O  O402  1  0.88525742  1.00139604  0.99549091  1
  O  O403  1  0.12453978  0.01124104  0.00722701  1
  O  O404  1  0.12180712  -0.01373571  0.51177123  1
  O  O405  1  0.12087504  0.51296888  0.01353518  1
  O  O406  1  0.11538759  0.50286800  0.50161350  1
  O  O407  1  0.61529648  -0.00274144  0.01188420  1
  O  O408  1  0.63132628  0.01756281  0.49999351  1
  O  O409  1  0.61856182  0.51000286  0.00081636  1
  O  O410  1  0.62929234  0.50887820  0.51018887  1
  O  O411  1  0.37024831  0.37010121  0.12305341  1
  O  O412  1  0.36691553  0.36861451  0.61807564  1
  O  O413  1  0.36019733  0.87461695  0.12151839  1
  O  O414  1  0.36889630  0.87022749  0.61992172  1
  O  O415  1  0.86529420  0.36315788  0.12087656  1
  O  O416  1  0.86426165  0.36893740  0.61582557  1
  O  O417  1  0.92529185  0.86155580  0.10462804  1
  O  O418  1  0.87532133  0.87374589  0.60865401  1
  O  O419  1  0.13791038  0.13187932  0.36596955  1
  O  O420  1  0.14012299  0.12032930  0.88251487  1
  O  O421  1  0.12916187  0.62393525  0.38778920  1
  O  O422  1  0.12493112  0.63720542  0.88537539  1
  O  O423  1  0.64292527  0.12375268  0.37309652  1
  O  O424  1  0.62024242  0.14395867  0.86894505  1
  O  O425  1  0.63058203  0.62448336  0.38245389  1
  O  O426  1  0.62317845  0.63651807  0.88269538  1
