# generated using pymatgen
data_V85Zn86O256
_symmetry_space_group_name_H-M   'P 1'
_cell_length_a   16.90951428
_cell_length_b   16.90970603
_cell_length_c   16.90770782
_cell_angle_alpha   90.00104249
_cell_angle_beta   89.99645366
_cell_angle_gamma   89.97246917
_symmetry_Int_Tables_number   1
_chemical_formula_structural   V85Zn86O256
_chemical_formula_sum   'V85 Zn86 O256'
_cell_volume   4834.50344238
_cell_formula_units_Z   1
loop_
 _symmetry_equiv_pos_site_id
 _symmetry_equiv_pos_as_xyz
  1  'x, y, z'
loop_
 _atom_site_type_symbol
 _atom_site_label
 _atom_site_symmetry_multiplicity
 _atom_site_fract_x
 _atom_site_fract_y
 _atom_site_fract_z
 _atom_site_occupancy
  V  V0  1  0.36755160  0.61847722  0.74840612  1
  V  V1  1  0.25431632  0.00502970  0.76875555  1
  V  V2  1  0.00382583  0.49388560  0.01245436  1
  V  V3  1  0.11703491  0.13110508  -0.01140245  1
  V  V4  1  0.12673515  0.12501951  0.50095367  1
  V  V5  1  0.12259019  0.64097843  0.00263384  1
  V  V6  1  0.62890177  0.37163997  0.24549454  1
  V  V7  1  0.37239872  0.62252879  0.24741759  1
  V  V8  1  0.00198123  0.12998580  0.63009215  1
  V  V9  1  0.49688867  0.00549118  -0.00178082  1
  V  V10  1  0.75263341  0.74145769  0.49524134  1
  V  V11  1  0.00075251  -0.00089821  0.50021607  1
  V  V12  1  0.25217700  0.12689339  0.37544926  1
  V  V13  1  0.24985901  0.25553477  0.50154275  1
  V  V14  1  0.87727035  0.75038034  0.62562649  1
  V  V15  1  0.49698104  0.62520758  0.12020137  1
  V  V16  1  0.37672385  0.87301341  0.49942479  1
  V  V17  1  0.38250125  0.75089013  0.63154232  1
  V  V18  1  0.12800861  -0.00146664  0.62776479  1
  V  V19  1  0.25185041  0.87755192  0.62599102  1
  V  V20  1  0.50285742  0.00237242  0.50082968  1
  V  V21  1  0.00259374  0.24615927  0.23794417  1
  V  V22  1  0.75804313  0.37284767  0.61688234  1
  V  V23  1  0.00198976  0.74311970  0.24794320  1
  V  V24  1  0.37626006  0.00213218  0.37289233  1
  V  V25  1  0.49622856  0.50356726  -0.00352076  1
  V  V26  1  0.50046700  0.87352616  0.37329411  1
  V  V27  1  0.00290794  0.87746922  0.36698638  1
  V  V28  1  0.50516920  0.62601735  0.62850707  1
  V  V29  1  0.62570180  0.87420154  0.24673853  1
  V  V30  1  0.63018237  0.74128208  0.37185307  1
  V  V31  1  0.37245841  0.37173668  0.00675222  1
  V  V32  1  0.36965347  0.88107520  -0.00547144  1
  V  V33  1  0.37695985  0.12482800  0.76192546  1
  V  V34  1  0.75470771  0.87617574  0.11921645  1
  V  V35  1  0.50088595  0.74975656  0.24761233  1
  V  V36  1  0.87531520  0.62433099  0.75281861  1
  V  V37  1  0.62557571  0.13295693  0.00374265  1
  V  V38  1  0.11944775  0.01216987  0.12950032  1
  V  V39  1  -0.00475354  -0.00147444  0.00655876  1
  V  V40  1  0.86072787  0.37184759  0.00629060  1
  V  V41  1  0.85842625  0.24698349  0.12284292  1
  V  V42  1  0.87539090  -0.00804708  0.88177774  1
  V  V43  1  0.50311271  0.12901989  0.63005320  1
  V  V44  1  0.75394490  0.75344107  -0.00422494  1
  V  V45  1  0.87694452  0.74484645  0.12234496  1
  V  V46  1  0.87934545  0.13117238  0.75253012  1
  V  V47  1  0.74776915  0.62390834  0.87584333  1
  V  V48  1  0.24499094  -0.00204982  0.25065789  1
  V  V49  1  0.74902993  0.00473877  0.25652977  1
  V  V50  1  0.00826621  0.75190141  0.75858307  1
  V  V51  1  0.88235739  0.49289127  0.87780138  1
  V  V52  1  -0.00025712  0.48759167  0.49820796  1
  V  V53  1  0.12696027  0.75410388  0.37220622  1
  V  V54  1  0.24177394  0.87538569  0.12498343  1
  V  V55  1  0.50097346  0.49787396  0.49777541  1
  V  V56  1  0.62514439  0.36247068  0.74747853  1
  V  V57  1  0.63138933  0.49676439  0.12048487  1
  V  V58  1  0.13079397  0.49740429  0.63755698  1
  V  V59  1  0.86860755  0.62448156  0.25790960  1
  V  V60  1  0.05872997  0.30882269  0.81046308  1
  V  V61  1  0.76117708  0.24512221  0.49068926  1
  V  V62  1  0.74686648  0.50197522  0.25833850  1
  V  V63  1  0.00365491  0.62520204  0.62251164  1
  V  V64  1  0.74741004  0.49601154  0.75083691  1
  V  V65  1  0.62014444  0.00317610  0.12367334  1
  V  V66  1  0.12157729  0.37711011  0.25215984  1
  V  V67  1  0.62287235  0.24199863  0.37548464  1
  V  V68  1  0.37934347  0.25062291  0.62966873  1
  V  V69  1  0.75136933  0.13368462  0.88028153  1
  V  V70  1  0.87651218  0.87544072  0.49782494  1
  V  V71  1  0.49795600  0.87904374  0.86928208  1
  V  V72  1  0.74966471  0.00027088  0.75207561  1
  V  V73  1  0.87631588  0.12542331  0.25320530  1
  V  V74  1  0.49939207  0.36809152  0.86960933  1
  V  V75  1  0.36269344  0.49718768  0.86822118  1
  V  V76  1  0.37678827  0.12758404  0.23444489  1
  V  V77  1  0.74963238  0.87515982  0.62492039  1
  V  V78  1  0.36871479  0.75296668  0.12024807  1
  V  V79  1  0.24993547  0.24313011  -0.01137085  1
  V  V80  1  0.24929014  0.62313867  0.37477490  1
  V  V81  1  0.49464018  0.24766827  0.23591701  1
  V  V82  1  0.24943522  0.37690780  0.64181719  1
  V  V83  1  0.24640138  0.36853444  0.12525629  1
  V  V84  1  0.61642317  0.74988816  0.86959715  1
  Zn  Zn85  1  0.49661331  0.37248736  0.37378240  1
  Zn  Zn86  1  0.23597759  0.63966716  0.87579617  1
  Zn  Zn87  1  0.62567503  0.24917122  0.87660265  1
  Zn  Zn88  1  0.62725003  0.49860474  0.62168866  1
  Zn  Zn89  1  0.62999743  0.61983473  0.49665868  1
  Zn  Zn90  1  0.12941917  0.87222300  0.75927808  1
  Zn  Zn91  1  0.62173766  0.62673871  -0.00239822  1
  Zn  Zn92  1  0.87020582  0.00470085  0.37743097  1
  Zn  Zn93  1  0.12783795  0.62359181  0.49929002  1
  Zn  Zn94  1  0.62634022  0.00123655  0.62551227  1
  Zn  Zn95  1  0.24847583  0.49737418  0.24770976  1
  Zn  Zn96  1  0.12207580  0.25097521  0.37423610  1
  Zn  Zn97  1  0.63039839  0.12384197  0.49822829  1
  Zn  Zn98  1  0.37392631  0.49669961  0.37494172  1
  Zn  Zn99  1  0.12439079  0.50577920  0.12700230  1
  Zn  Zn100  1  0.86401229  0.49890178  0.38735963  1
  Zn  Zn101  1  0.00415235  0.86876390  0.88645603  1
  Zn  Zn102  1  0.37498877  0.37636324  0.49939869  1
  Zn  Zn103  1  0.62052920  0.87223821  0.74733036  1
  Zn  Zn104  1  0.25099480  0.74917825  0.50059491  1
  Zn  Zn105  1  -0.01236863  0.36802542  0.37483045  1
  Zn  Zn106  1  0.88167373  0.25572474  0.62326578  1
  Zn  Zn107  1  0.19060028  0.18971655  0.18378585  1
  Zn  Zn108  1  0.18967186  0.18781672  0.69313610  1
  Zn  Zn109  1  0.18391148  0.68621962  0.18390080  1
  Zn  Zn110  1  0.19004113  0.68725399  0.68624868  1
  Zn  Zn111  1  0.68570516  0.18457355  0.18933071  1
  Zn  Zn112  1  0.69316157  0.18652217  0.68281441  1
  Zn  Zn113  1  0.68791379  0.68356772  0.18284029  1
  Zn  Zn114  1  0.68704209  0.68758305  0.68785485  1
  Zn  Zn115  1  0.31338199  0.31320313  0.31321578  1
  Zn  Zn116  1  0.31447909  0.30784846  0.81460901  1
  Zn  Zn117  1  0.31170153  0.81224001  0.30860892  1
  Zn  Zn118  1  0.31149159  0.81375705  0.81159037  1
  Zn  Zn119  1  0.81206258  0.31623941  0.31156670  1
  Zn  Zn120  1  0.81991015  0.31419198  0.81324186  1
  Zn  Zn121  1  0.81381368  0.81571344  0.31065241  1
  Zn  Zn122  1  0.81502553  0.81235866  0.81221211  1
  Zn  Zn123  1  0.18377431  0.43913126  0.43859588  1
  Zn  Zn124  1  0.18338627  0.43245868  0.93221554  1
  Zn  Zn125  1  0.18726436  0.93618005  0.43772293  1
  Zn  Zn126  1  0.17987722  0.93474655  0.94140680  1
  Zn  Zn127  1  0.68296505  0.42904574  0.43562096  1
  Zn  Zn128  1  0.68596434  0.43648462  0.93498060  1
  Zn  Zn129  1  0.68535704  0.93151746  0.43707197  1
  Zn  Zn130  1  0.68492668  0.93890152  0.93711822  1
  Zn  Zn131  1  0.30740090  0.06179525  0.05838665  1
  Zn  Zn132  1  0.31650158  0.06476517  0.56504209  1
  Zn  Zn133  1  0.30404960  0.56018368  0.05822044  1
  Zn  Zn134  1  0.31366584  0.56183259  0.56134206  1
  Zn  Zn135  1  0.81050882  0.06539673  0.06570373  1
  Zn  Zn136  1  0.81465465  0.06506474  0.56306957  1
  Zn  Zn137  1  0.81252856  0.56508941  0.06369187  1
  Zn  Zn138  1  0.81612522  0.56070873  0.56634707  1
  Zn  Zn139  1  0.43968390  0.43593678  0.18544386  1
  Zn  Zn140  1  0.43981796  0.43719381  0.68504391  1
  Zn  Zn141  1  0.43505708  0.93932837  0.18461415  1
  Zn  Zn142  1  0.43550367  0.94279349  0.68865455  1
  Zn  Zn143  1  0.93168263  0.43317112  0.19016986  1
  Zn  Zn144  1  0.94045994  0.43762906  0.68893323  1
  Zn  Zn145  1  0.93591811  0.93535356  0.18699200  1
  Zn  Zn146  1  0.93692929  0.93983735  0.68986591  1
  Zn  Zn147  1  0.06086379  0.06718073  0.31246628  1
  Zn  Zn148  1  0.06277790  0.05906327  0.81520427  1
  Zn  Zn149  1  0.06186250  0.56385526  0.31191550  1
  Zn  Zn150  1  0.06207519  0.56294097  0.81846572  1
  Zn  Zn151  1  0.56075413  0.06550912  0.30939550  1
  Zn  Zn152  1  0.56421110  0.06296832  0.81404263  1
  Zn  Zn153  1  0.56013821  0.56071853  0.31044005  1
  Zn  Zn154  1  0.55840437  0.55983669  0.81131040  1
  Zn  Zn155  1  0.43812259  0.18899333  0.43754335  1
  Zn  Zn156  1  0.43876874  0.18976904  0.94491065  1
  Zn  Zn157  1  0.43827618  0.68476288  0.43958552  1
  Zn  Zn158  1  0.40786452  0.70422889  0.91913344  1
  Zn  Zn159  1  0.94066663  0.18674153  0.43188283  1
  Zn  Zn160  1  0.93740272  0.18865860  0.94013325  1
  Zn  Zn161  1  0.93890329  0.68436013  0.43588055  1
  Zn  Zn162  1  0.93959195  0.67917671  0.94190636  1
  Zn  Zn163  1  0.05838470  0.31421719  0.05950822  1
  Zn  Zn164  1  0.06829284  0.31294834  0.57010891  1
  Zn  Zn165  1  0.06012947  0.81900327  0.06796452  1
  Zn  Zn166  1  0.06603161  0.81178798  0.56123964  1
  Zn  Zn167  1  0.56133541  0.31559182  0.06098538  1
  Zn  Zn168  1  0.56685223  0.31227568  0.56155808  1
  Zn  Zn169  1  0.56181361  0.81384977  0.05640822  1
  Zn  Zn170  1  0.56548761  0.81066319  0.56041737  1
  O  O171  1  0.12998097  0.11542003  0.11754960  1
  O  O172  1  0.12107905  0.11839255  0.62072954  1
  O  O173  1  0.12361387  0.62211636  0.11185162  1
  O  O174  1  0.12139936  0.61665605  0.62310448  1
  O  O175  1  0.62994004  0.11376079  0.11773638  1
  O  O176  1  0.61746318  0.12260641  0.62260233  1
  O  O177  1  0.61374625  0.61773978  0.12058447  1
  O  O178  1  0.61872206  0.62364665  0.62132353  1
  O  O179  1  0.37792045  0.37796251  0.37971116  1
  O  O180  1  0.38070116  0.38023458  0.88046472  1
  O  O181  1  0.38103908  0.88051856  0.37776797  1
  O  O182  1  0.38290221  0.87655739  0.88731439  1
  O  O183  1  0.87656785  0.38853084  0.36497274  1
  O  O184  1  0.86941363  0.38074860  0.89149515  1
  O  O185  1  0.88430529  0.87721639  0.38153825  1
  O  O186  1  0.87802913  0.88868750  0.87235912  1
  O  O187  1  0.25483622  0.00464591  0.36865412  1
  O  O188  1  0.25004452  -0.00083875  0.86660689  1
  O  O189  1  0.25104558  0.51037815  0.37174683  1
  O  O190  1  0.26159651  0.50316793  0.87976768  1
  O  O191  1  0.74949536  -0.00983775  0.36080982  1
  O  O192  1  0.75577820  0.00544279  0.86932710  1
  O  O193  1  0.74272410  0.49937281  0.36232269  1
  O  O194  1  0.75667806  0.50362087  0.86858536  1
  O  O195  1  0.24721870  0.48431111  0.12540996  1
  O  O196  1  0.23837174  0.49356641  0.62038797  1
  O  O197  1  0.24226394  0.99640985  0.13333090  1
  O  O198  1  0.24888955  0.98927123  0.62540907  1
  O  O199  1  0.73465309  0.50757246  0.13115969  1
  O  O200  1  0.74972037  0.49265581  0.63257482  1
  O  O201  1  0.74239961  0.99161269  0.13108616  1
  O  O202  1  0.75093637  0.99251272  0.63178905  1
  O  O203  1  0.00709773  0.36742377  0.24934558  1
  O  O204  1  -0.00751059  0.36371776  0.75362604  1
  O  O205  1  -0.00706049  0.86465195  0.26226281  1
  O  O206  1  -0.00086790  0.85917909  0.74677985  1
  O  O207  1  0.50634500  0.36346066  0.24886864  1
  O  O208  1  0.51249327  0.38129029  0.75688552  1
  O  O209  1  0.50516276  0.87005748  0.25248965  1
  O  O210  1  0.50001130  0.88400535  0.76392524  1
  O  O211  1  0.49161967  0.13724764  0.25041203  1
  O  O212  1  0.49364065  0.11560703  0.73766663  1
  O  O213  1  0.49162775  0.62996301  0.24191530  1
  O  O214  1  0.49349971  0.61733221  0.73346124  1
  O  O215  1  0.99051238  0.13212356  0.24812496  1
  O  O216  1  0.99226714  0.11339663  0.74079215  1
  O  O217  1  0.99059277  0.63657154  0.25324873  1
  O  O218  1  0.99684213  0.63284526  0.74203185  1
  O  O219  1  0.36073983  0.25633215  -0.00207931  1
  O  O220  1  0.36683878  0.24882622  0.51160254  1
  O  O221  1  0.38534093  0.76499323  0.01711968  1
  O  O222  1  0.37453887  0.75657155  0.50867479  1
  O  O223  1  0.87569573  0.25906605  0.01171792  1
  O  O224  1  0.86472500  0.24636785  0.49839428  1
  O  O225  1  0.86447844  0.74437911  0.00669675  1
  O  O226  1  0.87111829  0.75451901  0.50417171  1
  O  O227  1  0.13362579  0.24322606  0.50066251  1
  O  O228  1  0.13109453  0.23786543  1.00621770  1
  O  O229  1  0.12795721  0.74718101  0.48678246  1
  O  O230  1  0.11336262  0.74034889  1.00362391  1
  O  O231  1  0.63315741  0.24759108  0.49012183  1
  O  O232  1  0.62011800  0.23705285  1.00112282  1
  O  O233  1  0.63526351  0.74879696  0.48957619  1
  O  O234  1  0.63523805  0.74909988  0.98976386  1
  O  O235  1  0.50098324  0.25016714  0.13704017  1
  O  O236  1  0.49248342  0.24154325  0.61980069  1
  O  O237  1  0.49488013  0.74664733  0.13008628  1
  O  O238  1  0.49459468  0.74069529  0.61802899  1
  O  O239  1  0.98921832  0.25388159  0.13448918  1
  O  O240  1  0.99894657  0.23427161  0.61660477  1
  O  O241  1  0.98852208  0.75944057  0.13611118  1
  O  O242  1  0.99706685  0.74297039  0.63085452  1
  O  O243  1  0.00280505  0.25062646  0.36028603  1
  O  O244  1  0.00397362  0.24640384  0.87108279  1
  O  O245  1  0.00649664  0.75575057  0.36942445  1
  O  O246  1  -0.01128825  0.74882806  0.86077668  1
  O  O247  1  0.50767301  0.25068477  0.36797699  1
  O  O248  1  0.50147809  0.26426417  0.87973160  1
  O  O249  1  0.50576359  0.75408235  0.36811786  1
  O  O250  1  0.50663861  0.76239124  0.88310902  1
  O  O251  1  0.24738108  0.13374964  0.49810316  1
  O  O252  1  0.24120929  0.13733534  1.00261371  1
  O  O253  1  0.25103742  0.62871500  0.48850734  1
  O  O254  1  0.22868370  0.62169272  0.99874155  1
  O  O255  1  0.74900587  0.13958488  0.50297814  1
  O  O256  1  0.73918979  0.11774307  0.99115220  1
  O  O257  1  0.75237721  0.63757714  0.50540652  1
  O  O258  1  0.74641563  0.63285536  0.99275531  1
  O  O259  1  0.25316362  0.36594963  0.00322367  1
  O  O260  1  0.24822192  0.36418701  0.50536649  1
  O  O261  1  0.26003397  0.88548666  0.01062282  1
  O  O262  1  0.25882815  0.87470243  0.50785416  1
  O  O263  1  0.76130731  0.38073143  0.00302437  1
  O  O264  1  0.74602948  0.36176655  0.50641644  1
  O  O265  1  0.74668367  0.86770815  0.00719955  1
  O  O266  1  0.75548568  0.86664819  0.50712571  1
  O  O267  1  0.12439198  0.49212375  0.24687496  1
  O  O268  1  0.11978054  0.50588717  0.73615892  1
  O  O269  1  0.13469728  1.00744198  0.24466668  1
  O  O270  1  0.13979547  1.00112703  0.74433999  1
  O  O271  1  0.62694571  0.49262169  0.24234298  1
  O  O272  1  0.63797480  0.49284931  0.75102607  1
  O  O273  1  0.62962455  0.99664686  0.24260532  1
  O  O274  1  0.63940463  0.99705586  0.74980017  1
  O  O275  1  0.36981576  0.00847796  0.25412585  1
  O  O276  1  0.36199129  0.00892108  0.74828380  1
  O  O277  1  0.37564007  0.51302238  0.24788968  1
  O  O278  1  0.37610055  0.50447822  0.75501645  1
  O  O279  1  0.86633552  0.00763365  0.24768875  1
  O  O280  1  0.86626104  0.00653063  0.75769951  1
  O  O281  1  0.86138231  0.50926590  0.24222758  1
  O  O282  1  0.86674511  0.50197977  0.75855587  1
  O  O283  1  0.12415756  0.37294741  0.36214133  1
  O  O284  1  0.11603090  0.37236422  0.86687360  1
  O  O285  1  0.11654546  0.86733140  0.37735416  1
  O  O286  1  0.11726286  0.87655523  0.87177298  1
  O  O287  1  0.61989651  0.36231757  0.36283474  1
  O  O288  1  0.61913835  0.37110395  0.86736710  1
  O  O289  1  0.61824095  0.86448618  0.36707750  1
  O  O290  1  0.61603501  0.86816419  0.87446314  1
  O  O291  1  0.37047700  0.12138317  0.13541169  1
  O  O292  1  0.38346408  0.13183075  0.63189877  1
  O  O293  1  0.37464146  0.63299550  0.12744738  1
  O  O294  1  0.38054030  0.63112548  0.62939011  1
  O  O295  1  0.87089976  0.13967726  0.13154319  1
  O  O296  1  0.88532332  0.12324622  0.63454547  1
  O  O297  1  0.86901192  0.63930237  0.13483061  1
  O  O298  1  0.88463284  0.62897378  0.63350855  1
  O  O299  1  0.24844793  0.26213319  0.11412152  1
  O  O300  1  0.25568246  0.25718108  0.61994800  1
  O  O301  1  0.25697004  0.76262230  0.13391524  1
  O  O302  1  0.25765992  0.76264526  0.62532891  1
  O  O303  1  0.75949358  0.25108082  0.12812914  1
  O  O304  1  0.75456947  0.25606651  0.61184010  1
  O  O305  1  0.75280438  0.75620103  0.11545036  1
  O  O306  1  0.75662663  0.75696041  0.61942483  1
  O  O307  1  0.24921185  0.24349077  0.38439365  1
  O  O308  1  0.24703258  0.25242343  0.88963788  1
  O  O309  1  0.24315174  0.74467224  0.37263595  1
  O  O310  1  0.29888910  0.73303161  0.88464082  1
  O  O311  1  0.74310056  0.25402959  0.38505380  1
  O  O312  1  0.75175375  0.23656924  0.87295359  1
  O  O313  1  0.74285904  0.75716383  0.38320350  1
  O  O314  1  0.74606883  0.74638221  0.88072246  1
  O  O315  1  0.01108323  0.11888114  0.00099552  1
  O  O316  1  0.00587476  0.11679714  0.50453231  1
  O  O317  1  0.00843361  0.60813853  -0.00073043  1
  O  O318  1  0.00238033  0.62299595  0.51354112  1
  O  O319  1  0.50777010  0.11414650  -0.00278215  1
  O  O320  1  0.50050565  0.11701512  0.50901371  1
  O  O321  1  0.49597537  0.61350050  0.00237636  1
  O  O322  1  0.50207412  0.61588987  0.50857062  1
  O  O323  1  0.50079070  0.38605030  0.50078446  1
  O  O324  1  0.49016711  0.38123889  0.99453132  1
  O  O325  1  0.49685696  0.88190544  0.49438014  1
  O  O326  1  0.49337234  0.88613975  0.99411275  1
  O  O327  1  1.00455375  0.38450012  0.50046645  1
  O  O328  1  0.98674186  0.38779727  1.00296289  1
  O  O329  1  0.99656960  0.87973646  0.49277833  1
  O  O330  1  0.99950985  0.89236101  1.00333192  1
  O  O331  1  0.49778505  0.49893215  0.38364896  1
  O  O332  1  0.49755057  0.48779550  0.88345026  1
  O  O333  1  0.49656094  0.99543648  0.37981369  1
  O  O334  1  0.50700358  0.99230535  0.88693668  1
  O  O335  1  1.00470215  0.50153290  0.39294622  1
  O  O336  1  0.98521029  0.50271815  0.88347995  1
  O  O337  1  1.00037031  0.99201103  0.38023046  1
  O  O338  1  0.99034063  1.00081437  0.88591681  1
  O  O339  1  0.00852118  -0.00357638  0.12269668  1
  O  O340  1  0.00717380  0.00517466  0.61998690  1
  O  O341  1  -0.00314170  0.49797179  0.11476174  1
  O  O342  1  0.00858802  0.50516393  0.61938376  1
  O  O343  1  0.51323841  -0.00742266  0.11774362  1
  O  O344  1  0.50223964  0.00568154  0.61607696  1
  O  O345  1  0.50521004  0.50384703  0.11441599  1
  O  O346  1  0.50413869  0.50660650  0.61533404  1
  O  O347  1  0.24267397  0.37286678  0.24230658  1
  O  O348  1  0.25559090  0.37361093  0.74093859  1
  O  O349  1  0.25667513  0.89056135  0.24283692  1
  O  O350  1  0.25385291  0.88689565  0.74464312  1
  O  O351  1  0.73516463  0.38227295  0.24761945  1
  O  O352  1  0.74571439  0.37973586  0.74523453  1
  O  O353  1  0.74309769  0.88042205  0.24089506  1
  O  O354  1  0.75193726  0.88141320  0.74104354  1
  O  O355  1  0.25737401  0.11960062  0.25504267  1
  O  O356  1  0.25923587  0.11206899  0.74687280  1
  O  O357  1  0.25686864  0.62432209  0.25532773  1
  O  O358  1  0.26314222  0.62769267  0.75284426  1
  O  O359  1  0.75749759  0.11374565  0.24512727  1
  O  O360  1  0.75656069  0.11671796  0.75598696  1
  O  O361  1  0.75570254  0.61703269  0.24812212  1
  O  O362  1  0.75521000  0.61629146  0.75391080  1
  O  O363  1  0.36935918  0.11883347  0.36999143  1
  O  O364  1  0.38396497  0.13252602  0.86116157  1
  O  O365  1  0.36706135  0.62743478  0.36409254  1
  O  O366  1  0.39424937  0.60631026  0.85848225  1
  O  O367  1  0.87562220  0.12272048  0.35937026  1
  O  O368  1  0.86909976  0.11709746  0.87083375  1
  O  O369  1  0.87631891  0.61898622  0.36329778  1
  O  O370  1  0.86751296  0.61606840  0.87068206  1
  O  O371  1  0.12964509  0.37506055  0.13514356  1
  O  O372  1  0.13339134  0.38851973  0.62616365  1
  O  O373  1  0.13675020  0.88826023  0.12169483  1
  O  O374  1  0.13544249  0.87922848  0.62972956  1
  O  O375  1  0.61836221  0.38507125  0.13140434  1
  O  O376  1  0.63661376  0.37579734  0.63241618  1
  O  O377  1  0.63367432  0.87990214  0.12763353  1
  O  O378  1  0.63729502  0.87552032  0.62611151  1
  O  O379  1  0.11778038  0.25467983  0.24821769  1
  O  O380  1  0.11812941  0.25275715  0.74751167  1
  O  O381  1  0.11536762  0.74589936  0.26021585  1
  O  O382  1  0.11175332  0.74830053  0.74720859  1
  O  O383  1  0.61604998  0.25331995  0.25270431  1
  O  O384  1  0.63129464  0.25945327  0.75115957  1
  O  O385  1  0.62237477  0.75386147  0.25313901  1
  O  O386  1  0.63091731  0.75324094  0.76485840  1
  O  O387  1  0.38716385  0.24358616  0.25210226  1
  O  O388  1  0.37021688  0.24086364  0.73762727  1
  O  O389  1  0.37979102  0.74174114  0.24050172  1
  O  O390  1  0.37895481  0.74261316  0.73556711  1
  O  O391  1  0.87702683  0.24479237  0.23941841  1
  O  O392  1  0.86897205  0.23425850  0.74608672  1
  O  O393  1  0.87820724  0.74259798  0.24542190  1
  O  O394  1  0.88164971  0.74378341  0.74294823  1
  O  O395  1  0.38605912  0.49888424  0.49850338  1
  O  O396  1  0.37944240  0.49257393  0.99208767  1
  O  O397  1  0.38611239  0.99531689  0.49496255  1
  O  O398  1  0.38503514  0.99406057  1.00774629  1
  O  O399  1  0.89446319  0.50590964  0.50355927  1
  O  O400  1  0.87850277  0.49254284  0.99841678  1
  O  O401  1  0.88112009  0.99440668  0.49786118  1
  O  O402  1  0.88263205  1.00888033  0.99476213  1
  O  O403  1  0.11867761  0.01296298  0.00909301  1
  O  O404  1  0.12197309  0.00474157  0.50779357  1
  O  O405  1  0.10999052  0.49241908  0.00286242  1
  O  O406  1  0.11412104  0.50336495  0.51004273  1
  O  O407  1  0.61852257  0.00706462  0.00699504  1
  O  O408  1  0.61465765  0.00086811  0.49868403  1
  O  O409  1  0.61589891  0.50001877  0.00455972  1
  O  O410  1  0.61804139  0.50165773  0.49931892  1
  O  O411  1  0.36875738  0.37917857  0.11197401  1
  O  O412  1  0.36879106  0.36725276  0.62292008  1
  O  O413  1  0.36506917  0.87132070  0.12050350  1
  O  O414  1  0.37220613  0.86943126  0.62139826  1
  O  O415  1  0.87304159  0.36363484  0.11580896  1
  O  O416  1  0.86250436  0.37402144  0.62943081  1
  O  O417  1  0.86099904  0.86313147  0.13176239  1
  O  O418  1  0.86731670  0.87151509  0.61936390  1
  O  O419  1  0.13386532  0.12539613  0.38424743  1
  O  O420  1  0.12597138  0.12055040  0.89048459  1
  O  O421  1  0.13424599  0.63271972  0.37491411  1
  O  O422  1  0.12281368  0.62268264  0.89202171  1
  O  O423  1  0.62387721  0.13701364  0.37377896  1
  O  O424  1  0.63322408  0.12706704  0.88260588  1
  O  O425  1  0.62057622  0.63804063  0.37370451  1
  O  O426  1  0.62769268  0.63117232  0.87478063  1
