# generated using pymatgen
data_V85Zn86O256
_symmetry_space_group_name_H-M   'P 1'
_cell_length_a   16.92954102
_cell_length_b   16.93171162
_cell_length_c   16.92518258
_cell_angle_alpha   90.03310826
_cell_angle_beta   90.04649997
_cell_angle_gamma   89.96279814
_symmetry_Int_Tables_number   1
_chemical_formula_structural   V85Zn86O256
_chemical_formula_sum   'V85 Zn86 O256'
_cell_volume   4851.53425994
_cell_formula_units_Z   1
loop_
 _symmetry_equiv_pos_site_id
 _symmetry_equiv_pos_as_xyz
  1  'x, y, z'
loop_
 _atom_site_type_symbol
 _atom_site_label
 _atom_site_symmetry_multiplicity
 _atom_site_fract_x
 _atom_site_fract_y
 _atom_site_fract_z
 _atom_site_occupancy
  V  V0  1  0.74917050  0.00260840  0.74191043  1
  V  V1  1  0.37373282  0.74948773  0.62578309  1
  V  V2  1  0.62477427  0.37281333  0.24034678  1
  V  V3  1  0.62483913  0.62406742  -0.00299371  1
  V  V4  1  0.00377027  0.37984633  0.37241740  1
  V  V5  1  0.75264434  0.75202393  0.51455910  1
  V  V6  1  0.49860308  0.14351698  0.63248299  1
  V  V7  1  0.50046699  0.75050782  0.74924990  1
  V  V8  1  0.63028960  0.87507651  0.74370688  1
  V  V9  1  0.74834168  0.49681053  0.24426256  1
  V  V10  1  -0.00190650  0.87577634  0.38458388  1
  V  V11  1  0.87987491  0.24459190  0.62446853  1
  V  V12  1  0.12651307  0.37265162  0.75267808  1
  V  V13  1  0.12813959  0.87883675  0.25558745  1
  V  V14  1  0.12532263  0.37898110  0.24568226  1
  V  V15  1  0.86180830  0.37787546  -0.00130589  1
  V  V16  1  0.25122318  0.88999531  0.63096447  1
  V  V17  1  0.61342414  -0.00186624  0.62050036  1
  V  V18  1  0.50027751  0.88510528  0.37763214  1
  V  V19  1  0.37716005  0.36695837  0.50456832  1
  V  V20  1  0.38080132  0.88900243  0.49900930  1
  V  V21  1  0.12733491  0.12683165  0.00620116  1
  V  V22  1  0.24359399  0.24731134  0.49902052  1
  V  V23  1  0.37506569  0.49808126  0.37530492  1
  V  V24  1  0.87186083  0.87270181  0.51431257  1
  V  V25  1  0.25100607  0.62451837  0.37521097  1
  V  V26  1  0.48835027  0.25262239  0.24555548  1
  V  V27  1  0.12653284  0.62486724  0.50210809  1
  V  V28  1  0.25587693  0.11436080  0.37156580  1
  V  V29  1  0.37764119  0.10329335  0.25067924  1
  V  V30  1  0.62488201  0.25237052  0.37241084  1
  V  V31  1  -0.00190729  0.25210144  0.24530436  1
  V  V32  1  0.36746583  0.13064978  0.74354922  1
  V  V33  1  0.10963191  0.01161723  0.61261761  1
  V  V34  1  0.25303034  0.75177744  0.50228336  1
  V  V35  1  0.88333175  0.12240563  0.74794419  1
  V  V36  1  0.49786392  0.12927012  0.12229703  1
  V  V37  1  0.87219356  -0.00325273  0.38245133  1
  V  V38  1  0.11846776  0.75394401  0.87314298  1
  V  V39  1  0.12759549  0.49755108  0.62516649  1
  V  V40  1  0.00110938  0.37153053  0.87827509  1
  V  V41  1  0.75433095  0.75120123  -0.00079114  1
  V  V42  1  0.75139233  0.62192241  0.86761516  1
  V  V43  1  0.74595084  0.12400819  0.37641238  1
  V  V44  1  0.49863572  0.62582221  0.12685774  1
  V  V45  1  0.12640922  0.75138645  0.37758314  1
  V  V46  1  0.13190677  0.24842779  0.88148423  1
  V  V47  1  0.12288771  0.00089830  0.13680879  1
  V  V48  1  -0.00018166  0.74987161  0.25234873  1
  V  V49  1  0.74987993  0.87222693  0.12986244  1
  V  V50  1  0.24994744  0.50126146  0.23864917  1
  V  V51  1  0.86312327  0.25399862  0.12216859  1
  V  V52  1  0.37139234  0.35555812  0.00123250  1
  V  V53  1  0.87400890  0.50157596  0.37230518  1
  V  V54  1  0.25079085  0.35375301  0.12388759  1
  V  V55  1  0.12623833  0.61836642  0.00284298  1
  V  V56  1  -0.00364332  -0.01447475  -0.00142620  1
  V  V57  1  0.24935119  0.11491127  0.87564355  1
  V  V58  1  0.37465126  0.87660081  -0.00099318  1
  V  V59  1  0.62619481  0.75429181  0.37330685  1
  V  V60  1  0.75000642  0.62657102  0.37419780  1
  V  V61  1  0.50315547  0.75513291  0.25169809  1
  V  V62  1  0.50204209  0.61696363  0.62580439  1
  V  V63  1  0.50351126  0.87604879  0.87279005  1
  V  V64  1  0.87734434  0.75380782  0.12369293  1
  V  V65  1  0.87251810  0.12521321  0.24984065  1
  V  V66  1  0.87857865  0.50231786  0.86544577  1
  V  V67  1  0.62801210  0.49482660  0.11651598  1
  V  V68  1  -0.00148500  0.63421356  0.63020141  1
  V  V69  1  0.25538883  0.49845697  0.75508092  1
  V  V70  1  0.60953747  0.25179974  0.86887897  1
  V  V71  1  0.61559436  0.12381541  0.50007760  1
  V  V72  1  0.62431886  -0.00642761  0.12407101  1
  V  V73  1  0.62612446  0.61641628  0.50312908  1
  V  V74  1  0.25577854  0.62405393  0.87542734  1
  V  V75  1  0.74454436  -0.00497024  0.25107155  1
  V  V76  1  0.25192826  0.88148546  0.13246907  1
  V  V77  1  0.12322043  0.88752269  0.75555996  1
  V  V78  1  0.48550391  0.49952245  -0.00699706  1
  V  V79  1  0.87326661  0.37509937  0.49930689  1
  V  V80  1  0.75097482  0.38780109  0.63606625  1
  V  V81  1  0.75123206  0.12828028  0.87371538  1
  V  V82  1  0.00373616  0.61962579  0.12556270  1
  V  V83  1  0.24946271  0.75345152  0.00071115  1
  V  V84  1  0.50226340  -0.00120881  -0.00316758  1
  Zn  Zn85  1  0.37114947  -0.00346867  0.86392134  1
  Zn  Zn86  1  0.10725068  0.22242831  0.38971686  1
  Zn  Zn87  1  -0.00303182  0.12312472  0.12418528  1
  Zn  Zn88  1  0.74715176  0.25091112  0.50462307  1
  Zn  Zn89  1  -0.00668839  0.76025294  0.75205855  1
  Zn  Zn90  1  0.61229753  0.38362777  0.73786544  1
  Zn  Zn91  1  0.37614143  0.62663774  0.25252724  1
  Zn  Zn92  1  0.74373081  0.25230261  -0.00143361  1
  Zn  Zn93  1  0.49966582  0.37714391  0.37276733  1
  Zn  Zn94  1  0.50186634  0.49726360  0.50031392  1
  Zn  Zn95  1  0.25225450  0.36364059  0.62957803  1
  Zn  Zn96  1  0.87460645  0.62449316  0.24812268  1
  Zn  Zn97  1  0.86920079  0.63390145  0.74363665  1
  Zn  Zn98  1  0.37493257  0.75203210  0.12858837  1
  Zn  Zn99  1  0.00094235  0.50160657  0.50176812  1
  Zn  Zn100  1  0.88243773  -0.01005319  0.87605765  1
  Zn  Zn101  1  0.62594752  0.75112737  0.87409873  1
  Zn  Zn102  1  0.62741469  0.12230006  -0.00282776  1
  Zn  Zn103  1  0.00347844  0.49726706  0.00348857  1
  Zn  Zn104  1  0.48643689  0.37458118  0.86407517  1
  Zn  Zn105  1  0.37736221  0.62170247  0.75379014  1
  Zn  Zn106  1  0.00624065  0.24236197  0.74572297  1
  Zn  Zn107  1  0.18379459  0.18137039  0.20391110  1
  Zn  Zn108  1  0.18915501  0.18524030  0.68662883  1
  Zn  Zn109  1  0.18808959  0.69111935  0.18799643  1
  Zn  Zn110  1  0.18582165  0.69089034  0.69076346  1
  Zn  Zn111  1  0.68434680  0.18376058  0.18517277  1
  Zn  Zn112  1  0.69071505  0.19479199  0.68873500  1
  Zn  Zn113  1  0.68501875  0.68493863  0.18803015  1
  Zn  Zn114  1  0.68384764  0.68420936  0.68798151  1
  Zn  Zn115  1  0.30845835  0.31068106  0.31775449  1
  Zn  Zn116  1  0.31220643  0.30661931  0.81580911  1
  Zn  Zn117  1  0.31693530  0.81516499  0.31408507  1
  Zn  Zn118  1  0.30958271  0.81353092  0.81191844  1
  Zn  Zn119  1  0.81006550  0.31506831  0.31075127  1
  Zn  Zn120  1  0.81470930  0.30835525  0.81187455  1
  Zn  Zn121  1  0.81275887  0.81157757  0.31349673  1
  Zn  Zn122  1  0.81922344  0.81490047  0.81282407  1
  Zn  Zn123  1  0.18995484  0.43479794  0.43587930  1
  Zn  Zn124  1  0.19326694  0.43651548  0.94095779  1
  Zn  Zn125  1  0.19150875  0.93967330  0.44185578  1
  Zn  Zn126  1  0.18271049  0.94004240  0.94334766  1
  Zn  Zn127  1  0.68986400  0.43520028  0.43441564  1
  Zn  Zn128  1  0.67464163  0.44799830  0.89988933  1
  Zn  Zn129  1  0.68558260  0.93489881  0.44268455  1
  Zn  Zn130  1  0.71584427  0.92304344  0.92017445  1
  Zn  Zn131  1  0.31233894  0.06276630  0.06391169  1
  Zn  Zn132  1  0.31288452  0.06943945  0.56218743  1
  Zn  Zn133  1  0.31207629  0.56546723  0.06380012  1
  Zn  Zn134  1  0.31381290  0.55943231  0.56389685  1
  Zn  Zn135  1  0.81396942  0.06347657  0.06161183  1
  Zn  Zn136  1  0.80737320  0.06460363  0.56313693  1
  Zn  Zn137  1  0.81534168  0.56267776  0.05792602  1
  Zn  Zn138  1  0.81658974  0.56335929  0.56034617  1
  Zn  Zn139  1  0.43461719  0.43686891  0.18250947  1
  Zn  Zn140  1  0.43469275  0.43463205  0.68624947  1
  Zn  Zn141  1  0.44321683  0.93300506  0.18632982  1
  Zn  Zn142  1  0.43906575  0.94420919  0.68663156  1
  Zn  Zn143  1  0.93375600  0.43763946  0.18204822  1
  Zn  Zn144  1  0.94108829  0.43718033  0.68799894  1
  Zn  Zn145  1  0.93772588  0.93657023  0.19089117  1
  Zn  Zn146  1  0.94166419  0.94165078  0.68929947  1
  Zn  Zn147  1  0.05326101  0.07191906  0.33759793  1
  Zn  Zn148  1  0.06353811  0.05816650  0.81732799  1
  Zn  Zn149  1  0.06567306  0.56219642  0.31041940  1
  Zn  Zn150  1  0.06628038  0.56192333  0.81403454  1
  Zn  Zn151  1  0.56305816  0.06327379  0.30930155  1
  Zn  Zn152  1  0.56182306  0.06520938  0.80939905  1
  Zn  Zn153  1  0.56332232  0.56344861  0.31269432  1
  Zn  Zn154  1  0.56204131  0.55676813  0.80906524  1
  Zn  Zn155  1  0.43853707  0.18641737  0.43400934  1
  Zn  Zn156  1  0.43323309  0.18190223  0.93552266  1
  Zn  Zn157  1  0.43884969  0.68882483  0.43915949  1
  Zn  Zn158  1  0.43729270  0.69112909  0.93825834  1
  Zn  Zn159  1  0.93664431  0.18709499  0.43938683  1
  Zn  Zn160  1  0.94016607  0.18419587  0.93820349  1
  Zn  Zn161  1  0.93700193  0.68734331  0.44212759  1
  Zn  Zn162  1  0.93755548  0.68885587  0.93801144  1
  Zn  Zn163  1  0.06272730  0.31225665  0.06351696  1
  Zn  Zn164  1  0.06121002  0.31332693  0.56283113  1
  Zn  Zn165  1  0.06650739  0.80972132  0.06533066  1
  Zn  Zn166  1  0.06652147  0.81931305  0.56547753  1
  Zn  Zn167  1  0.56279634  0.31101045  0.05352403  1
  Zn  Zn168  1  0.56664577  0.31712413  0.56070505  1
  Zn  Zn169  1  0.56618747  0.81299132  0.06279846  1
  Zn  Zn170  1  0.56270648  0.80848954  0.56153377  1
  O  O171  1  0.12458494  0.11761878  0.12451817  1
  O  O172  1  0.12848773  0.10986886  0.62737740  1
  O  O173  1  0.11636545  0.63536410  0.11535751  1
  O  O174  1  0.12065488  0.61875171  0.62063163  1
  O  O175  1  0.61680875  0.11119979  0.12369400  1
  O  O176  1  0.61543719  0.12642818  0.62010104  1
  O  O177  1  0.61582197  0.61852348  0.11529125  1
  O  O178  1  0.61547464  0.62680485  0.61609890  1
  O  O179  1  0.37611381  0.38238075  0.38213637  1
  O  O180  1  0.36984450  0.36878171  0.89559258  1
  O  O181  1  0.38314502  0.87109182  0.39109156  1
  O  O182  1  0.38155836  0.87719085  0.88022048  1
  O  O183  1  0.87818410  0.38316105  0.37939833  1
  O  O184  1  0.88384275  0.38058919  0.87845236  1
  O  O185  1  0.87956833  0.87915459  0.38259158  1
  O  O186  1  0.82512139  0.89361065  0.88966117  1
  O  O187  1  0.25429439  0.01491436  0.38226015  1
  O  O188  1  0.24817256  0.01063767  0.87884363  1
  O  O189  1  0.25913523  0.50318597  0.36624543  1
  O  O190  1  0.24355392  0.51037590  0.86763028  1
  O  O191  1  0.75128680  -0.00013837  0.36751411  1
  O  O192  1  0.73352202  0.01961787  0.85526558  1
  O  O193  1  0.75400779  0.50595733  0.36554320  1
  O  O194  1  0.76689215  0.51469419  0.89150741  1
  O  O195  1  0.25205077  0.49895455  0.13685459  1
  O  O196  1  0.23863186  0.50018466  0.63228214  1
  O  O197  1  0.24079038  0.98853563  0.12290503  1
  O  O198  1  0.24886608  0.99150637  0.62084286  1
  O  O199  1  0.73597213  0.50730487  0.12820595  1
  O  O200  1  0.75827313  0.48652580  0.62159773  1
  O  O201  1  0.74596063  0.99137740  0.12896643  1
  O  O202  1  0.73487213  1.01010994  0.63636148  1
  O  O203  1  0.00708358  0.37603119  0.25019068  1
  O  O204  1  0.00822059  0.37416041  0.76314427  1
  O  O205  1  0.00548532  0.86674528  0.26038397  1
  O  O206  1  0.01770805  0.87624396  0.74767886  1
  O  O207  1  0.50680251  0.36911652  0.24717429  1
  O  O208  1  0.49930580  0.37779657  0.75218221  1
  O  O209  1  0.49758530  0.86293427  0.25996271  1
  O  O210  1  0.50737833  0.87187298  0.75382042  1
  O  O211  1  0.49217970  0.13044532  0.24417800  1
  O  O212  1  0.49471796  0.12897590  0.73705465  1
  O  O213  1  0.50132694  0.63251030  0.24161877  1
  O  O214  1  0.49962932  0.62928240  0.74457078  1
  O  O215  1  0.99029776  0.13744801  0.25087825  1
  O  O216  1  0.98710293  0.12154237  0.75778058  1
  O  O217  1  1.00214611  0.63269024  0.24349727  1
  O  O218  1  1.00651234  0.62671656  0.73658148  1
  O  O219  1  0.37905498  0.25712132  0.00691533  1
  O  O220  1  0.36940825  0.26265430  0.49087643  1
  O  O221  1  0.36879519  0.75960638  0.00363194  1
  O  O222  1  0.37216986  0.75546845  0.51191267  1
  O  O223  1  0.87414196  0.25684933  0.00632357  1
  O  O224  1  0.87351165  0.25590468  0.50367361  1
  O  O225  1  0.86455994  0.74601137  0.00947918  1
  O  O226  1  0.86030736  0.75561489  0.49681849  1
  O  O227  1  0.13948898  0.26139728  0.49604532  1
  O  O228  1  0.12052427  0.23951561  0.99440233  1
  O  O229  1  0.13356699  0.74791112  0.49615553  1
  O  O230  1  0.13272804  0.74526953  0.99370348  1
  O  O231  1  0.62599684  0.24591377  0.48800668  1
  O  O232  1  0.62621420  0.24013691  0.99065079  1
  O  O233  1  0.63594348  0.74126267  0.49517896  1
  O  O234  1  0.63020756  0.73878117  1.00050327  1
  O  O235  1  0.50872664  0.23603012  0.13065197  1
  O  O236  1  0.50375897  0.24165801  0.62238872  1
  O  O237  1  0.50261771  0.74394963  0.13346212  1
  O  O238  1  0.49270143  0.74112660  0.63012000  1
  O  O239  1  0.98974195  0.25144380  0.13445850  1
  O  O240  1  0.98660726  0.25556112  0.62687115  1
  O  O241  1  0.99370794  0.74499770  0.13120684  1
  O  O242  1  1.00968193  0.73633261  0.62553576  1
  O  O243  1  -0.01116191  0.27112400  0.35778758  1
  O  O244  1  0.01044368  0.25568492  0.87295411  1
  O  O245  1  0.00500580  0.75487323  0.37181604  1
  O  O246  1  0.01495483  0.74865731  0.87755019  1
  O  O247  1  0.51100988  0.25081872  0.36354866  1
  O  O248  1  0.50719972  0.24520608  0.87468837  1
  O  O249  1  0.50728841  0.75427697  0.36971260  1
  O  O250  1  0.50202986  0.75664308  0.86716461  1
  O  O251  1  0.25971337  0.13646932  0.48447262  1
  O  O252  1  0.23686173  0.11821239  0.99531068  1
  O  O253  1  0.24572495  0.63058468  0.49611201  1
  O  O254  1  0.24476009  0.63228462  0.99655168  1
  O  O255  1  0.73696558  0.12972480  0.49320750  1
  O  O256  1  0.74885078  0.12300876  0.98807859  1
  O  O257  1  0.74619658  0.63290948  0.49560337  1
  O  O258  1  0.74140787  0.63345759  0.99868692  1
  O  O259  1  0.25889037  0.37421279  0.01380184  1
  O  O260  1  0.25988058  0.36377394  0.49756375  1
  O  O261  1  0.25502244  0.87274718  0.00775335  1
  O  O262  1  0.26293718  0.87023670  0.50713376  1
  O  O263  1  0.76151979  0.37450852  -0.01248793  1
  O  O264  1  0.76259644  0.37333256  0.50163518  1
  O  O265  1  0.73511280  0.85876509  0.01914316  1
  O  O266  1  0.75539222  0.85954169  0.49841687  1
  O  O267  1  0.13456108  0.48763635  0.25405319  1
  O  O268  1  0.13351643  0.49260868  0.74509769  1
  O  O269  1  0.11453087  0.99466524  0.24149104  1
  O  O270  1  0.12426314  0.99056700  0.74418121  1
  O  O271  1  0.62788167  0.49279669  0.24049335  1
  O  O272  1  0.63966229  0.48092527  0.79179378  1
  O  O273  1  0.63772270  1.00375769  0.24242038  1
  O  O274  1  0.62626053  0.99496030  0.73962381  1
  O  O275  1  0.38210915  0.00479076  0.25351927  1
  O  O276  1  0.38268017  0.01895793  0.75074111  1
  O  O277  1  0.36792193  0.50188805  0.25613387  1
  O  O278  1  0.35875966  0.50331128  0.74370625  1
  O  O279  1  0.86289742  0.00203462  0.25785245  1
  O  O280  1  0.86573054  0.00424796  0.75150012  1
  O  O281  1  0.86466703  0.50100040  0.25174158  1
  O  O282  1  0.88168664  0.50574199  0.76266896  1
  O  O283  1  0.11514378  0.37652339  0.36649654  1
  O  O284  1  0.12216184  0.36680200  0.87573789  1
  O  O285  1  0.11778569  0.87279904  0.37583808  1
  O  O286  1  0.13389422  0.87093301  0.86292217  1
  O  O287  1  0.62296588  0.36897969  0.36261241  1
  O  O288  1  0.60995112  0.35472928  0.89426830  1
  O  O289  1  0.61733766  0.86092125  0.38492639  1
  O  O290  1  0.62081294  0.87347036  0.86485119  1
  O  O291  1  0.38606122  0.11624011  0.13742312  1
  O  O292  1  0.38639401  0.12602848  0.63210551  1
  O  O293  1  0.38840648  0.62834703  0.12614056  1
  O  O294  1  0.38052419  0.63428598  0.62597098  1
  O  O295  1  0.87568357  0.13391426  0.13275019  1
  O  O296  1  0.87129514  0.13246848  0.63207941  1
  O  O297  1  0.88307190  0.63550030  0.12581309  1
  O  O298  1  0.89454218  0.61806455  0.62528619  1
  O  O299  1  0.24721845  0.25625614  0.13306807  1
  O  O300  1  0.24934138  0.24571128  0.60584997  1
  O  O301  1  0.25080712  0.76274660  0.11987401  1
  O  O302  1  0.25720734  0.75808555  0.62199864  1
  O  O303  1  0.75895240  0.24622604  0.12183904  1
  O  O304  1  0.76426832  0.26014997  0.62314073  1
  O  O305  1  0.75636692  0.75309386  0.12463820  1
  O  O306  1  0.74847783  0.74482123  0.61287520  1
  O  O307  1  0.24705202  0.24103332  0.38389986  1
  O  O308  1  0.23721307  0.23731494  0.87520876  1
  O  O309  1  0.24638652  0.74541295  0.38110614  1
  O  O310  1  0.24112996  0.74493832  0.88073405  1
  O  O311  1  0.73751693  0.24542615  0.37105648  1
  O  O312  1  0.74669805  0.23914249  0.87547310  1
  O  O313  1  0.74257612  0.74378350  0.37786755  1
  O  O314  1  0.74741192  0.73961511  0.88648773  1
  O  O315  1  0.01315813  0.11796777  0.00385893  1
  O  O316  1  0.03339301  0.13895888  0.43017744  1
  O  O317  1  0.00947629  0.62656174  0.00829664  1
  O  O318  1  0.00804265  0.62364073  0.51035649  1
  O  O319  1  0.49810397  0.11515741  0.00741564  1
  O  O320  1  0.50886097  0.13022414  0.50829645  1
  O  O321  1  0.50365612  0.61781894  0.00503159  1
  O  O322  1  0.50971548  0.62576213  0.50726601  1
  O  O323  1  0.49048618  0.37689457  0.49610156  1
  O  O324  1  0.48264366  0.38337696  1.00658108  1
  O  O325  1  0.48805939  0.86909014  0.49466933  1
  O  O326  1  0.49595826  0.87915822  0.99427104  1
  O  O327  1  0.99066142  0.37666650  0.48968025  1
  O  O328  1  0.99653017  0.37507650  0.98943338  1
  O  O329  1  0.98976866  0.86481136  0.49081365  1
  O  O330  1  1.00494336  0.88631138  1.00662228  1
  O  O331  1  0.48678519  0.50097583  0.37453031  1
  O  O332  1  0.49430766  0.49966033  0.89116303  1
  O  O333  1  0.51056620  0.98427621  0.37146510  1
  O  O334  1  0.50089642  0.99458091  0.88251543  1
  O  O335  1  0.99362604  0.49331670  0.37277031  1
  O  O336  1  0.99630946  0.49268269  0.87877158  1
  O  O337  1  0.98365123  0.98492147  0.36772848  1
  O  O338  1  1.00079589  0.99654690  0.89232864  1
  O  O339  1  0.00622045  0.00057611  0.12143992  1
  O  O340  1  0.00972295  0.00297858  0.62182494  1
  O  O341  1  -0.00215559  0.51562055  0.12536645  1
  O  O342  1  0.01415574  0.50616711  0.62517594  1
  O  O343  1  0.50780515  0.00372908  0.11980786  1
  O  O344  1  0.51077318  0.01407095  0.62428065  1
  O  O345  1  0.50877331  0.50722308  0.11871638  1
  O  O346  1  0.49215941  0.51381503  0.62069272  1
  O  O347  1  0.24534969  0.37853184  0.24091790  1
  O  O348  1  0.24553034  0.37961137  0.75083253  1
  O  O349  1  0.24298789  0.87169707  0.24462323  1
  O  O350  1  0.23920371  0.87237847  0.74082731  1
  O  O351  1  0.74064201  0.38811287  0.25041296  1
  O  O352  1  0.75936730  0.37625383  0.73668553  1
  O  O353  1  0.75118385  0.87963964  0.24005260  1
  O  O354  1  0.73549715  0.88481278  0.74744556  1
  O  O355  1  0.27501289  0.12651554  0.25202052  1
  O  O356  1  0.25978473  0.12487026  0.75708338  1
  O  O357  1  0.24999832  0.61809080  0.25566191  1
  O  O358  1  0.24798467  0.61863970  0.75958012  1
  O  O359  1  0.75313091  0.11630044  0.25549445  1
  O  O360  1  0.76015036  0.12259470  0.75275447  1
  O  O361  1  0.74813133  0.61299907  0.25469693  1
  O  O362  1  0.74893415  0.62767448  0.76338598  1
  O  O363  1  0.37188243  0.12639036  0.36013594  1
  O  O364  1  0.36507438  0.12053987  0.86801864  1
  O  O365  1  0.36824882  0.61794773  0.37652933  1
  O  O366  1  0.36032091  0.63243691  0.87444522  1
  O  O367  1  0.86361742  0.11534971  0.37133307  1
  O  O368  1  0.86738768  0.11935755  0.86797501  1
  O  O369  1  0.87009628  0.61799734  0.37303365  1
  O  O370  1  0.86952816  0.61835136  0.87589331  1
  O  O371  1  0.13948092  0.37275828  0.13005658  1
  O  O372  1  0.12800173  0.38159925  0.63194739  1
  O  O373  1  0.13209723  0.88051077  0.13418517  1
  O  O374  1  0.13362927  0.88412433  0.63478732  1
  O  O375  1  0.62086927  0.38121825  0.13055612  1
  O  O376  1  0.64507419  0.37285110  0.62348949  1
  O  O377  1  0.62887731  0.88635507  0.12862731  1
  O  O378  1  0.61584146  0.88502259  0.62981744  1
  O  O379  1  0.11257859  0.26259622  0.25174948  1
  O  O380  1  0.12522768  0.25568560  0.75711352  1
  O  O381  1  0.12000357  0.75737320  0.25919656  1
  O  O382  1  0.12244934  0.76146511  0.75830173  1
  O  O383  1  0.61921282  0.25695486  0.25134021  1
  O  O384  1  0.63188992  0.26016589  0.76655281  1
  O  O385  1  0.61699963  0.74467377  0.26090626  1
  O  O386  1  0.61851460  0.75858995  0.74894696  1
  O  O387  1  0.38757256  0.25232976  0.25221122  1
  O  O388  1  0.37371007  0.23164975  0.75502822  1
  O  O389  1  0.38644623  0.74647188  0.24956528  1
  O  O390  1  0.37977702  0.75022358  0.73898711  1
  O  O391  1  0.87665519  0.24951837  0.24134575  1
  O  O392  1  0.87998934  0.24002634  0.74281188  1
  O  O393  1  0.88214576  0.74658812  0.24429979  1
  O  O394  1  0.88136800  0.74716063  0.75472125  1
  O  O395  1  0.37286195  0.48887344  0.49088779  1
  O  O396  1  0.38375564  0.49633570  1.00699489  1
  O  O397  1  0.37685096  0.98722822  0.50599799  1
  O  O398  1  0.38673365  0.99258549  0.99994541  1
  O  O399  1  0.87905869  0.49241960  0.49085462  1
  O  O400  1  0.88243395  0.49168602  0.99522693  1
  O  O401  1  0.86173532  0.99127562  0.48883149  1
  O  O402  1  0.89397057  1.00414473  1.00519071  1
  O  O403  1  0.11513888  0.00449998  0.01420964  1
  O  O404  1  0.12382124  -0.00619233  0.51380034  1
  O  O405  1  0.12570957  0.51465435  -0.00264007  1
  O  O406  1  0.12616640  0.50383187  0.50765927  1
  O  O407  1  0.61327707  -0.00078383  0.00664128  1
  O  O408  1  0.63042942  0.01126583  0.50827482  1
  O  O409  1  0.61534901  0.50514749  0.00264264  1
  O  O410  1  0.62424609  0.51248095  0.49050225  1
  O  O411  1  0.35929731  0.37531221  0.11823830  1
  O  O412  1  0.36868695  0.38049351  0.60730337  1
  O  O413  1  0.36795386  0.87528342  0.11950972  1
  O  O414  1  0.37173357  0.87104056  0.61905966  1
  O  O415  1  0.87663587  0.36717571  0.11201541  1
  O  O416  1  0.87197626  0.37177463  0.61611530  1
  O  O417  1  0.86731855  0.86196137  0.13042065  1
  O  O418  1  0.87897221  0.88178157  0.61302616  1
  O  O419  1  0.15650408  0.12698021  0.33573708  1
  O  O420  1  0.12984454  0.12885994  0.88339905  1
  O  O421  1  0.13064815  0.62996345  0.38220077  1
  O  O422  1  0.13329553  0.63401114  0.88257715  1
  O  O423  1  0.62565304  0.13169313  0.38037276  1
  O  O424  1  0.62900283  0.13710066  0.87248401  1
  O  O425  1  0.62888535  0.63410961  0.38236926  1
  O  O426  1  0.63098538  0.62627334  0.88600569  1
