# generated using pymatgen
data_V85Zn86O256
_symmetry_space_group_name_H-M   'P 1'
_cell_length_a   16.94712894
_cell_length_b   16.96752410
_cell_length_c   16.95841694
_cell_angle_alpha   90.00363249
_cell_angle_beta   90.04837989
_cell_angle_gamma   89.93062322
_symmetry_Int_Tables_number   1
_chemical_formula_structural   V85Zn86O256
_chemical_formula_sum   'V85 Zn86 O256'
_cell_volume   4876.40135309
_cell_formula_units_Z   1
loop_
 _symmetry_equiv_pos_site_id
 _symmetry_equiv_pos_as_xyz
  1  'x, y, z'
loop_
 _atom_site_type_symbol
 _atom_site_label
 _atom_site_symmetry_multiplicity
 _atom_site_fract_x
 _atom_site_fract_y
 _atom_site_fract_z
 _atom_site_occupancy
  V  V0  1  0.75359346  0.62569447  0.87588620  1
  V  V1  1  0.37425110  -0.00026680  0.37972254  1
  V  V2  1  0.37532226  0.12391390  0.75054818  1
  V  V3  1  0.24646285  0.25107049  -0.00537357  1
  V  V4  1  0.25353061  0.87303063  0.61205383  1
  V  V5  1  0.37170074  0.24902340  0.12419642  1
  V  V6  1  0.74652507  0.50471464  0.74055983  1
  V  V7  1  0.49873677  0.37862983  0.38036496  1
  V  V8  1  0.75872018  -0.00020984  0.74834842  1
  V  V9  1  0.12551254  0.62732623  -0.00391560  1
  V  V10  1  0.74876121  0.86714790  0.62045539  1
  V  V11  1  0.87636613  0.00498262  0.37242457  1
  V  V12  1  0.62675358  0.25221308  0.87508815  1
  V  V13  1  0.12566383  0.00135000  0.62459758  1
  V  V14  1  0.11173988  0.37390151  0.75730613  1
  V  V15  1  0.49934397  -0.00369363  0.50072445  1
  V  V16  1  0.25149612  -0.00072641  0.24345538  1
  V  V17  1  0.49313615  0.62375660  0.12997330  1
  V  V18  1  0.37416017  0.37629239  -0.00160316  1
  V  V19  1  0.00788792  0.61632729  0.62178695  1
  V  V20  1  0.87313686  0.86797657  0.49838266  1
  V  V21  1  0.12975730  0.86221893  0.25076806  1
  V  V22  1  0.24531010  0.49928090  0.74606030  1
  V  V23  1  0.36934517  0.37791402  0.49923964  1
  V  V24  1  0.12779226  0.13513995  0.50248602  1
  V  V25  1  0.49583343  0.00202400  -0.00445539  1
  V  V26  1  0.62547106  0.62591395  0.00243156  1
  V  V27  1  0.75001839  0.12544996  0.86830391  1
  V  V28  1  0.00147520  -0.00043618  0.49853628  1
  V  V29  1  0.88380561  0.64074095  0.25605556  1
  V  V30  1  0.62718313  0.12504937  0.49992474  1
  V  V31  1  0.75630723  0.24789640  0.00496504  1
  V  V32  1  0.50150568  0.12452574  0.12385798  1
  V  V33  1  -0.01102581  0.12923639  0.62617745  1
  V  V34  1  0.49926664  0.12576254  0.62477447  1
  V  V35  1  0.37350738  0.50246764  0.37157113  1
  V  V36  1  0.00710523  0.86299044  0.37091740  1
  V  V37  1  -0.01913811  0.37663550  0.37638975  1
  V  V38  1  0.93409229  0.18028869  0.80966644  1
  V  V39  1  0.62417722  0.24870330  0.37539879  1
  V  V40  1  0.62746932  0.75143490  0.87667416  1
  V  V41  1  0.87339433  0.86814974  0.01014611  1
  V  V42  1  0.75860476  0.25542116  0.50304379  1
  V  V43  1  -0.00145800  0.74867087  0.74574946  1
  V  V44  1  0.62328903  0.38227774  0.73763977  1
  V  V45  1  0.75206928  0.75231449  0.01657290  1
  V  V46  1  0.62652408  -0.00851410  0.12388440  1
  V  V47  1  0.49724019  0.74765987  0.25193221  1
  V  V48  1  -0.00217643  0.50089764  -0.00959914  1
  V  V49  1  0.75341211  -0.00502838  0.24477371  1
  V  V50  1  0.75872938  0.37285742  0.12741528  1
  V  V51  1  0.49922623  0.25147514  0.74862075  1
  V  V52  1  0.63747929  0.61690976  0.49897980  1
  V  V53  1  0.50083348  0.87508130  0.37497727  1
  V  V54  1  0.37682618  0.62353336  0.74913422  1
  V  V55  1  0.49393887  0.87877435  0.87392523  1
  V  V56  1  0.25647620  -0.00299555  0.75200759  1
  V  V57  1  0.36657780  0.25108324  0.61925191  1
  V  V58  1  0.87856303  0.37384257  -0.00499205  1
  V  V59  1  0.12502010  -0.00514565  0.12547110  1
  V  V60  1  0.88239222  0.12454008  0.23256487  1
  V  V61  1  0.50148024  0.37804248  0.87483171  1
  V  V62  1  -0.00079002  -0.00493961  0.00406350  1
  V  V63  1  0.62629931  0.37513097  0.24973115  1
  V  V64  1  0.76076910  0.50837228  0.26202445  1
  V  V65  1  0.63457698  0.74787293  0.38393381  1
  V  V66  1  0.23769243  0.37640417  0.62127011  1
  V  V67  1  0.12355194  0.37664584  0.25709404  1
  V  V68  1  0.49832751  0.61607864  0.60765881  1
  V  V69  1  0.62689553  0.87641118  0.75011790  1
  V  V70  1  -0.00662156  0.49842938  0.49429911  1
  V  V71  1  0.36966919  0.87704204  0.00220073  1
  V  V72  1  0.25212238  0.50708542  0.24871097  1
  V  V73  1  0.37438615  0.75622399  0.61796409  1
  V  V74  1  0.11956132  0.49941479  0.12411248  1
  V  V75  1  0.50000322  0.24951400  0.24910307  1
  V  V76  1  0.13447470  0.63038202  0.49012448  1
  V  V77  1  0.50102943  0.74824902  0.75039417  1
  V  V78  1  0.62684557  0.50006438  0.12734438  1
  V  V79  1  0.37273088  0.12520490  0.25027187  1
  V  V80  1  0.25519715  0.12313949  0.87322777  1
  V  V81  1  0.36801701  0.75208007  0.12553150  1
  V  V82  1  0.24915289  0.13289800  0.37746777  1
  V  V83  1  0.12697569  0.87119064  0.74859773  1
  V  V84  1  0.11845960  0.12100807  -0.00196597  1
  Zn  Zn85  1  0.24305531  0.64833102  0.35888220  1
  Zn  Zn86  1  0.12832545  0.74753926  0.87184474  1
  Zn  Zn87  1  0.87291358  0.74615438  0.62044417  1
  Zn  Zn88  1  0.63120446  0.87020370  0.24720339  1
  Zn  Zn89  1  -0.00220993  0.87243284  0.87340054  1
  Zn  Zn90  1  0.12438372  0.25315974  0.37623176  1
  Zn  Zn91  1  -0.00802046  0.63887795  0.12395043  1
  Zn  Zn92  1  0.25300888  0.62571323  0.87419115  1
  Zn  Zn93  1  0.87894965  -0.00359990  0.87459935  1
  Zn  Zn94  1  0.87498282  0.62569137  0.74564966  1
  Zn  Zn95  1  0.87425824  0.49745816  0.87161533  1
  Zn  Zn96  1  0.25120273  0.75067809  -0.00417958  1
  Zn  Zn97  1  0.62720309  0.12420132  0.00004436  1
  Zn  Zn98  1  0.24784086  0.37508255  0.12412977  1
  Zn  Zn99  1  -0.00488140  0.25210764  0.24204634  1
  Zn  Zn100  1  0.62710718  -0.00028732  0.62512506  1
  Zn  Zn101  1  0.37505262  0.50184967  0.87538389  1
  Zn  Zn102  1  0.88015244  0.25977948  0.63262370  1
  Zn  Zn103  1  0.11038833  0.24965791  0.87105081  1
  Zn  Zn104  1  0.49916720  0.50113774  0.00178103  1
  Zn  Zn105  1  0.75247550  0.12508666  0.37243015  1
  Zn  Zn106  1  0.75425449  0.38521475  0.61705282  1
  Zn  Zn107  1  0.14682293  0.20501557  0.16220813  1
  Zn  Zn108  1  0.18265343  0.19121546  0.68845317  1
  Zn  Zn109  1  0.18033991  0.68642042  0.17880151  1
  Zn  Zn110  1  0.18889904  0.68670776  0.68086718  1
  Zn  Zn111  1  0.68977551  0.18220603  0.18717111  1
  Zn  Zn112  1  0.68729913  0.18934736  0.68623799  1
  Zn  Zn113  1  0.68415662  0.68339039  0.19546544  1
  Zn  Zn114  1  0.68271284  0.68611499  0.68306146  1
  Zn  Zn115  1  0.30819487  0.31595033  0.31006337  1
  Zn  Zn116  1  0.31007245  0.31342540  0.80970408  1
  Zn  Zn117  1  0.31344673  0.81731823  0.31399919  1
  Zn  Zn118  1  0.31262355  0.80923295  0.81145160  1
  Zn  Zn119  1  0.80969619  0.30529182  0.30958568  1
  Zn  Zn120  1  0.80722946  0.31958712  0.81164845  1
  Zn  Zn121  1  0.81264441  0.81647527  0.31726693  1
  Zn  Zn122  1  0.81606162  0.81247293  0.81523283  1
  Zn  Zn123  1  0.18412563  0.44769378  0.43988039  1
  Zn  Zn124  1  0.18674327  0.44058923  0.93072773  1
  Zn  Zn125  1  0.18630944  0.94235734  0.43396891  1
  Zn  Zn126  1  0.18821988  0.93682948  0.93149029  1
  Zn  Zn127  1  0.68477475  0.43751002  0.43793279  1
  Zn  Zn128  1  0.68897535  0.43885940  0.93760886  1
  Zn  Zn129  1  0.68844020  0.93756554  0.43538286  1
  Zn  Zn130  1  0.68922804  0.93672005  0.93858972  1
  Zn  Zn131  1  0.31154397  0.06251189  0.06196361  1
  Zn  Zn132  1  0.31155042  0.06185791  0.56258543  1
  Zn  Zn133  1  0.30939061  0.56201662  0.06401221  1
  Zn  Zn134  1  0.31356566  0.55920657  0.56160674  1
  Zn  Zn135  1  0.81027339  0.05460708  0.05842011  1
  Zn  Zn136  1  0.81198499  0.05909469  0.56128769  1
  Zn  Zn137  1  0.81543916  0.56413973  0.06938482  1
  Zn  Zn138  1  0.81787216  0.56408061  0.56179097  1
  Zn  Zn139  1  0.43717022  0.43528610  0.18764544  1
  Zn  Zn140  1  0.43487111  0.43946212  0.68357541  1
  Zn  Zn141  1  0.43921523  0.93516585  0.18805246  1
  Zn  Zn142  1  0.43862545  0.93845756  0.68732714  1
  Zn  Zn143  1  0.93905415  0.44192121  0.18699962  1
  Zn  Zn144  1  0.93152363  0.44156237  0.68326424  1
  Zn  Zn145  1  0.94480233  0.81362001  0.18738669  1
  Zn  Zn146  1  0.93796877  0.93518943  0.68374112  1
  Zn  Zn147  1  0.06330858  0.06028076  0.31133665  1
  Zn  Zn148  1  0.06874101  0.05545031  0.81619803  1
  Zn  Zn149  1  0.06090424  0.56266839  0.31626112  1
  Zn  Zn150  1  0.06404304  0.56015431  0.80929300  1
  Zn  Zn151  1  0.56504001  0.06195676  0.31095162  1
  Zn  Zn152  1  0.56667683  0.06167447  0.81219354  1
  Zn  Zn153  1  0.56277329  0.56434534  0.31544412  1
  Zn  Zn154  1  0.56235501  0.56327292  0.81207078  1
  Zn  Zn155  1  0.43684273  0.18955929  0.43931809  1
  Zn  Zn156  1  0.43651034  0.18895134  0.93604178  1
  Zn  Zn157  1  0.40941639  0.70182026  0.42407349  1
  Zn  Zn158  1  0.43835102  0.68805273  0.93851519  1
  Zn  Zn159  1  0.94184281  0.18927948  0.43493855  1
  Zn  Zn160  1  0.94543292  0.18971892  1.06094994  1
  Zn  Zn161  1  0.93407135  0.68115340  0.43584657  1
  Zn  Zn162  1  0.93933015  0.69008881  0.93564592  1
  Zn  Zn163  1  0.06410611  0.31938346  0.05841448  1
  Zn  Zn164  1  0.05580395  0.31491433  0.56219734  1
  Zn  Zn165  1  0.06845839  0.81420946  0.06108528  1
  Zn  Zn166  1  0.06503844  0.80833703  0.56032039  1
  Zn  Zn167  1  0.56599041  0.31186692  0.06171534  1
  Zn  Zn168  1  0.55979093  0.31199745  0.56014157  1
  Zn  Zn169  1  0.55911935  0.81159204  0.06193287  1
  Zn  Zn170  1  0.56026401  0.81003188  0.56233420  1
  O  O171  1  0.13906627  0.10757801  0.10792553  1
  O  O172  1  0.11896658  0.12019656  0.62002919  1
  O  O173  1  0.12231706  0.61514303  0.11129939  1
  O  O174  1  0.11265337  0.62652737  0.61668709  1
  O  O175  1  0.61673291  0.11633297  0.12183255  1
  O  O176  1  0.61724068  0.12410104  0.61728867  1
  O  O177  1  0.61695249  0.61708890  0.12239911  1
  O  O178  1  0.60952785  0.63448552  0.60832771  1
  O  O179  1  0.37936783  0.37572629  0.38194756  1
  O  O180  1  0.38370120  0.37439397  0.88112824  1
  O  O181  1  0.38890406  0.89255437  0.37147766  1
  O  O182  1  0.38918203  0.87038234  0.87937064  1
  O  O183  1  0.88282831  0.37088674  0.37103686  1
  O  O184  1  0.86563810  0.37839358  0.89151235  1
  O  O185  1  0.88643714  0.88606449  0.37875944  1
  O  O186  1  0.87892148  0.87655805  0.88596774  1
  O  O187  1  0.25990586  0.00869067  0.37077884  1
  O  O188  1  0.24828580  0.00706402  0.85993573  1
  O  O189  1  0.25820913  0.50027328  0.36407237  1
  O  O190  1  0.25602182  0.50182506  0.86045369  1
  O  O191  1  0.75917491  0.00248502  0.36814653  1
  O  O192  1  0.75091232  0.00954327  0.86922182  1
  O  O193  1  0.74416193  0.49445183  0.35870384  1
  O  O194  1  0.74795488  0.51158893  0.86905201  1
  O  O195  1  0.23849741  0.49671228  0.12945215  1
  O  O196  1  0.25697953  0.48883345  0.63612928  1
  O  O197  1  0.24993630  1.00124860  0.13778714  1
  O  O198  1  0.24686210  0.99464016  0.63454209  1
  O  O199  1  0.74209717  0.49160654  0.13231220  1
  O  O200  1  0.74882817  0.50547985  0.63652874  1
  O  O201  1  0.73864466  1.00444528  0.13125822  1
  O  O202  1  0.74849312  0.99177558  0.63265589  1
  O  O203  1  0.00375166  0.37530504  0.25953668  1
  O  O204  1  0.01420241  0.38458453  0.74517985  1
  O  O205  1  0.01112090  0.87548000  0.26387654  1
  O  O206  1  0.00939826  0.86716922  0.74605750  1
  O  O207  1  0.50692856  0.36576557  0.25335096  1
  O  O208  1  0.50409220  0.37325055  0.75510639  1
  O  O209  1  0.50705200  0.87038679  0.25956831  1
  O  O210  1  0.50605005  0.87208047  0.75710740  1
  O  O211  1  0.49319569  0.13004411  0.24514054  1
  O  O212  1  0.49584114  0.12967638  0.74560122  1
  O  O213  1  0.50441584  0.63431389  0.24170786  1
  O  O214  1  0.49471184  0.62947565  0.74232875  1
  O  O215  1  0.98443204  0.12256892  0.25301419  1
  O  O216  1  0.99734114  0.12197693  0.74731522  1
  O  O217  1  0.98675009  0.62147823  0.24997167  1
  O  O218  1  1.00263728  0.62862382  0.73759486  1
  O  O219  1  0.36833191  0.25857049  0.00334359  1
  O  O220  1  0.37682825  0.25989191  0.50943753  1
  O  O221  1  0.37800155  0.75973560  0.00742243  1
  O  O222  1  0.38809993  0.76025735  0.52119546  1
  O  O223  1  0.86497520  0.25721653  0.00733442  1
  O  O224  1  0.85910277  0.24271741  0.49800630  1
  O  O225  1  0.86750521  0.75894644  -0.00168606  1
  O  O226  1  0.87990941  0.76481581  0.49779576  1
  O  O227  1  0.12157552  0.23772207  0.49883535  1
  O  O228  1  0.13094181  0.24157162  0.99209872  1
  O  O229  1  0.12331766  0.73076440  0.50207293  1
  O  O230  1  0.12982699  0.74105723  0.99538512  1
  O  O231  1  0.62853236  0.24078001  0.49518131  1
  O  O232  1  0.63679652  0.24950593  0.99253090  1
  O  O233  1  0.61796989  0.74338076  0.48783245  1
  O  O234  1  0.63136705  0.74739009  0.99497423  1
  O  O235  1  0.49567070  0.24361690  0.12862649  1
  O  O236  1  0.49035953  0.24534846  0.63010465  1
  O  O237  1  0.49762100  0.74161305  0.13244195  1
  O  O238  1  0.49182100  0.74658962  0.63451666  1
  O  O239  1  1.02352195  0.23893727  0.12745025  1
  O  O240  1  0.99648518  0.23760807  0.62148585  1
  O  O241  1  1.01848221  0.74869752  0.13527953  1
  O  O242  1  1.00025457  0.74266689  0.63331176  1
  O  O243  1  0.00252460  0.26462265  0.37278273  1
  O  O244  1  -0.00833526  0.23304666  0.87011076  1
  O  O245  1  -0.00158026  0.76588839  0.38088515  1
  O  O246  1  0.00549316  0.74824185  0.85837421  1
  O  O247  1  0.50370175  0.25669748  0.36860424  1
  O  O248  1  0.50424835  0.26026641  0.86955190  1
  O  O249  1  0.49923147  0.76010891  0.36899023  1
  O  O250  1  0.50764920  0.75751451  0.87023302  1
  O  O251  1  0.23923678  0.11733386  0.49185127  1
  O  O252  1  0.24713934  0.12968719  0.98983537  1
  O  O253  1  0.23586154  0.61682495  0.50149573  1
  O  O254  1  0.24093300  0.62389275  0.99624726  1
  O  O255  1  0.73969665  0.13010766  0.49942048  1
  O  O256  1  0.75198755  0.13143583  0.98876566  1
  O  O257  1  0.73614236  0.62621350  0.50748153  1
  O  O258  1  0.74567246  0.63138222  0.99570141  1
  O  O259  1  0.25618682  0.36770668  -0.00380751  1
  O  O260  1  0.25385106  0.37967832  0.50936800  1
  O  O261  1  0.26669328  0.87782558  -0.00809560  1
  O  O262  1  0.24773879  0.88642378  0.51325877  1
  O  O263  1  0.75417364  0.36800159  0.00785395  1
  O  O264  1  0.73982890  0.35914389  0.50091826  1
  O  O265  1  0.76284434  0.86700533  -0.00221236  1
  O  O266  1  0.76008293  0.88368916  0.50844128  1
  O  O267  1  0.12800152  0.49565588  0.24201842  1
  O  O268  1  0.13465884  0.48795768  0.75198271  1
  O  O269  1  0.13312460  0.99877652  0.24157043  1
  O  O270  1  0.13306643  0.99203111  0.74201950  1
  O  O271  1  0.63229860  0.49734311  0.24137117  1
  O  O272  1  0.63070963  0.49224785  0.75340411  1
  O  O273  1  0.63406060  1.00033692  0.24188557  1
  O  O274  1  0.63547924  0.99170152  0.74899482  1
  O  O275  1  0.37123055  0.00528662  0.25617628  1
  O  O276  1  0.36751680  0.01041435  0.74364521  1
  O  O277  1  0.36196552  0.48740959  0.25615337  1
  O  O278  1  0.37110349  0.51178492  0.74898946  1
  O  O279  1  0.86867924  0.01215422  0.25743710  1
  O  O280  1  0.86238030  -0.00771809  0.75185402  1
  O  O281  1  0.86204319  0.49975605  0.24976800  1
  O  O282  1  0.86267717  0.50611432  0.75466432  1
  O  O283  1  0.12597115  0.37653920  0.36413058  1
  O  O284  1  0.12371519  0.37125258  0.86249210  1
  O  O285  1  0.11388774  0.88221397  0.36835273  1
  O  O286  1  0.12335879  0.87421539  0.85856256  1
  O  O287  1  0.61625967  0.36830123  0.37002810  1
  O  O288  1  0.61772373  0.37091952  0.86982356  1
  O  O289  1  0.61602252  0.86590152  0.37579684  1
  O  O290  1  0.61757090  0.87016663  0.87106260  1
  O  O291  1  0.38067262  0.13100279  0.12898212  1
  O  O292  1  0.37856570  0.13382066  0.62808725  1
  O  O293  1  0.38786007  0.63134205  0.11815355  1
  O  O294  1  0.38170062  0.63492478  0.62836301  1
  O  O295  1  0.87665794  0.12073062  0.12908671  1
  O  O296  1  0.88675366  0.12360823  0.62296457  1
  O  O297  1  0.87615938  0.62099057  0.14538965  1
  O  O298  1  0.89033775  0.62982541  0.62444874  1
  O  O299  1  0.24859996  0.25091767  0.10838439  1
  O  O300  1  0.26105173  0.25801024  0.63091799  1
  O  O301  1  0.26559320  0.74403606  0.12127684  1
  O  O302  1  0.26491167  0.75819855  0.62841993  1
  O  O303  1  0.74090788  0.25973200  0.11620278  1
  O  O304  1  0.75124602  0.24764928  0.61122955  1
  O  O305  1  0.73904976  0.74618673  0.11492260  1
  O  O306  1  0.75131762  0.76364847  0.62991229  1
  O  O307  1  0.25050353  0.23586217  0.37173284  1
  O  O308  1  0.25110996  0.24302169  0.88351661  1
  O  O309  1  0.30370401  0.73555876  0.38557206  1
  O  O310  1  0.24732565  0.74459251  0.87628359  1
  O  O311  1  0.74228115  0.24638994  0.38523065  1
  O  O312  1  0.74689777  0.24344424  0.88122781  1
  O  O313  1  0.73251535  0.75711567  0.37495099  1
  O  O314  1  0.74283223  0.74306073  0.88041020  1
  O  O315  1  0.01331174  0.11644115  -0.00248084  1
  O  O316  1  0.00596479  0.11727564  0.50675613  1
  O  O317  1  0.00460317  0.61896472  0.00259847  1
  O  O318  1  0.00606999  0.62194238  0.50624532  1
  O  O319  1  0.50029625  0.11800863  0.00265877  1
  O  O320  1  0.50892546  0.11883841  0.50332299  1
  O  O321  1  0.50844976  0.62307015  0.00812121  1
  O  O322  1  0.49338542  0.63076768  0.50892700  1
  O  O323  1  0.49016429  0.37007901  0.48919378  1
  O  O324  1  0.49285434  0.37398626  0.99215158  1
  O  O325  1  0.50670905  0.88962447  0.49364633  1
  O  O326  1  0.49399698  0.88240557  0.99191171  1
  O  O327  1  1.00444988  0.38251414  0.48491442  1
  O  O328  1  0.98910030  0.38471375  1.00354184  1
  O  O329  1  0.99806146  0.88288584  0.49366624  1
  O  O330  1  0.99249671  0.87772745  0.99652519  1
  O  O331  1  0.49471627  0.48224130  0.36151065  1
  O  O332  1  0.49906508  0.48829565  0.87825965  1
  O  O333  1  0.49656407  0.99662685  0.38097998  1
  O  O334  1  0.50583807  0.99213179  0.88394724  1
  O  O335  1  1.00048240  0.48401555  0.37765142  1
  O  O336  1  0.99526055  0.50574358  0.88668674  1
  O  O337  1  0.99558951  0.99577171  0.38448826  1
  O  O338  1  1.00130213  0.99670658  0.88772120  1
  O  O339  1  0.01451839  -0.00043432  0.10830969  1
  O  O340  1  0.00493687  0.00466723  0.61632059  1
  O  O341  1  0.01036230  0.50128998  0.11606913  1
  O  O342  1  -0.00031525  0.51195793  0.61718696  1
  O  O343  1  0.50541275  0.00661846  0.11858955  1
  O  O344  1  0.50176408  0.00635465  0.61666096  1
  O  O345  1  0.50700813  0.50626557  0.12659040  1
  O  O346  1  0.49317592  0.51740004  0.62213570  1
  O  O347  1  0.23934861  0.38314208  0.24585699  1
  O  O348  1  0.24571344  0.38206875  0.74201202  1
  O  O349  1  0.24302365  0.89029913  0.26249000  1
  O  O350  1  0.24583236  0.88197660  0.74421395  1
  O  O351  1  0.74525216  0.37870534  0.24324882  1
  O  O352  1  0.73768266  0.38716177  0.75060786  1
  O  O353  1  0.74973239  0.89011813  0.25344814  1
  O  O354  1  0.74516957  0.88057472  0.74476369  1
  O  O355  1  0.25850324  0.11466054  0.26078687  1
  O  O356  1  0.25311023  0.11913315  0.75467580  1
  O  O357  1  0.24401247  0.61151172  0.24549007  1
  O  O358  1  0.25806234  0.61707808  0.74566901  1
  O  O359  1  0.76158872  0.11571476  0.25027595  1
  O  O360  1  0.74269586  0.11683324  0.75983159  1
  O  O361  1  0.75702718  0.61317162  0.24899406  1
  O  O362  1  0.74537020  0.62097267  0.75735363  1
  O  O363  1  0.37125302  0.11821021  0.37189343  1
  O  O364  1  0.36330150  0.12943741  0.86837011  1
  O  O365  1  0.38884547  0.60076963  0.37392150  1
  O  O366  1  0.37829496  0.62249506  0.86420312  1
  O  O367  1  0.87608400  0.11299815  0.37605062  1
  O  O368  1  0.86914651  0.12133087  0.86706950  1
  O  O369  1  0.87274775  0.62750798  0.35678775  1
  O  O370  1  0.86113424  0.62668938  0.87404815  1
  O  O371  1  0.12551752  0.38387543  0.13469240  1
  O  O372  1  0.13459898  0.36828252  0.63146010  1
  O  O373  1  0.12919750  0.88713479  0.13443725  1
  O  O374  1  0.13314072  0.87887947  0.63169142  1
  O  O375  1  0.63115705  0.38259157  0.13029998  1
  O  O376  1  0.62540475  0.37138785  0.63533583  1
  O  O377  1  0.61699798  0.88769034  0.12709569  1
  O  O378  1  0.63093031  0.87626222  0.63007257  1
  O  O379  1  0.12193473  0.26211434  0.25529081  1
  O  O380  1  0.12733820  0.26682825  0.75401763  1
  O  O381  1  0.14568845  0.76365815  0.25454629  1
  O  O382  1  0.12085678  0.75699963  0.74611099  1
  O  O383  1  0.62171081  0.25284817  0.25615118  1
  O  O384  1  0.61901970  0.25857164  0.75563615  1
  O  O385  1  0.61554439  0.75000836  0.26280240  1
  O  O386  1  0.61966275  0.75657761  0.75570950  1
  O  O387  1  0.37786714  0.24610046  0.24221791  1
  O  O388  1  0.38068379  0.24512136  0.74225145  1
  O  O389  1  0.39019909  0.76049648  0.23818838  1
  O  O390  1  0.38128567  0.73903149  0.74448662  1
  O  O391  1  0.87419678  0.22923501  0.25016494  1
  O  O392  1  0.87394656  0.24426266  0.75477836  1
  O  O393  1  0.87337781  0.74643173  0.25079087  1
  O  O394  1  0.88445686  0.74769629  0.74574780  1
  O  O395  1  0.37116874  0.48531319  0.49057226  1
  O  O396  1  0.37568724  0.48649074  1.00031117  1
  O  O397  1  0.38707017  1.00871144  0.49170322  1
  O  O398  1  0.38808317  0.99375381  1.00552406  1
  O  O399  1  0.89205954  0.50823883  0.49670804  1
  O  O400  1  0.88132654  0.49363407  1.00062023  1
  O  O401  1  0.88380287  0.99265197  0.49349436  1
  O  O402  1  0.88233639  0.98800616  0.99878424  1
  O  O403  1  0.12343641  0.00163664  0.00291123  1
  O  O404  1  0.11645962  0.00757546  0.50534137  1
  O  O405  1  0.11764560  0.50247931  0.00429673  1
  O  O406  1  0.10960405  0.51578421  0.49468130  1
  O  O407  1  0.61563022  0.00055980  0.00633946  1
  O  O408  1  0.61925690  0.01024453  0.49938611  1
  O  O409  1  0.62505519  0.50369787  0.01364789  1
  O  O410  1  0.62279227  0.51768800  0.49208674  1
  O  O411  1  0.37296597  0.36680056  0.11516107  1
  O  O412  1  0.36832056  0.36901134  0.61741633  1
  O  O413  1  0.38426575  0.86508077  0.11387404  1
  O  O414  1  0.36802509  0.86393048  0.63557021  1
  O  O415  1  0.86307644  0.37976796  0.11844392  1
  O  O416  1  0.86605351  0.37132889  0.62903822  1
  O  O417  1  0.88000183  0.87338592  0.10962224  1
  O  O418  1  0.86793128  0.87355937  0.61445986  1
  O  O419  1  0.13258707  0.12436980  0.38324785  1
  O  O420  1  0.13798480  0.12622276  0.88029930  1
  O  O421  1  0.13065895  0.62671211  0.38264965  1
  O  O422  1  0.12578708  0.62169782  0.88607557  1
  O  O423  1  0.62574471  0.13119311  0.38256235  1
  O  O424  1  0.63325650  0.13323890  0.87725054  1
  O  O425  1  0.61860417  0.63787551  0.38693164  1
  O  O426  1  0.63131728  0.63083482  0.88288050  1
