# generated using pymatgen
data_V85Zn86O256
_symmetry_space_group_name_H-M   'P 1'
_cell_length_a   16.94620425
_cell_length_b   16.93476669
_cell_length_c   16.94935613
_cell_angle_alpha   89.93098809
_cell_angle_beta   90.07610712
_cell_angle_gamma   90.03221804
_symmetry_Int_Tables_number   1
_chemical_formula_structural   V85Zn86O256
_chemical_formula_sum   'V85 Zn86 O256'
_cell_volume   4864.11789844
_cell_formula_units_Z   1
loop_
 _symmetry_equiv_pos_site_id
 _symmetry_equiv_pos_as_xyz
  1  'x, y, z'
loop_
 _atom_site_type_symbol
 _atom_site_label
 _atom_site_symmetry_multiplicity
 _atom_site_fract_x
 _atom_site_fract_y
 _atom_site_fract_z
 _atom_site_occupancy
  V  V0  1  0.26443923  0.74965664  0.49871661  1
  V  V1  1  0.37027252  0.13591369  0.74457396  1
  V  V2  1  0.49781397  0.61920620  0.13437259  1
  V  V3  1  0.62934781  0.74821204  0.38753555  1
  V  V4  1  0.50173462  0.25521277  0.74126428  1
  V  V5  1  0.50187336  0.49836713  0.50731222  1
  V  V6  1  0.67717133  0.57327463  0.54863459  1
  V  V7  1  0.49475872  0.12462535  0.61980715  1
  V  V8  1  0.62802720  0.12566999  -0.00578178  1
  V  V9  1  0.62272747  0.74958068  0.87888267  1
  V  V10  1  0.37028934  0.00285208  0.87465706  1
  V  V11  1  0.76078456  0.00932762  0.76202038  1
  V  V12  1  -0.00036023  0.74986850  0.75182978  1
  V  V13  1  0.00008764  0.62363816  0.12702480  1
  V  V14  1  0.12306834  0.12695802  0.49348457  1
  V  V15  1  0.00162568  0.49797748  0.49647886  1
  V  V16  1  0.50364759  0.88980037  0.38192573  1
  V  V17  1  0.25049272  0.24474203  0.00227457  1
  V  V18  1  0.37817181  0.36666144  0.50489041  1
  V  V19  1  0.12661608  0.62873618  0.49897982  1
  V  V20  1  0.86804684  0.49861671  0.87394304  1
  V  V21  1  0.50303506  0.49843488  0.00547124  1
  V  V22  1  0.75530189  0.00084758  0.24970433  1
  V  V23  1  0.25109206  0.00185096  0.74479083  1
  V  V24  1  0.24881034  0.37372828  0.12812100  1
  V  V25  1  0.24307826  0.12792841  0.87418793  1
  V  V26  1  0.87359733  0.74863350  0.11973756  1
  V  V27  1  -0.00507818  0.37624368  0.87961633  1
  V  V28  1  0.86882559  0.87171417  0.50080879  1
  V  V29  1  -0.00375317  0.12257017  0.10819219  1
  V  V30  1  0.25407389  0.50466719  0.24997628  1
  V  V31  1  0.73347656  0.37440460  0.12156484  1
  V  V32  1  0.62543476  0.00134955  0.12163168  1
  V  V33  1  0.62423064  0.62424016  0.00923411  1
  V  V34  1  0.12439775  0.88597651  0.24906338  1
  V  V35  1  0.49714134  0.87635473  0.87566001  1
  V  V36  1  0.75503281  0.24683144  0.50759411  1
  V  V37  1  0.00005469  0.74884723  0.25018886  1
  V  V38  1  0.12686600  0.75059483  0.37579578  1
  V  V39  1  0.62399980  0.12335500  0.50017078  1
  V  V40  1  0.25178363  0.10640631  0.36612988  1
  V  V41  1  0.87626750  0.89029068  -0.00473623  1
  V  V42  1  0.37183361  0.87481737  -0.00079478  1
  V  V43  1  0.74782301  0.86648778  0.62457202  1
  V  V44  1  0.38282362  0.89184685  0.50180140  1
  V  V45  1  0.37607298  0.37217849  0.00009651  1
  V  V46  1  0.62560378  0.87358833  0.75209565  1
  V  V47  1  -0.00238221  0.87507984  0.37592476  1
  V  V48  1  0.12052118  0.00654069  0.11251546  1
  V  V49  1  0.74508215  0.62574278  0.37306060  1
  V  V50  1  0.37424770  0.74551004  0.13192849  1
  V  V51  1  0.50223914  0.36931506  0.36510129  1
  V  V52  1  0.87549501  0.49612069  0.37242769  1
  V  V53  1  0.12422904  0.87504910  0.75032538  1
  V  V54  1  0.24967956  0.74876802  0.00400877  1
  V  V55  1  0.50241231  0.37398017  0.87015808  1
  V  V56  1  0.87032949  0.62137693  0.75568362  1
  V  V57  1  0.12190132  0.37333003  0.75254402  1
  V  V58  1  0.00741179  0.36376494  0.37462942  1
  V  V59  1  0.62870398  0.87132892  0.25020743  1
  V  V60  1  -0.00712561  0.49720484  0.00399027  1
  V  V61  1  0.25126133  0.36046361  0.62625959  1
  V  V62  1  0.25266030  0.88609898  0.12956794  1
  V  V63  1  0.00301745  0.62513777  0.62619934  1
  V  V64  1  0.63132076  0.24890584  0.86996250  1
  V  V65  1  0.37889370  0.24187491  0.14153879  1
  V  V66  1  0.73594559  0.49028603  0.24891687  1
  V  V67  1  0.12460662  0.62401296  0.00219867  1
  V  V68  1  0.25429758  0.62844449  0.37063435  1
  V  V69  1  0.12112655  -0.00069616  0.62204524  1
  V  V70  1  0.49097582  0.63405615  0.61566023  1
  V  V71  1  0.49688479  0.74813835  0.25571228  1
  V  V72  1  0.37183421  0.63132497  0.74446107  1
  V  V73  1  0.87920031  0.26191270  0.11779759  1
  V  V74  1  0.12273407  0.25208711  0.88006588  1
  V  V75  1  0.37755309  0.50362841  0.37510534  1
  V  V76  1  0.25815555  0.86953088  0.62370324  1
  V  V77  1  0.62473818  0.24979441  0.36342547  1
  V  V78  1  0.24614109  0.24944938  0.48850526  1
  V  V79  1  0.12563630  0.49766225  0.62625117  1
  V  V80  1  0.86951669  0.74525617  0.62226529  1
  V  V81  1  0.62366605  0.00129859  0.62532311  1
  V  V82  1  0.93684085  0.18368153  0.71049620  1
  V  V83  1  0.25012018  0.62285541  0.87505610  1
  V  V84  1  -0.00454582  0.00345120  0.50191777  1
  Zn  Zn85  1  0.49222195  0.75390991  0.74529072  1
  Zn  Zn86  1  0.50155666  0.12965243  0.13455806  1
  Zn  Zn87  1  0.12416987  0.49923440  0.12995683  1
  Zn  Zn88  1  0.87248335  0.00123871  0.37558676  1
  Zn  Zn89  1  0.87763996  0.36422126  0.50298212  1
  Zn  Zn90  1  0.13031654  0.37020512  0.25867555  1
  Zn  Zn91  1  0.12240581  0.75023770  0.87732260  1
  Zn  Zn92  1  0.74618221  0.36836401  0.63094366  1
  Zn  Zn93  1  0.37329506  0.49971657  0.87385319  1
  Zn  Zn94  1  0.87836675  0.12844156  0.24772835  1
  Zn  Zn95  1  0.74008766  0.61519982  0.87509863  1
  Zn  Zn96  1  0.64213105  0.44005919  0.72308583  1
  Zn  Zn97  1  0.49832028  0.00550842  -0.00143598  1
  Zn  Zn98  1  0.74979143  0.87158578  0.12285545  1
  Zn  Zn99  1  0.39897370  0.06575501  0.28722979  1
  Zn  Zn100  1  0.75327280  0.25117633  -0.00442428  1
  Zn  Zn101  1  0.87276655  0.62320632  0.24959618  1
  Zn  Zn102  1  0.75056896  0.74727990  0.00105943  1
  Zn  Zn103  1  -0.01421902  0.88280306  0.87263150  1
  Zn  Zn104  1  0.25157224  0.49951553  0.74828927  1
  Zn  Zn105  1  0.00585931  0.24191305  0.24811077  1
  Zn  Zn106  1  0.75444426  0.12553087  0.37473900  1
  Zn  Zn107  1  0.18344744  0.18607683  0.19227515  1
  Zn  Zn108  1  0.14409605  0.17071292  0.70158038  1
  Zn  Zn109  1  0.18695052  0.69012216  0.18967770  1
  Zn  Zn110  1  0.18922699  0.68953419  0.68590541  1
  Zn  Zn111  1  0.69190564  0.18505668  0.18314856  1
  Zn  Zn112  1  0.68750033  0.18691612  0.69015789  1
  Zn  Zn113  1  0.68664472  0.68428049  0.19124778  1
  Zn  Zn114  1  0.66227240  0.64909061  0.71355695  1
  Zn  Zn115  1  0.31264016  0.31494010  0.31626779  1
  Zn  Zn116  1  0.31200551  0.31367557  0.81215412  1
  Zn  Zn117  1  0.33030812  0.86916240  0.29772523  1
  Zn  Zn118  1  0.30746454  0.81011009  0.81457306  1
  Zn  Zn119  1  0.81587343  0.30889625  0.31103566  1
  Zn  Zn120  1  0.80422285  0.32279967  0.81008915  1
  Zn  Zn121  1  0.81363707  0.81135373  0.31205378  1
  Zn  Zn122  1  0.80722660  0.80913579  0.81367896  1
  Zn  Zn123  1  0.18947967  0.43838752  0.43945697  1
  Zn  Zn124  1  0.18662864  0.43959240  0.94220446  1
  Zn  Zn125  1  0.18695719  0.93436227  0.43918751  1
  Zn  Zn126  1  0.14108341  0.97483125  0.90482186  1
  Zn  Zn127  1  0.68965348  0.42680527  0.43449607  1
  Zn  Zn128  1  0.68253955  0.43534834  0.93967883  1
  Zn  Zn129  1  0.68765285  0.93996641  0.43842689  1
  Zn  Zn130  1  0.69259597  0.93540438  0.93957033  1
  Zn  Zn131  1  0.31019919  0.06276937  0.06341874  1
  Zn  Zn132  1  0.30778277  0.06628627  0.56124797  1
  Zn  Zn133  1  0.31634571  0.56135443  0.06411788  1
  Zn  Zn134  1  0.31270692  0.55815202  0.56095552  1
  Zn  Zn135  1  0.80917469  0.06688727  0.06326417  1
  Zn  Zn136  1  0.81335160  0.06574374  0.57648141  1
  Zn  Zn137  1  0.81037682  0.55943879  0.06555179  1
  Zn  Zn138  1  0.85302644  0.51508867  0.60527367  1
  Zn  Zn139  1  0.43330033  0.43551558  0.18831473  1
  Zn  Zn140  1  0.43463592  0.44257869  0.68668409  1
  Zn  Zn141  1  0.44726362  0.93401720  0.18334522  1
  Zn  Zn142  1  0.43815695  0.94138242  0.68668909  1
  Zn  Zn143  1  0.93549654  0.43458185  0.19134358  1
  Zn  Zn144  1  0.93352716  0.35357081  0.68664022  1
  Zn  Zn145  1  0.93979259  0.93640432  0.17998380  1
  Zn  Zn146  1  0.93568783  0.93761526  0.68560139  1
  Zn  Zn147  1  0.05867434  0.06538058  0.31094323  1
  Zn  Zn148  1  0.00472305  0.07291823  0.81798866  1
  Zn  Zn149  1  0.06643634  0.55992291  0.31175502  1
  Zn  Zn150  1  0.06079002  0.56010839  0.81396000  1
  Zn  Zn151  1  0.57296924  0.06658453  0.30767004  1
  Zn  Zn152  1  0.56129202  0.06311810  0.80998248  1
  Zn  Zn153  1  0.56120751  0.56152585  0.31724834  1
  Zn  Zn154  1  0.54670746  0.56925782  0.82071029  1
  Zn  Zn155  1  0.43639142  0.18687289  0.43532073  1
  Zn  Zn156  1  0.44097507  0.18679867  0.93760848  1
  Zn  Zn157  1  0.43941893  0.68918262  0.43489615  1
  Zn  Zn158  1  0.43660528  0.68723213  0.93905428  1
  Zn  Zn159  1  0.93460423  0.18123415  0.43694599  1
  Zn  Zn160  1  0.93058415  0.18872093  0.92702823  1
  Zn  Zn161  1  0.93230171  0.68483446  0.43796350  1
  Zn  Zn162  1  0.93975439  0.68835604  0.93630042  1
  Zn  Zn163  1  0.06544388  0.31134224  0.06365779  1
  Zn  Zn164  1  0.05909968  0.30332343  0.56670622  1
  Zn  Zn165  1  0.05991081  0.81611870  0.06073426  1
  Zn  Zn166  1  0.06117963  0.81344795  0.56309369  1
  Zn  Zn167  1  0.56032525  0.30672021  0.06155799  1
  Zn  Zn168  1  0.57029957  0.31479356  0.56424977  1
  Zn  Zn169  1  0.55926612  0.81211978  0.06451420  1
  Zn  Zn170  1  0.56192315  0.81105233  0.56338282  1
  O  O171  1  0.12051122  0.11160839  0.12466521  1
  O  O172  1  0.13925702  0.10619386  0.60689691  1
  O  O173  1  0.11945655  0.62310836  0.11915808  1
  O  O174  1  0.12312164  0.61798582  0.61966090  1
  O  O175  1  0.62262519  0.11713512  0.11875540  1
  O  O176  1  0.61792634  0.11832821  0.62019925  1
  O  O177  1  0.61242179  0.63003954  0.11760253  1
  O  O178  1  0.61566437  0.63329911  0.60804238  1
  O  O179  1  0.38048450  0.38320394  0.38470833  1
  O  O180  1  0.38358613  0.37515503  0.88291551  1
  O  O181  1  0.39220510  0.86957116  0.39073012  1
  O  O182  1  0.37416120  0.87994839  0.88178579  1
  O  O183  1  0.88441261  0.38143952  0.38052049  1
  O  O184  1  0.88764153  0.38252369  0.87278639  1
  O  O185  1  0.87879906  0.87528667  0.38441233  1
  O  O186  1  0.87038056  0.86827512  0.89050156  1
  O  O187  1  0.24931367  0.00629640  0.37554750  1
  O  O188  1  0.24760381  0.01120064  0.86539838  1
  O  O189  1  0.25803409  0.50555914  0.37125587  1
  O  O190  1  0.25084057  0.51205946  0.87674897  1
  O  O191  1  0.75045314  0.00103487  0.36420750  1
  O  O192  1  0.74447616  -0.00267035  0.86031983  1
  O  O193  1  0.75630128  0.50026041  0.36725391  1
  O  O194  1  0.76394092  0.49756235  0.88629317  1
  O  O195  1  0.25425242  0.49322456  0.13409371  1
  O  O196  1  0.23594689  0.49100514  0.61985929  1
  O  O197  1  0.24214813  0.99002846  0.12534505  1
  O  O198  1  0.24432151  0.98744322  0.62491213  1
  O  O199  1  0.75380638  0.48633899  0.13828639  1
  O  O200  1  0.73715371  0.52448866  0.61246984  1
  O  O201  1  0.73975915  0.99607395  0.13012428  1
  O  O202  1  0.73969258  0.98990372  0.63380007  1
  O  O203  1  0.00197033  0.37793022  0.26750494  1
  O  O204  1  0.01497837  0.38352433  0.76456814  1
  O  O205  1  0.00554113  0.86795324  0.25366520  1
  O  O206  1  0.00844492  0.86656029  0.74729667  1
  O  O207  1  0.49433020  0.37998774  0.26635225  1
  O  O208  1  0.49542353  0.37015219  0.75628128  1
  O  O209  1  0.51404616  0.86788551  0.25899523  1
  O  O210  1  0.50866474  0.87412565  0.75473488  1
  O  O211  1  0.49195625  0.11207551  0.24715837  1
  O  O212  1  0.48997603  0.13256642  0.74062095  1
  O  O213  1  0.50319729  0.63215865  0.24418019  1
  O  O214  1  0.48670103  0.62982995  0.73956933  1
  O  O215  1  0.99785001  0.12334429  0.23506181  1
  O  O216  1  1.03256525  0.13352183  0.72528776  1
  O  O217  1  0.99995115  0.63194551  0.24622572  1
  O  O218  1  0.99569109  0.63334316  0.74805011  1
  O  O219  1  0.36861183  0.25966855  0.00178272  1
  O  O220  1  0.36639517  0.26084029  0.49732296  1
  O  O221  1  0.37117392  0.75482287  0.00951380  1
  O  O222  1  0.36613668  0.75487761  0.49813524  1
  O  O223  1  0.86990502  0.24460221  0.01167198  1
  O  O224  1  0.85954241  0.24518128  0.49702232  1
  O  O225  1  0.87396003  0.74516420  0.01231555  1
  O  O226  1  0.87994795  0.75911768  0.50950868  1
  O  O227  1  0.13054507  0.23721909  0.50505004  1
  O  O228  1  0.14288665  0.25667979  0.99517827  1
  O  O229  1  0.13155094  0.74751425  0.49483594  1
  O  O230  1  0.12917462  0.74007622  1.00178178  1
  O  O231  1  0.63395998  0.23833051  0.49527698  1
  O  O232  1  0.62406849  0.24328231  0.98973745  1
  O  O233  1  0.62734011  0.75630384  0.48653556  1
  O  O234  1  0.62319324  0.74358491  0.99698864  1
  O  O235  1  0.48203634  0.25155949  0.12491530  1
  O  O236  1  0.50417380  0.24329452  0.63520188  1
  O  O237  1  0.49283209  0.74239296  0.13408686  1
  O  O238  1  0.49861034  0.73825046  0.62473685  1
  O  O239  1  0.99051341  0.24504445  0.11969536  1
  O  O240  1  0.98957790  0.25801934  0.64355869  1
  O  O241  1  0.99516153  0.74497911  0.13259211  1
  O  O242  1  0.99396693  0.74341867  0.63169325  1
  O  O243  1  -0.00427498  0.26204895  0.37719424  1
  O  O244  1  0.01619240  0.26382000  0.89098579  1
  O  O245  1  0.00304385  0.75404970  0.36831793  1
  O  O246  1  0.00306711  0.75534280  0.86424493  1
  O  O247  1  0.51327379  0.25544864  0.38074381  1
  O  O248  1  0.50290315  0.25727124  0.86390334  1
  O  O249  1  0.50999534  0.75338885  0.36936937  1
  O  O250  1  0.50646624  0.75758601  0.87585732  1
  O  O251  1  0.24387927  0.13164937  0.48998434  1
  O  O252  1  0.25757241  0.13485220  0.98869101  1
  O  O253  1  0.24684215  0.63172423  0.49415715  1
  O  O254  1  0.24422820  0.62696171  0.99669921  1
  O  O255  1  0.74453324  0.13093777  0.50212720  1
  O  O256  1  0.73349741  0.13021045  1.00406154  1
  O  O257  1  0.74223785  0.62295365  0.48847620  1
  O  O258  1  0.73681885  0.62389006  1.00199147  1
  O  O259  1  0.25948137  0.37145829  0.00659044  1
  O  O260  1  0.25529714  0.36812086  0.50478682  1
  O  O261  1  0.26179467  0.86630297  0.01211103  1
  O  O262  1  0.25979004  0.86880287  0.50448344  1
  O  O263  1  0.74446468  0.37515906  0.01758408  1
  O  O264  1  0.75234277  0.35711385  0.49995916  1
  O  O265  1  0.76147105  0.86829501  0.00385046  1
  O  O266  1  0.76117456  0.88108952  0.50817243  1
  O  O267  1  0.14007598  0.49471276  0.25009413  1
  O  O268  1  0.12804927  0.49522945  0.74139060  1
  O  O269  1  0.12040866  0.98822718  0.24155998  1
  O  O270  1  0.13536514  0.98980411  0.73579545  1
  O  O271  1  0.63770929  0.49688730  0.25641866  1
  O  O272  1  0.63359935  0.54390688  0.75736656  1
  O  O273  1  0.63596320  0.99060965  0.24234079  1
  O  O274  1  0.62892097  0.99003074  0.74448668  1
  O  O275  1  0.36439321  -0.03160460  0.24790501  1
  O  O276  1  0.36833384  0.01001332  0.75504059  1
  O  O277  1  0.36392895  0.49675729  0.26088132  1
  O  O278  1  0.37021272  0.51370451  0.75302948  1
  O  O279  1  0.86185062  -0.00965067  0.24612456  1
  O  O280  1  0.86086239  -0.00965865  0.75048829  1
  O  O281  1  0.87098783  0.50065988  0.26323460  1
  O  O282  1  0.88245795  0.51369422  0.76362126  1
  O  O283  1  0.11074984  0.37943961  0.37913249  1
  O  O284  1  0.12229895  0.37319225  0.87084312  1
  O  O285  1  0.11954022  0.86946462  0.36730328  1
  O  O286  1  0.13963497  0.86659463  0.85444475  1
  O  O287  1  0.61713475  0.35876220  0.37737953  1
  O  O288  1  0.60952486  0.36834445  0.87873840  1
  O  O289  1  0.62312028  0.86803011  0.36963233  1
  O  O290  1  0.61891858  0.86953469  0.87018890  1
  O  O291  1  0.37276974  0.13871611  0.12332002  1
  O  O292  1  0.38204852  0.11917783  0.63256146  1
  O  O293  1  0.38150944  0.63767526  0.12456858  1
  O  O294  1  0.37876740  0.62198611  0.63080273  1
  O  O295  1  0.88168142  0.13254313  0.12568147  1
  O  O296  1  0.88521692  0.12717713  0.64567591  1
  O  O297  1  0.88212177  0.63045965  0.12891587  1
  O  O298  1  0.88527892  0.62261237  0.63652528  1
  O  O299  1  0.25891711  0.25448576  0.11926405  1
  O  O300  1  0.24326287  0.26056776  0.61501294  1
  O  O301  1  0.25799703  0.75425834  0.12256172  1
  O  O302  1  0.24532229  0.76166111  0.61435222  1
  O  O303  1  0.75926413  0.26285469  0.12643542  1
  O  O304  1  0.74530115  0.24678564  0.61097868  1
  O  O305  1  0.76063716  0.74861572  0.12803029  1
  O  O306  1  0.75379586  0.76383218  0.63053071  1
  O  O307  1  0.24838252  0.24913251  0.38614222  1
  O  O308  1  0.24609251  0.24767662  0.88332876  1
  O  O309  1  0.24363452  0.74385822  0.38430003  1
  O  O310  1  0.24764937  0.73753959  0.88508910  1
  O  O311  1  0.73972463  0.24835500  0.38228709  1
  O  O312  1  0.73501078  0.25712077  0.87656890  1
  O  O313  1  0.74260083  0.73709208  0.36419584  1
  O  O314  1  0.73284713  0.74613546  0.87895063  1
  O  O315  1  -0.00623230  0.12721231  0.00819574  1
  O  O316  1  0.00742594  0.11218036  0.49604858  1
  O  O317  1  0.00846663  0.62045960  0.00590273  1
  O  O318  1  0.00772273  0.61923105  0.50296153  1
  O  O319  1  0.51001099  0.12425887  0.00640494  1
  O  O320  1  0.50572287  0.13169137  0.51289484  1
  O  O321  1  0.50068798  0.61661142  0.01091217  1
  O  O322  1  0.49201555  0.61456905  0.50560227  1
  O  O323  1  0.49330505  0.37982608  0.49587181  1
  O  O324  1  0.49400682  0.37970664  0.99599321  1
  O  O325  1  0.49406169  0.87466080  0.49559830  1
  O  O326  1  0.48597597  0.87528149  0.99566792  1
  O  O327  1  1.00058511  0.38072314  0.49209687  1
  O  O328  1  1.00943902  0.38792765  0.99317518  1
  O  O329  1  0.99007418  0.88189573  0.49661393  1
  O  O330  1  0.98121536  0.86983910  0.99718805  1
  O  O331  1  0.49454423  0.49432444  0.38527722  1
  O  O332  1  0.49368015  0.49199397  0.88653664  1
  O  O333  1  0.50998454  0.98905425  0.37302802  1
  O  O334  1  0.48951956  0.99385371  0.87546938  1
  O  O335  1  0.99514408  0.49487616  0.37983020  1
  O  O336  1  0.99378554  0.49507516  0.88493438  1
  O  O337  1  0.99772751  0.99095287  0.38351520  1
  O  O338  1  1.03298724  0.98545789  0.87224083  1
  O  O339  1  0.01228191  0.00482041  0.12134556  1
  O  O340  1  0.01160983  -0.01028482  0.61534460  1
  O  O341  1  0.00048973  0.50399064  0.12109032  1
  O  O342  1  0.01329160  0.50594426  0.61400024  1
  O  O343  1  0.51583293  -0.00383852  0.11892940  1
  O  O344  1  0.51435655  0.00983490  0.63190641  1
  O  O345  1  0.49075557  0.51001232  0.12154309  1
  O  O346  1  0.49703290  0.50914312  0.61249569  1
  O  O347  1  0.25197772  0.38294541  0.24333724  1
  O  O348  1  0.24386250  0.37845307  0.74273554  1
  O  O349  1  0.23434399  0.85904587  0.23785996  1
  O  O350  1  0.24783212  0.87734766  0.73938093  1
  O  O351  1  0.75414699  0.38470970  0.24347277  1
  O  O352  1  0.73733290  0.38139428  0.74440109  1
  O  O353  1  0.73990221  0.87719526  0.24904540  1
  O  O354  1  0.73744364  0.87699021  0.74520152  1
  O  O355  1  0.24572911  0.12375511  0.26714406  1
  O  O356  1  0.25296222  0.12365327  0.75235616  1
  O  O357  1  0.24707798  0.61913550  0.25911052  1
  O  O358  1  0.25216696  0.62470001  0.75817595  1
  O  O359  1  0.75337312  0.11322060  0.24916399  1
  O  O360  1  0.74659380  0.10794512  0.74620790  1
  O  O361  1  0.75110356  0.60870519  0.25438763  1
  O  O362  1  0.76829174  0.63833295  0.75791287  1
  O  O363  1  0.35859999  0.12339397  0.37882926  1
  O  O364  1  0.36556421  0.12271760  0.86614823  1
  O  O365  1  0.37096419  0.61162188  0.38028577  1
  O  O366  1  0.36634931  0.62368370  0.87026316  1
  O  O367  1  0.87257398  0.11852082  0.36629364  1
  O  O368  1  0.91891245  0.14590370  0.82137693  1
  O  O369  1  0.86238898  0.61810561  0.37304218  1
  O  O370  1  0.87493753  0.61760849  0.87148785  1
  O  O371  1  0.14158292  0.37975088  0.12059432  1
  O  O372  1  0.12800398  0.37961299  0.63376059  1
  O  O373  1  0.13034271  0.88198358  0.12980056  1
  O  O374  1  0.13353320  0.87891894  0.63010468  1
  O  O375  1  0.63494278  0.36745842  0.12840589  1
  O  O376  1  0.62960302  0.38682851  0.62361694  1
  O  O377  1  0.62617403  0.87865896  0.13347741  1
  O  O378  1  0.62874631  0.87997932  0.63156381  1
  O  O379  1  0.11793614  0.25999923  0.24055784  1
  O  O380  1  0.13466645  0.26396282  0.76623310  1
  O  O381  1  0.11270023  0.75607770  0.25388599  1
  O  O382  1  0.11461887  0.75517358  0.74639761  1
  O  O383  1  0.62934998  0.24088745  0.26494390  1
  O  O384  1  0.61265830  0.24313110  0.75784076  1
  O  O385  1  0.61666351  0.75588815  0.25484039  1
  O  O386  1  0.61877887  0.75350621  0.76103247  1
  O  O387  1  0.37013407  0.25176116  0.23956818  1
  O  O388  1  0.38074264  0.24085970  0.75203798  1
  O  O389  1  0.39004256  0.76355413  0.24484963  1
  O  O390  1  0.37243792  0.73728944  0.75389171  1
  O  O391  1  0.88143917  0.25053902  0.23429825  1
  O  O392  1  0.87736812  0.26676241  0.74165851  1
  O  O393  1  0.88637366  0.75050470  0.24122919  1
  O  O394  1  0.88485644  0.74757368  0.74472156  1
  O  O395  1  0.38194920  0.48931490  0.49407831  1
  O  O396  1  0.38332406  0.48772408  1.00142498  1
  O  O397  1  0.37343259  0.99065890  0.50317333  1
  O  O398  1  0.37272289  0.99152269  0.99406113  1
  O  O399  1  0.89227215  0.50514255  0.48891169  1
  O  O400  1  0.88784557  0.50773049  0.99450722  1
  O  O401  1  0.88159577  0.99433302  0.50582539  1
  O  O402  1  0.86968208  0.98909974  1.00186140  1
  O  O403  1  0.13437987  -0.00407616  0.01578556  1
  O  O404  1  0.11597117  0.00004756  0.50399693  1
  O  O405  1  0.11744798  0.51213968  0.00368698  1
  O  O406  1  0.11807979  0.50616495  0.50348220  1
  O  O407  1  0.62511189  0.00485360  0.00539764  1
  O  O408  1  0.63094701  0.01384433  0.50912027  1
  O  O409  1  0.61017906  0.50697013  -0.00021922  1
  O  O410  1  0.62009931  0.50419571  0.49175720  1
  O  O411  1  0.36642802  0.36569010  0.11933934  1
  O  O412  1  0.36369043  0.38157728  0.61638429  1
  O  O413  1  0.37029269  0.86466439  0.11810382  1
  O  O414  1  0.36893509  0.87767653  0.61798904  1
  O  O415  1  0.87283740  0.36455121  0.12340369  1
  O  O416  1  0.86271923  0.40111087  0.61363822  1
  O  O417  1  0.87411581  0.86580632  0.11371036  1
  O  O418  1  0.86693653  0.86852939  0.61884950  1
  O  O419  1  0.13464521  0.11633916  0.38615964  1
  O  O420  1  0.13818961  0.13818558  0.87108118  1
  O  O421  1  0.13172799  0.63057295  0.38054123  1
  O  O422  1  0.13134331  0.62617044  0.88358732  1
  O  O423  1  0.62849057  0.13313576  0.38447755  1
  O  O424  1  0.61506122  0.13582431  0.88169206  1
  O  O425  1  0.63562142  0.63215977  0.37040361  1
  O  O426  1  0.61735418  0.63425975  0.89346389  1
