# generated using pymatgen
data_V85Zn86O256
_symmetry_space_group_name_H-M   'P 1'
_cell_length_a   16.95061823
_cell_length_b   16.94427300
_cell_length_c   16.95196292
_cell_angle_alpha   89.99367354
_cell_angle_beta   89.96656073
_cell_angle_gamma   89.96739323
_symmetry_Int_Tables_number   1
_chemical_formula_structural   V85Zn86O256
_chemical_formula_sum   'V85 Zn86 O256'
_cell_volume   4868.87168601
_cell_formula_units_Z   1
loop_
 _symmetry_equiv_pos_site_id
 _symmetry_equiv_pos_as_xyz
  1  'x, y, z'
loop_
 _atom_site_type_symbol
 _atom_site_label
 _atom_site_symmetry_multiplicity
 _atom_site_fract_x
 _atom_site_fract_y
 _atom_site_fract_z
 _atom_site_occupancy
  V  V0  1  0.87499403  0.87977556  0.49251196  1
  V  V1  1  0.87533160  0.61744539  0.25286804  1
  V  V2  1  0.01165499  0.87601679  0.87083676  1
  V  V3  1  0.31284586  0.56319703  0.81811733  1
  V  V4  1  0.37350344  0.25388089  0.62622615  1
  V  V5  1  0.50639360  0.75500543  0.24874784  1
  V  V6  1  0.13500738  0.62680267  0.00003019  1
  V  V7  1  0.00670828  0.50351228  0.49455526  1
  V  V8  1  0.50558579  0.61307890  0.63014387  1
  V  V9  1  0.62377792  0.12172888  -0.00158089  1
  V  V10  1  0.75189244  0.87186408  0.62512542  1
  V  V11  1  0.88101485  0.24159131  0.12381649  1
  V  V12  1  0.75081188  0.24831501  -0.00057477  1
  V  V13  1  -0.00079673  0.74912590  0.26085129  1
  V  V14  1  0.63082187  0.75282035  0.37224092  1
  V  V15  1  0.24941268  0.24781352  0.50177264  1
  V  V16  1  0.62154469  0.25315090  0.87330122  1
  V  V17  1  0.12455877  0.26235547  0.37436508  1
  V  V18  1  0.74291709  0.50570338  0.74867139  1
  V  V19  1  0.50704750  0.87599026  0.37842537  1
  V  V20  1  0.37531378  0.39722235  0.00335279  1
  V  V21  1  0.12168200  0.12752475  0.00286871  1
  V  V22  1  0.75217897  0.49609521  0.25307621  1
  V  V23  1  -0.00385279  0.12629400  0.62667719  1
  V  V24  1  0.37475646  0.12538364  0.24939672  1
  V  V25  1  0.37716913  0.37688126  0.49079602  1
  V  V26  1  0.37202280  0.74942622  0.61869772  1
  V  V27  1  0.50275813  0.61767566  0.13047916  1
  V  V28  1  -0.00120443  0.25066416  0.74913810  1
  V  V29  1  0.50985564  0.49543104  0.49363088  1
  V  V30  1  0.75173392  0.25020336  0.50120613  1
  V  V31  1  0.00945658  0.75412102  0.74652350  1
  V  V32  1  0.37281269  0.51709853  0.37122623  1
  V  V33  1  0.50126714  0.87079797  0.87742268  1
  V  V34  1  0.62416574  0.12413087  0.50187904  1
  V  V35  1  0.75263443  0.00416418  0.74980262  1
  V  V36  1  0.75133291  0.74537051  -0.01031667  1
  V  V37  1  -0.00146449  0.50276929  -0.00103420  1
  V  V38  1  0.49627512  0.38806947  0.88155066  1
  V  V39  1  0.62122566  0.37351787  0.25355362  1
  V  V40  1  0.11746261  0.00463669  0.12689981  1
  V  V41  1  0.87512937  0.74791080  0.12492665  1
  V  V42  1  0.35482952  -0.03677906  0.83367854  1
  V  V43  1  0.75071531  0.12410796  0.87214191  1
  V  V44  1  0.12841108  0.38698878  0.74565349  1
  V  V45  1  0.12102658  0.11970031  0.50032623  1
  V  V46  1  0.12627793  -0.01085704  0.64123317  1
  V  V47  1  0.87559343  0.87520213  -0.00120128  1
  V  V48  1  0.24769261  0.12581722  0.37322019  1
  V  V49  1  0.00043410  0.00256164  0.00150726  1
  V  V50  1  0.25474179  0.25137186  -0.00093071  1
  V  V51  1  0.88406814  0.11976118  0.25224361  1
  V  V52  1  0.49823910  0.74452579  0.74754616  1
  V  V53  1  0.01050422  0.61869769  0.62646667  1
  V  V54  1  0.24346490  0.37394809  0.13502108  1
  V  V55  1  0.49424998  0.12408557  0.62804697  1
  V  V56  1  0.24990469  0.39200275  0.62745222  1
  V  V57  1  0.36646704  0.13155180  0.75362187  1
  V  V58  1  0.12855224  0.25308733  0.87148969  1
  V  V59  1  0.12200317  0.86930231  0.25002507  1
  V  V60  1  0.87662768  0.38270570  0.49514515  1
  V  V61  1  0.13861993  0.63916036  0.48773425  1
  V  V62  1  0.12038166  0.49464304  0.13478293  1
  V  V63  1  0.87494500  0.37390802  -0.00208110  1
  V  V64  1  0.75339268  0.62029523  0.37777298  1
  V  V65  1  0.62343234  0.24850467  0.37542891  1
  V  V66  1  0.74295245  0.87357664  0.12735522  1
  V  V67  1  0.87739602  0.00424137  0.87025385  1
  V  V68  1  0.86927729  0.50345195  0.87360602  1
  V  V69  1  0.74956171  0.37134664  0.12585609  1
  V  V70  1  0.74290213  0.38142401  0.62590597  1
  V  V71  1  0.74770327  -0.00312065  0.25136035  1
  V  V72  1  0.49858257  0.25035824  0.25625428  1
  V  V73  1  0.75604867  0.11906162  0.37558280  1
  V  V74  1  0.37645207  -0.00445404  0.37748322  1
  V  V75  1  0.87324269  0.25051179  0.62981691  1
  V  V76  1  0.49934234  0.12236355  0.12517078  1
  V  V77  1  0.24894873  -0.00221679  0.24868054  1
  V  V78  1  0.00493412  0.25486444  0.24715774  1
  V  V79  1  0.37532513  0.74914963  0.12963275  1
  V  V80  1  0.37556158  0.88050230  0.00748899  1
  V  V81  1  0.87272020  0.62775762  0.75052176  1
  V  V82  1  0.62156244  -0.00031795  0.62646864  1
  V  V83  1  0.62333076  0.87443023  0.75014037  1
  V  V84  1  0.62462122  0.61825363  -0.00489167  1
  Zn  Zn85  1  0.62960103  0.74532202  0.87235345  1
  Zn  Zn86  1  0.00017125  0.37704137  0.87103184  1
  Zn  Zn87  1  0.13295692  0.74240521  0.86713867  1
  Zn  Zn88  1  -0.00722468  0.00447598  0.49473940  1
  Zn  Zn89  1  0.75090917  0.74752992  0.50059778  1
  Zn  Zn90  1  0.49515901  0.00271072  -0.00831208  1
  Zn  Zn91  1  0.61865911  0.38221388  0.74778417  1
  Zn  Zn92  1  0.49616681  -0.00728562  0.50581885  1
  Zn  Zn93  1  -0.00148489  0.38183127  0.36955652  1
  Zn  Zn94  1  0.63181888  0.62010405  0.50364587  1
  Zn  Zn95  1  0.24140100  0.50874137  0.26497475  1
  Zn  Zn96  1  0.49870568  0.25714555  0.75269679  1
  Zn  Zn97  1  0.25250023  0.11873260  0.87586521  1
  Zn  Zn98  1  0.24671262  0.87028000  0.12449119  1
  Zn  Zn99  1  -0.00233896  0.62444291  0.12543979  1
  Zn  Zn100  1  0.62293130  -0.00462291  0.12575842  1
  Zn  Zn101  1  0.87728778  0.75027293  0.62387269  1
  Zn  Zn102  1  0.25884181  0.74706287  -0.00593545  1
  Zn  Zn103  1  0.37528086  0.25190931  0.12459624  1
  Zn  Zn104  1  0.62251528  0.49496413  0.12288900  1
  Zn  Zn105  1  0.33025777  0.83251655  0.47910721  1
  Zn  Zn106  1  -0.00928603  0.88996041  0.36935182  1
  Zn  Zn107  1  0.18436407  0.18807753  0.18690432  1
  Zn  Zn108  1  0.18677995  0.18707940  0.68525591  1
  Zn  Zn109  1  0.18524908  0.68400875  0.18850600  1
  Zn  Zn110  1  0.19197260  0.67942901  0.68578788  1
  Zn  Zn111  1  0.68871278  0.18411221  0.18757214  1
  Zn  Zn112  1  0.68540385  0.18863792  0.68925076  1
  Zn  Zn113  1  0.68730088  0.68585048  0.18699132  1
  Zn  Zn114  1  0.68362511  0.68577955  0.68714247  1
  Zn  Zn115  1  0.31171264  0.31419738  0.31199793  1
  Zn  Zn116  1  0.31283590  0.32479158  0.81554019  1
  Zn  Zn117  1  0.31438402  0.80392457  0.30721623  1
  Zn  Zn118  1  0.31430930  0.78913490  0.80835876  1
  Zn  Zn119  1  0.81409083  0.30738190  0.31349630  1
  Zn  Zn120  1  0.81034465  0.31642434  0.81115003  1
  Zn  Zn121  1  0.81185446  0.80984633  0.31075753  1
  Zn  Zn122  1  0.81972553  0.81632234  0.80962085  1
  Zn  Zn123  1  0.18984913  0.44401988  0.44522651  1
  Zn  Zn124  1  0.18891264  0.44007959  0.94024850  1
  Zn  Zn125  1  0.19019452  0.88206708  0.42960645  1
  Zn  Zn126  1  0.19214739  0.93494462  0.94027244  1
  Zn  Zn127  1  0.69127343  0.43377157  0.43290686  1
  Zn  Zn128  1  0.68815932  0.43848116  0.93528866  1
  Zn  Zn129  1  0.68735619  0.93748914  0.43876435  1
  Zn  Zn130  1  0.68763043  0.93561469  0.93867594  1
  Zn  Zn131  1  0.30941510  0.06293918  0.06343855  1
  Zn  Zn132  1  0.28264280  0.02038530  0.54063185  1
  Zn  Zn133  1  0.29851521  0.57733868  0.10526241  1
  Zn  Zn134  1  0.32093061  0.56940393  0.56106863  1
  Zn  Zn135  1  0.81261827  0.06119291  0.06370205  1
  Zn  Zn136  1  0.81286300  0.06242692  0.56594485  1
  Zn  Zn137  1  0.80854201  0.56189086  0.06463978  1
  Zn  Zn138  1  0.81843156  0.56170801  0.56573296  1
  Zn  Zn139  1  0.43516962  0.43502091  0.18911662  1
  Zn  Zn140  1  0.43416985  0.44138989  0.69071042  1
  Zn  Zn141  1  0.44175897  0.93574928  0.19163631  1
  Zn  Zn142  1  0.42530032  0.92819093  0.68427155  1
  Zn  Zn143  1  0.93561144  0.43349061  0.18515440  1
  Zn  Zn144  1  0.93568800  0.43824409  0.68470338  1
  Zn  Zn145  1  0.93419000  0.93744359  0.18582047  1
  Zn  Zn146  1  0.93945323  0.93886510  0.68544800  1
  Zn  Zn147  1  0.06138611  0.06289871  0.31730853  1
  Zn  Zn148  1  0.06112736  0.06981556  0.81334908  1
  Zn  Zn149  1  0.06182916  0.56620124  0.31669896  1
  Zn  Zn150  1  0.06122361  0.56447769  0.81633827  1
  Zn  Zn151  1  0.56625333  0.06130639  0.31183574  1
  Zn  Zn152  1  0.55353055  0.05970471  0.81051847  1
  Zn  Zn153  1  0.56425058  0.56268581  0.31308095  1
  Zn  Zn154  1  0.55860611  0.56219148  0.81680157  1
  Zn  Zn155  1  0.43550459  0.18373936  0.43989902  1
  Zn  Zn156  1  0.43897749  0.19183629  0.93680066  1
  Zn  Zn157  1  0.44732754  0.68160644  0.43715023  1
  Zn  Zn158  1  0.43824318  0.68407834  0.94284449  1
  Zn  Zn159  1  0.93786947  0.19149935  0.43668396  1
  Zn  Zn160  1  0.93969672  0.18632941  0.93377166  1
  Zn  Zn161  1  0.93392893  0.68927229  0.44143310  1
  Zn  Zn162  1  0.94109454  0.68747904  0.93345323  1
  Zn  Zn163  1  0.06085641  0.31359472  0.06084722  1
  Zn  Zn164  1  0.06526608  0.31552641  0.56232598  1
  Zn  Zn165  1  0.06050635  0.81253040  0.06456354  1
  Zn  Zn166  1  0.06101102  0.81239277  0.56283618  1
  Zn  Zn167  1  0.55895459  0.31075040  0.06386761  1
  Zn  Zn168  1  0.56096864  0.31279590  0.56232373  1
  Zn  Zn169  1  0.56393843  0.80812178  0.05934482  1
  Zn  Zn170  1  0.56336957  0.80667035  0.56012040  1
  O  O171  1  0.12721716  0.11708387  0.11525044  1
  O  O172  1  0.10949179  0.13278804  0.61875267  1
  O  O173  1  0.11550680  0.61308263  0.11378086  1
  O  O174  1  0.11252053  0.62603677  0.61787353  1
  O  O175  1  0.61892575  0.12518866  0.11420319  1
  O  O176  1  0.61698119  0.12067493  0.62262648  1
  O  O177  1  0.61755916  0.62282378  0.11877714  1
  O  O178  1  0.61205810  0.62547446  0.61981286  1
  O  O179  1  0.37456217  0.37103288  0.38972866  1
  O  O180  1  0.38174813  0.37263777  0.89409585  1
  O  O181  1  0.38980667  0.88438959  0.37336938  1
  O  O182  1  0.38426775  0.86881766  0.89178529  1
  O  O183  1  0.87625912  0.36562780  0.39177835  1
  O  O184  1  0.87665182  0.38195929  0.88118025  1
  O  O185  1  0.86879035  0.87350018  0.38927129  1
  O  O186  1  0.88183112  0.88714520  0.88104434  1
  O  O187  1  0.25831254  0.00533520  0.35958163  1
  O  O188  1  0.26647934  -0.00044585  0.87628371  1
  O  O189  1  0.26684006  0.49616998  0.37816563  1
  O  O190  1  0.25875455  0.49728487  0.87537983  1
  O  O191  1  0.74707626  0.01112010  0.36852930  1
  O  O192  1  0.75661300  0.00267694  0.86896942  1
  O  O193  1  0.74965158  0.50395504  0.36181370  1
  O  O194  1  0.76274065  0.49680785  0.86754514  1
  O  O195  1  0.23224442  0.48366258  0.11450097  1
  O  O196  1  0.25688503  0.48970819  0.61977270  1
  O  O197  1  0.24067936  1.00106516  0.13619001  1
  O  O198  1  0.22353247  1.01930424  0.63702682  1
  O  O199  1  0.74856641  0.49047087  0.13721977  1
  O  O200  1  0.75508386  0.49194655  0.63437685  1
  O  O201  1  0.74880911  0.99067702  0.13025084  1
  O  O202  1  0.74465492  0.99299561  0.63377381  1
  O  O203  1  -0.00906937  0.36033019  0.25365918  1
  O  O204  1  0.00691351  0.36569599  0.74598524  1
  O  O205  1  0.00122006  0.86614880  0.24705072  1
  O  O206  1  -0.00833251  0.86516317  0.75857225  1
  O  O207  1  0.50933893  0.36227160  0.24344073  1
  O  O208  1  0.50067449  0.37617419  0.76179130  1
  O  O209  1  0.50393831  0.86297990  0.25888463  1
  O  O210  1  0.50517066  0.86578476  0.75528778  1
  O  O211  1  0.49660232  0.12985457  0.24366872  1
  O  O212  1  0.49672527  0.13477846  0.74018021  1
  O  O213  1  0.50912461  0.63564017  0.23755892  1
  O  O214  1  0.50991769  0.62842571  0.73860536  1
  O  O215  1  0.98912597  0.13630924  0.25403816  1
  O  O216  1  1.00111307  0.14229469  0.74310192  1
  O  O217  1  0.99081327  0.62998287  0.24880439  1
  O  O218  1  0.99631890  0.62817693  0.74075080  1
  O  O219  1  0.36088802  0.24432005  0.00377842  1
  O  O220  1  0.37085298  0.25649419  0.50713659  1
  O  O221  1  0.38190212  0.76112089  0.01390237  1
  O  O222  1  0.38428384  0.73822180  0.51214673  1
  O  O223  1  0.87279099  0.25096988  0.00564673  1
  O  O224  1  0.86996068  0.25700512  0.51158178  1
  O  O225  1  0.87011530  0.75111959  0.00580482  1
  O  O226  1  0.86941010  0.76202893  0.50484249  1
  O  O227  1  0.13013464  0.24378921  0.49410325  1
  O  O228  1  0.13136376  0.24562976  0.99309064  1
  O  O229  1  0.12025616  0.73849230  0.50030893  1
  O  O230  1  0.12121546  0.73295410  1.00670935  1
  O  O231  1  0.63126179  0.24498872  0.49596826  1
  O  O232  1  0.62824395  0.24050212  0.99151666  1
  O  O233  1  0.63047205  0.74449458  0.48632397  1
  O  O234  1  0.63604960  0.74124718  0.99719656  1
  O  O235  1  0.49981275  0.23714391  0.13493551  1
  O  O236  1  0.48856433  0.24696196  0.62656173  1
  O  O237  1  0.50053283  0.74553043  0.13363788  1
  O  O238  1  0.50201479  0.73803247  0.63149109  1
  O  O239  1  0.99182357  0.25185372  0.13135052  1
  O  O240  1  0.99222934  0.24885388  0.62985508  1
  O  O241  1  0.98459885  0.74962229  0.12971473  1
  O  O242  1  0.99760680  0.73924308  0.63118989  1
  O  O243  1  0.00890127  0.25425585  0.36795460  1
  O  O244  1  0.00692923  0.25319545  0.86601315  1
  O  O245  1  -0.00977313  0.75446153  0.36206710  1
  O  O246  1  0.00408337  0.75987243  0.86731316  1
  O  O247  1  0.50584627  0.24060941  0.36356435  1
  O  O248  1  0.50849637  0.26009681  0.87614618  1
  O  O249  1  0.50898215  0.75426399  0.36835660  1
  O  O250  1  0.50205057  0.75747574  0.86810962  1
  O  O251  1  0.24114210  0.12742836  0.49241501  1
  O  O252  1  0.24011495  0.13176154  0.99714840  1
  O  O253  1  0.23550865  0.62231690  0.50718709  1
  O  O254  1  0.23636896  0.62384299  1.00982444  1
  O  O255  1  0.74685623  0.12867845  0.49425439  1
  O  O256  1  0.74207088  0.12851959  0.99362856  1
  O  O257  1  0.75192632  0.62203600  0.49226116  1
  O  O258  1  0.73808511  0.63450683  1.00818513  1
  O  O259  1  0.26019188  0.36803062  0.00596691  1
  O  O260  1  0.25661691  0.36990389  0.51145966  1
  O  O261  1  0.26170940  0.87416853  0.00785255  1
  O  O262  1  0.25806177  0.91405982  0.50859327  1
  O  O263  1  0.75494574  0.36705749  0.00416811  1
  O  O264  1  0.75711161  0.37195551  0.50670967  1
  O  O265  1  0.75639479  0.86749369  0.00633503  1
  O  O266  1  0.75685608  0.87509070  0.50945139  1
  O  O267  1  0.12053809  0.50193373  0.23886121  1
  O  O268  1  0.11591964  0.48527506  0.75520846  1
  O  O269  1  0.13016919  0.99887547  0.24226558  1
  O  O270  1  0.11109760  1.00026343  0.74079353  1
  O  O271  1  0.63170750  0.48882313  0.24935651  1
  O  O272  1  0.63956000  0.50074960  0.75866156  1
  O  O273  1  0.64294984  1.00776724  0.24437978  1
  O  O274  1  0.62945995  0.99398434  0.74634014  1
  O  O275  1  0.36908996  0.00430416  0.25573466  1
  O  O276  1  0.38634866  0.02602539  0.74461503  1
  O  O277  1  0.38102770  0.49150028  0.27201123  1
  O  O278  1  0.37194597  0.50682228  0.75621519  1
  O  O279  1  0.86516865  0.01274820  0.24142275  1
  O  O280  1  0.86524244  -0.00378641  0.75827648  1
  O  O281  1  0.86927229  0.50916855  0.24539123  1
  O  O282  1  0.86922061  0.50589550  0.75632439  1
  O  O283  1  0.12521342  0.36503353  0.38328885  1
  O  O284  1  0.12414148  0.36575177  0.86983193  1
  O  O285  1  0.11045423  0.88254950  0.35358319  1
  O  O286  1  0.11318857  0.87788608  0.87951630  1
  O  O287  1  0.63034448  0.36436418  0.36159128  1
  O  O288  1  0.61732195  0.36725944  0.87887997  1
  O  O289  1  0.62324303  0.86575534  0.37444660  1
  O  O290  1  0.61701421  0.87429810  0.86986641  1
  O  O291  1  0.38256076  0.12622608  0.13129297  1
  O  O292  1  0.38162314  0.13743454  0.63581341  1
  O  O293  1  0.39763962  0.63585108  0.11399230  1
  O  O294  1  0.39762115  0.63085065  0.62093717  1
  O  O295  1  0.87015282  0.13550419  0.13251332  1
  O  O296  1  0.88533272  0.13505011  0.62133381  1
  O  O297  1  0.87367224  0.63152190  0.13359323  1
  O  O298  1  0.88513204  0.62763282  0.63594602  1
  O  O299  1  0.24758370  0.25769343  0.11748763  1
  O  O300  1  0.26105459  0.25150650  0.61886649  1
  O  O301  1  0.26309249  0.75043532  0.12109430  1
  O  O302  1  0.27277144  0.74188147  0.63328942  1
  O  O303  1  0.75691479  0.25195869  0.11843563  1
  O  O304  1  0.75682905  0.25424836  0.62172951  1
  O  O305  1  0.75929466  0.75525979  0.12070304  1
  O  O306  1  0.74902368  0.76319650  0.62728706  1
  O  O307  1  0.24341897  0.24622020  0.37975688  1
  O  O308  1  0.24319684  0.25263844  0.88276350  1
  O  O309  1  0.25629045  0.79139641  0.39766059  1
  O  O310  1  0.24222609  0.75802692  0.88246047  1
  O  O311  1  0.74429310  0.23966740  0.38152061  1
  O  O312  1  0.74467975  0.24429168  0.87970390  1
  O  O313  1  0.74530046  0.74020891  0.37381524  1
  O  O314  1  0.75383688  0.75655178  0.88687600  1
  O  O315  1  0.01427220  0.11995970  -0.00664233  1
  O  O316  1  0.00458663  0.13102361  0.50838119  1
  O  O317  1  -0.00305531  0.61206612  0.00305450  1
  O  O318  1  0.00026638  0.61723706  0.50761330  1
  O  O319  1  0.50529703  0.12361541  0.00613192  1
  O  O320  1  0.50544824  0.12645124  0.51411522  1
  O  O321  1  0.51824286  0.63294730  0.01364081  1
  O  O322  1  0.50811047  0.60911362  0.50674205  1
  O  O323  1  0.49170080  0.38754495  0.50786267  1
  O  O324  1  0.48281204  0.37107235  1.00097298  1
  O  O325  1  0.50848896  0.87635567  0.48496315  1
  O  O326  1  0.49851158  0.87842467  0.99272543  1
  O  O327  1  0.99561030  0.38873837  0.50310557  1
  O  O328  1  0.99259969  0.38592173  0.99734086  1
  O  O329  1  0.98383964  0.87549672  0.49912383  1
  O  O330  1  0.99444954  0.88136535  0.99272954  1
  O  O331  1  0.49281862  0.50386579  0.38730134  1
  O  O332  1  0.50641261  0.48735301  0.88389514  1
  O  O333  1  0.49595641  0.99205301  0.37114800  1
  O  O334  1  0.48000939  0.98344846  0.86727420  1
  O  O335  1  0.99914364  0.49917892  0.38930327  1
  O  O336  1  0.98745750  0.49743591  0.88162101  1
  O  O337  1  0.99252412  1.00428147  0.38004840  1
  O  O338  1  0.99355803  0.99683538  0.87870893  1
  O  O339  1  0.00946602  -0.00173710  0.11876854  1
  O  O340  1  0.00376455  0.01253533  0.62217332  1
  O  O341  1  0.00362188  0.49713372  0.11666626  1
  O  O342  1  -0.00403217  0.51257928  0.61727199  1
  O  O343  1  0.50445400  0.01201306  0.12785660  1
  O  O344  1  0.50155339  0.00739642  0.62598406  1
  O  O345  1  0.50231103  0.51409957  0.13340481  1
  O  O346  1  0.49798572  0.50675257  0.61533795  1
  O  O347  1  0.25374122  0.38067395  0.23763761  1
  O  O348  1  0.24405074  0.37117069  0.73547688  1
  O  O349  1  0.23973096  0.88241580  0.24435126  1
  O  O350  1  0.32366828  0.89549862  0.75810714  1
  O  O351  1  0.74640552  0.37799157  0.24716890  1
  O  O352  1  0.74858584  0.38525378  0.74169512  1
  O  O353  1  0.75971388  0.88484742  0.24026417  1
  O  O354  1  0.74516794  0.88392053  0.74515270  1
  O  O355  1  0.25429492  0.11947735  0.25300086  1
  O  O356  1  0.26331585  0.13384208  0.75434273  1
  O  O357  1  0.26017256  0.60675650  0.21220809  1
  O  O358  1  0.24734070  0.61938977  0.76253349  1
  O  O359  1  0.75897427  0.12101745  0.25785823  1
  O  O360  1  0.74418043  0.11196543  0.75523360  1
  O  O361  1  0.75600737  0.61495890  0.25377533  1
  O  O362  1  0.75989690  0.61868492  0.74344497  1
  O  O363  1  0.36852971  0.12201021  0.36556716  1
  O  O364  1  0.37668046  0.13236360  0.85918044  1
  O  O365  1  0.37669059  0.61609278  0.37356032  1
  O  O366  1  0.37269616  0.62523876  0.87520056  1
  O  O367  1  0.86510976  0.13426268  0.36575932  1
  O  O368  1  0.86856904  0.11226826  0.87907753  1
  O  O369  1  0.86327891  0.62925078  0.36607311  1
  O  O370  1  0.88128185  0.61758266  0.86080388  1
  O  O371  1  0.13089506  0.38081606  0.12114701  1
  O  O372  1  0.14117734  0.37191512  0.63024482  1
  O  O373  1  0.12338798  0.88535190  0.13227775  1
  O  O374  1  0.11870983  0.89010866  0.62349960  1
  O  O375  1  0.63099296  0.37188213  0.13418897  1
  O  O376  1  0.63905586  0.36747396  0.62759638  1
  O  O377  1  0.63926315  0.87444992  0.11912562  1
  O  O378  1  0.63132358  0.88061957  0.62888772  1
  O  O379  1  0.11556258  0.24511598  0.25952598  1
  O  O380  1  0.11934136  0.25703075  0.75617308  1
  O  O381  1  0.11210037  0.75723711  0.23733309  1
  O  O382  1  0.11299384  0.74247850  0.74863461  1
  O  O383  1  0.61917707  0.25276424  0.25444265  1
  O  O384  1  0.62585624  0.25391460  0.76430941  1
  O  O385  1  0.62147064  0.74601748  0.26142012  1
  O  O386  1  0.61850973  0.75620394  0.75366662  1
  O  O387  1  0.38296222  0.24555800  0.24811050  1
  O  O388  1  0.37544535  0.24770359  0.74374566  1
  O  O389  1  0.38740414  0.75366928  0.23780334  1
  O  O390  1  0.39314931  0.74504819  0.73745195  1
  O  O391  1  0.88008786  0.24155545  0.24151991  1
  O  O392  1  0.88114619  0.25800913  0.73787103  1
  O  O393  1  0.87852311  0.74005167  0.24222962  1
  O  O394  1  0.88480990  0.74207478  0.74950153  1
  O  O395  1  0.38455363  0.49492869  0.49014428  1
  O  O396  1  0.37050802  0.49283223  1.01278109  1
  O  O397  1  0.38247338  1.01706543  0.47993341  1
  O  O398  1  0.37840609  0.98754662  1.00939394  1
  O  O399  1  0.88784542  0.49204031  0.50442151  1
  O  O400  1  0.87689980  0.49692222  0.99365805  1
  O  O401  1  0.87241618  0.98417166  0.50774213  1
  O  O402  1  0.88102980  0.99683691  0.99427950  1
  O  O403  1  0.12290853  0.00777765  0.00674540  1
  O  O404  1  0.11714529  0.01766582  0.51123989  1
  O  O405  1  0.11451880  0.50612996  0.00471847  1
  O  O406  1  0.11067381  0.50810937  0.50131299  1
  O  O407  1  0.62111360  0.01153002  -0.00137632  1
  O  O408  1  0.62290298  0.00799013  0.50852310  1
  O  O409  1  0.63509344  0.51408968  0.00507664  1
  O  O410  1  0.61289783  0.49382404  0.49276512  1
  O  O411  1  0.36695322  0.37236646  0.11663233  1
  O  O412  1  0.36678586  0.37092061  0.61992165  1
  O  O413  1  0.37776827  0.86790158  0.12270513  1
  O  O414  1  0.38872501  0.85157476  0.60906451  1
  O  O415  1  0.86848479  0.36258140  0.11814695  1
  O  O416  1  0.86574183  0.36898981  0.61682853  1
  O  O417  1  0.86676963  0.86719617  0.11739260  1
  O  O418  1  0.86589560  0.87351009  0.61979247  1
  O  O419  1  0.13020955  0.13436348  0.38254497  1
  O  O420  1  0.12991888  0.13705440  0.87985592  1
  O  O421  1  0.12713656  0.62432227  0.38789492  1
  O  O422  1  0.11629952  0.62483224  0.89586544  1
  O  O423  1  0.63294312  0.12966774  0.38156007  1
  O  O424  1  0.62583375  0.12976963  0.88060596  1
  O  O425  1  0.63918557  0.62876003  0.37534920  1
  O  O426  1  0.62207661  0.62652724  0.89123459  1
