# generated using pymatgen
data_V85Zn86O256
_symmetry_space_group_name_H-M   'P 1'
_cell_length_a   16.95239972
_cell_length_b   16.95209739
_cell_length_c   16.95026879
_cell_angle_alpha   90.11343992
_cell_angle_beta   89.95753548
_cell_angle_gamma   89.96375855
_symmetry_Int_Tables_number   1
_chemical_formula_structural   V85Zn86O256
_chemical_formula_sum   'V85 Zn86 O256'
_cell_volume   4871.13487247
_cell_formula_units_Z   1
loop_
 _symmetry_equiv_pos_site_id
 _symmetry_equiv_pos_as_xyz
  1  'x, y, z'
loop_
 _atom_site_type_symbol
 _atom_site_label
 _atom_site_symmetry_multiplicity
 _atom_site_fract_x
 _atom_site_fract_y
 _atom_site_fract_z
 _atom_site_occupancy
  V  V0  1  0.50143992  0.37601938  0.87759897  1
  V  V1  1  0.00400493  0.49781869  -0.00661969  1
  V  V2  1  0.86924276  0.62442767  0.73677386  1
  V  V3  1  0.62290606  0.49682165  0.62262196  1
  V  V4  1  0.00279636  0.62489887  0.11639166  1
  V  V5  1  0.37347841  0.00007160  0.37246128  1
  V  V6  1  0.62276963  0.61796651  0.49872452  1
  V  V7  1  0.11695616  0.63048604  0.50044230  1
  V  V8  1  0.00130552  0.25033997  0.24858521  1
  V  V9  1  0.87691255  0.37336722  -0.01358415  1
  V  V10  1  0.62348661  0.63151601  0.00133036  1
  V  V11  1  0.00016137  -0.00142169  0.49936204  1
  V  V12  1  0.35475329  0.50392560  0.37763071  1
  V  V13  1  0.00212636  0.75102602  0.24773084  1
  V  V14  1  0.87801854  0.62536334  0.24897059  1
  V  V15  1  0.24015481  0.12502577  0.87405023  1
  V  V16  1  0.49877834  0.87116823  0.37341921  1
  V  V17  1  0.74592216  0.23418952  -0.00105637  1
  V  V18  1  0.24359779  0.62422809  0.87932865  1
  V  V19  1  0.37216071  0.74789704  0.62371625  1
  V  V20  1  0.50201509  0.00057661  0.50145325  1
  V  V21  1  0.24830501  0.75195567  0.00263181  1
  V  V22  1  0.37476548  0.12553683  0.74910419  1
  V  V23  1  0.74413440  0.50505775  0.75955387  1
  V  V24  1  0.37748979  0.37831303  0.50050402  1
  V  V25  1  0.75245223  0.50179551  0.24806956  1
  V  V26  1  0.74896537  0.37796255  0.12059123  1
  V  V27  1  0.37599978  0.37714717  0.00255693  1
  V  V28  1  0.37220907  0.62343761  0.74875129  1
  V  V29  1  0.24684109  0.87337075  0.62669282  1
  V  V30  1  0.87186548  0.51028015  0.87612050  1
  V  V31  1  0.62059592  0.74334460  0.37167729  1
  V  V32  1  0.24976880  0.74673573  0.49673962  1
  V  V33  1  -0.00876303  0.87996750  0.89090011  1
  V  V34  1  0.25152763  0.38064449  0.13350721  1
  V  V35  1  0.11630553  0.87432167  0.75102603  1
  V  V36  1  0.12443990  0.00125539  0.62623450  1
  V  V37  1  0.11997711  0.25247099  0.37521814  1
  V  V38  1  0.62844071  0.37328669  0.75261493  1
  V  V39  1  0.37537738  0.50167182  0.87582283  1
  V  V40  1  0.13290667  0.88359976  0.23605475  1
  V  V41  1  0.12137739  0.38338068  0.25222935  1
  V  V42  1  0.10566137  0.47738586  0.59497295  1
  V  V43  1  0.87598851  0.75434898  0.12551778  1
  V  V44  1  0.74966650  0.87270295  0.13106353  1
  V  V45  1  0.87094942  0.25118658  0.61595246  1
  V  V46  1  0.49688530  0.61985626  0.61844284  1
  V  V47  1  0.11985302  0.74552355  0.87687744  1
  V  V48  1  0.87827751  0.25392648  0.12354535  1
  V  V49  1  0.00225781  0.87777974  0.37152880  1
  V  V50  1  0.17827676  0.06713932  0.05776564  1
  V  V51  1  0.50278093  0.12468975  0.62222805  1
  V  V52  1  0.75831643  0.74810692  -0.00813399  1
  V  V53  1  0.62761996  0.23612764  0.88030132  1
  V  V54  1  0.63608766  -0.00406969  0.62446673  1
  V  V55  1  0.36207385  0.61797195  0.24666326  1
  V  V56  1  0.62654071  0.88468722  0.25130688  1
  V  V57  1  0.50406169  0.12355252  0.11209486  1
  V  V58  1  0.50184809  0.24959261  0.74983227  1
  V  V59  1  0.37287842  0.75357943  0.12545004  1
  V  V60  1  0.63546447  0.86922422  0.74456099  1
  V  V61  1  0.87356226  0.01029095  0.36185637  1
  V  V62  1  0.24371368  0.49858941  0.75004958  1
  V  V63  1  0.75474180  0.00484103  0.75790741  1
  V  V64  1  0.49975713  0.24867607  0.25359316  1
  V  V65  1  0.11231200  0.37369030  0.76306890  1
  V  V66  1  0.37973344  -0.00256079  0.87598550  1
  V  V67  1  0.75446686  0.62357894  0.37789098  1
  V  V68  1  0.63848460  0.24658030  0.37698793  1
  V  V69  1  0.24846358  -0.00007382  0.75025684  1
  V  V70  1  0.12965122  0.74893298  0.37171829  1
  V  V71  1  0.24495397  0.25395954  0.00306787  1
  V  V72  1  0.12938051  0.50650993  0.12348736  1
  V  V73  1  0.25162852  0.37364870  0.63021126  1
  V  V74  1  0.50085597  0.87428573  0.87559071  1
  V  V75  1  0.00192054  0.11618244  0.11117297  1
  V  V76  1  0.49997914  0.50697404  0.01118139  1
  V  V77  1  0.25055211  0.12486423  0.37288889  1
  V  V78  1  0.12559916  0.12465989  0.50097373  1
  V  V79  1  0.89432118  0.49166793  0.38524360  1
  V  V80  1  0.49936374  0.73874207  0.23802814  1
  V  V81  1  0.86980829  0.00473886  0.90277847  1
  V  V82  1  0.50140487  0.38460296  0.37616932  1
  V  V83  1  0.37407939  0.87388147  0.50081552  1
  V  V84  1  0.50145507  0.74841431  0.74794452  1
  Zn  Zn85  1  -0.00480238  0.62255028  0.62153220  1
  Zn  Zn86  1  0.87620098  0.12500365  0.75744644  1
  Zn  Zn87  1  0.25086749  0.25169778  0.50049484  1
  Zn  Zn88  1  0.37757767  0.12603330  0.25111264  1
  Zn  Zn89  1  0.62367222  0.00953657  0.10326581  1
  Zn  Zn90  1  0.37695120  0.25381599  0.12921853  1
  Zn  Zn91  1  0.86815506  0.76487277  0.62335872  1
  Zn  Zn92  1  0.25258926  -0.00124500  0.23488128  1
  Zn  Zn93  1  0.85811536  0.13302191  0.25578095  1
  Zn  Zn94  1  0.74699335  0.36052999  0.60665724  1
  Zn  Zn95  1  -0.01196546  0.24882121  0.76204554  1
  Zn  Zn96  1  0.37592122  0.24967991  0.62256961  1
  Zn  Zn97  1  0.86536170  0.87933078  0.50312932  1
  Zn  Zn98  1  0.63299866  0.74278911  0.86875410  1
  Zn  Zn99  1  0.62313585  0.50552529  0.12701396  1
  Zn  Zn100  1  0.00015077  0.12858007  0.63458770  1
  Zn  Zn101  1  0.11100841  0.24909489  0.88374673  1
  Zn  Zn102  1  0.37416208  0.87749996  0.00814550  1
  Zn  Zn103  1  0.65311951  0.14716274  0.50885219  1
  Zn  Zn104  1  -0.00599227  0.74722969  0.74765940  1
  Zn  Zn105  1  0.62571140  0.37728150  0.24835346  1
  Zn  Zn106  1  0.74592141  0.76155091  0.50797238  1
  Zn  Zn107  1  0.19163896  0.19384609  0.19385298  1
  Zn  Zn108  1  0.18388212  0.19229935  0.69080442  1
  Zn  Zn109  1  0.18838011  0.68849282  0.18656847  1
  Zn  Zn110  1  0.18028900  0.68388346  0.68608861  1
  Zn  Zn111  1  0.68384188  0.18963974  0.18921654  1
  Zn  Zn112  1  0.69268979  0.18601414  0.68987540  1
  Zn  Zn113  1  0.68773342  0.68566499  0.18416539  1
  Zn  Zn114  1  0.69337516  0.68391624  0.68254909  1
  Zn  Zn115  1  0.31100233  0.31395669  0.31489195  1
  Zn  Zn116  1  0.31247091  0.31018479  0.81550737  1
  Zn  Zn117  1  0.31137786  0.81261806  0.30878181  1
  Zn  Zn118  1  0.30979386  0.81067314  0.81163405  1
  Zn  Zn119  1  0.81730317  0.32020536  0.31188705  1
  Zn  Zn120  1  0.80981310  0.30879863  0.81115190  1
  Zn  Zn121  1  0.78631117  0.84274733  0.35036719  1
  Zn  Zn122  1  0.81698401  0.81491827  0.81068959  1
  Zn  Zn123  1  0.17508187  0.42954074  0.44380815  1
  Zn  Zn124  1  0.18836550  0.43887966  0.94155384  1
  Zn  Zn125  1  0.18694844  0.93486573  0.43478763  1
  Zn  Zn126  1  0.19126088  0.92969587  0.93167587  1
  Zn  Zn127  1  0.68721347  0.43627031  0.43414644  1
  Zn  Zn128  1  0.68510594  0.43706744  0.93939669  1
  Zn  Zn129  1  0.70998539  0.97573249  0.45229870  1
  Zn  Zn130  1  0.69043361  0.93157186  0.93906472  1
  Zn  Zn131  1  0.34264499  0.06621045  0.05916212  1
  Zn  Zn132  1  0.31281651  0.06311340  0.56173584  1
  Zn  Zn133  1  0.31236425  0.56782877  0.06319689  1
  Zn  Zn134  1  0.30176029  0.55801098  0.55996558  1
  Zn  Zn135  1  0.79927748  0.07189291  0.09701389  1
  Zn  Zn136  1  0.82087052  0.06601955  0.56466197  1
  Zn  Zn137  1  0.81213793  0.56674738  0.05985823  1
  Zn  Zn138  1  0.80094807  0.53115253  0.55092269  1
  Zn  Zn139  1  0.43649987  0.43854169  0.19313026  1
  Zn  Zn140  1  0.43839649  0.43792390  0.68918683  1
  Zn  Zn141  1  0.44175413  0.93694366  0.18847566  1
  Zn  Zn142  1  0.43924022  0.93627572  0.68941932  1
  Zn  Zn143  1  0.93894458  0.43816331  0.18716813  1
  Zn  Zn144  1  0.93151300  0.43418785  0.68624551  1
  Zn  Zn145  1  0.94147940  0.93671030  0.18361824  1
  Zn  Zn146  1  0.93532615  0.94139410  0.68941721  1
  Zn  Zn147  1  0.06130876  0.06509301  0.30538941  1
  Zn  Zn148  1  0.05437385  0.05989400  0.81996425  1
  Zn  Zn149  1  0.06842451  0.56836406  0.31000044  1
  Zn  Zn150  1  0.05732646  0.56068598  0.80888970  1
  Zn  Zn151  1  0.56401217  0.06683154  0.31506527  1
  Zn  Zn152  1  0.56355296  0.05838796  0.80975742  1
  Zn  Zn153  1  0.55908442  0.56124473  0.30825423  1
  Zn  Zn154  1  0.56149406  0.56517563  0.81757183  1
  Zn  Zn155  1  0.44036457  0.19185162  0.43746502  1
  Zn  Zn156  1  0.43254512  0.19166385  0.93503898  1
  Zn  Zn157  1  0.43432657  0.68173830  0.43367372  1
  Zn  Zn158  1  0.43829552  0.68840953  0.93821585  1
  Zn  Zn159  1  0.93969575  0.18731433  0.43828158  1
  Zn  Zn160  1  0.93830148  0.18489197  0.93924738  1
  Zn  Zn161  1  0.93333235  0.69148301  0.43899634  1
  Zn  Zn162  1  0.93810251  0.68605959  0.93504679  1
  Zn  Zn163  1  0.06211626  0.31747944  0.06274081  1
  Zn  Zn164  1  0.05845477  0.30768250  0.56878705  1
  Zn  Zn165  1  0.06691388  0.81095453  0.06039772  1
  Zn  Zn166  1  0.05052329  0.81088886  0.56541826  1
  Zn  Zn167  1  0.56417190  0.31272978  0.06482948  1
  Zn  Zn168  1  0.55999832  0.31442136  0.55923620  1
  Zn  Zn169  1  0.57868844  0.84092003  0.04430655  1
  Zn  Zn170  1  0.56501216  0.81065726  0.56058043  1
  O  O171  1  0.12280598  0.12604191  0.12374896  1
  O  O172  1  0.12777286  0.12092156  0.61667819  1
  O  O173  1  0.11881773  0.61510558  0.12868345  1
  O  O174  1  0.11975870  0.61720599  0.61470696  1
  O  O175  1  0.60911861  0.12468404  0.12339010  1
  O  O176  1  0.61861792  0.11648356  0.62266786  1
  O  O177  1  0.62607668  0.62290160  0.10911660  1
  O  O178  1  0.61498133  0.61941775  0.61775676  1
  O  O179  1  0.37747697  0.38541848  0.38105061  1
  O  O180  1  0.38001664  0.38155351  0.88207641  1
  O  O181  1  0.37922198  0.88195185  0.37891691  1
  O  O182  1  0.38135722  0.88391303  0.86347367  1
  O  O183  1  0.87610416  0.39224104  0.37512019  1
  O  O184  1  0.86726233  0.38479294  0.88401786  1
  O  O185  1  0.89540896  0.88712218  0.36738170  1
  O  O186  1  0.88621054  0.88229640  0.87679645  1
  O  O187  1  0.26250063  0.00575835  0.37945516  1
  O  O188  1  0.25680753  0.00591608  0.86855354  1
  O  O189  1  0.25797518  0.49147483  0.37371607  1
  O  O190  1  0.25478088  0.50747034  0.87232733  1
  O  O191  1  0.77586670  -0.00790464  0.35452337  1
  O  O192  1  0.76360816  -0.01237035  0.87326768  1
  O  O193  1  0.75638273  0.51082545  0.36399004  1
  O  O194  1  0.75455649  0.49605673  0.86723227  1
  O  O195  1  0.24018792  0.49441387  0.11704544  1
  O  O196  1  0.23749295  0.48766090  0.62956615  1
  O  O197  1  0.24811262  1.01672864  0.11431826  1
  O  O198  1  0.24447386  0.99392346  0.63031334  1
  O  O199  1  0.75262974  0.49569988  0.13082237  1
  O  O200  1  0.72857321  0.50921682  0.64423779  1
  O  O201  1  0.73979832  0.97457920  0.11887560  1
  O  O202  1  0.73842869  0.99757151  0.63709724  1
  O  O203  1  0.01068720  0.36369834  0.24111291  1
  O  O204  1  0.01140205  0.37817103  0.75345670  1
  O  O205  1  0.01361451  0.87070088  0.25250216  1
  O  O206  1  0.00899589  0.87723972  0.76001394  1
  O  O207  1  0.50218062  0.36728139  0.25712908  1
  O  O208  1  0.50938132  0.37028780  0.75500959  1
  O  O209  1  0.50834826  0.86383734  0.25457084  1
  O  O210  1  0.50611347  0.86424500  0.75299139  1
  O  O211  1  0.50015286  0.13863883  0.25040328  1
  O  O212  1  0.49665896  0.12745031  0.73850439  1
  O  O213  1  0.48391449  0.63142403  0.25637985  1
  O  O214  1  0.49490214  0.63000354  0.73984076  1
  O  O215  1  1.00708183  0.14109724  0.23614126  1
  O  O216  1  0.99795070  0.12715776  0.75148768  1
  O  O217  1  0.99898863  0.63138892  0.23677695  1
  O  O218  1  0.98418933  0.62391263  0.74835958  1
  O  O219  1  0.36357920  0.25904579  0.00221941  1
  O  O220  1  0.37164369  0.26142392  0.50128585  1
  O  O221  1  0.36672459  0.74336216  0.01086446  1
  O  O222  1  0.36854001  0.75409979  0.50341858  1
  O  O223  1  0.86610757  0.25803344  0.00439315  1
  O  O224  1  0.88285081  0.24721258  0.51544670  1
  O  O225  1  0.86500361  0.74023266  0.00821885  1
  O  O226  1  0.86640293  0.75853946  0.49655232  1
  O  O227  1  0.12586529  0.24059051  0.49280835  1
  O  O228  1  0.14024083  0.25972922  0.99990202  1
  O  O229  1  0.13109781  0.74915655  0.49344747  1
  O  O230  1  0.13230092  0.75123008  0.98576310  1
  O  O231  1  0.62626233  0.25575718  0.48535612  1
  O  O232  1  0.63502825  0.25746332  0.99191062  1
  O  O233  1  0.62267257  0.73896091  0.48743749  1
  O  O234  1  0.63413021  0.74382274  0.99794603  1
  O  O235  1  0.50163741  0.24462954  0.13551195  1
  O  O236  1  0.50099087  0.24121576  0.63015308  1
  O  O237  1  0.49216759  0.74914704  0.13674640  1
  O  O238  1  0.49357049  0.74250337  0.63166704  1
  O  O239  1  0.99504805  0.24901065  0.12856019  1
  O  O240  1  0.98997462  0.24908106  0.63396899  1
  O  O241  1  0.99606563  0.74332808  0.12411804  1
  O  O242  1  0.99049699  0.74182114  0.62967433  1
  O  O243  1  0.01254579  0.24486552  0.36676053  1
  O  O244  1  -0.00150838  0.25377005  0.87699430  1
  O  O245  1  0.00816070  0.75953828  0.36820259  1
  O  O246  1  0.00408201  0.75913253  0.87286607  1
  O  O247  1  0.50572089  0.26158880  0.36951180  1
  O  O248  1  0.50482354  0.25703552  0.86976869  1
  O  O249  1  0.50304535  0.75106430  0.36832874  1
  O  O250  1  0.49638047  0.74984886  0.85658294  1
  O  O251  1  0.24186771  0.12576607  0.49108183  1
  O  O252  1  0.24718564  0.12852297  0.99885604  1
  O  O253  1  0.24621374  0.64407577  0.50649413  1
  O  O254  1  0.25241023  0.63268708  0.98523697  1
  O  O255  1  0.73754428  0.07848313  0.49459548  1
  O  O256  1  0.74881059  0.13619044  1.00986062  1
  O  O257  1  0.73862195  0.61856042  0.49018918  1
  O  O258  1  0.74026160  0.63813322  1.00296913  1
  O  O259  1  0.25674220  0.37093662  0.00934235  1
  O  O260  1  0.25871352  0.37365178  0.51108073  1
  O  O261  1  0.25825161  0.85688503  -0.01133764  1
  O  O262  1  0.25429572  0.86835176  0.50734056  1
  O  O263  1  0.75889441  0.37707741  0.00942874  1
  O  O264  1  0.75637067  0.42607053  0.51744090  1
  O  O265  1  0.74888523  0.85268197  0.01353302  1
  O  O266  1  0.75390162  0.87153903  0.46113845  1
  O  O267  1  0.12127110  0.49190951  0.23990747  1
  O  O268  1  0.13108214  0.48794326  0.75464943  1
  O  O269  1  0.13009490  0.98763349  0.25062158  1
  O  O270  1  0.12897391  0.99270572  0.74797996  1
  O  O271  1  0.63830746  0.50090751  0.24774489  1
  O  O272  1  0.62594932  0.49259751  0.75060332  1
  O  O273  1  0.61729447  0.98511102  0.25019943  1
  O  O274  1  0.62951788  0.98892734  0.74356419  1
  O  O275  1  0.37191015  0.00087881  0.25913217  1
  O  O276  1  0.36762809  0.00571734  0.75458471  1
  O  O277  1  0.37327767  0.51090091  0.25879958  1
  O  O278  1  0.36625812  0.50521083  0.75485799  1
  O  O279  1  0.89742615  0.01016268  0.26058991  1
  O  O280  1  0.86521802  0.00249980  0.75736981  1
  O  O281  1  0.86760164  0.50674805  0.25087624  1
  O  O282  1  0.86345715  0.50169605  0.75748286  1
  O  O283  1  0.13170854  0.36450613  0.36116895  1
  O  O284  1  0.13364915  0.37360214  0.86499908  1
  O  O285  1  0.11887082  0.86833132  0.36617068  1
  O  O286  1  0.11414719  0.86901037  0.86882445  1
  O  O287  1  0.61725226  0.37074016  0.37287980  1
  O  O288  1  0.61832657  0.36966445  0.86870218  1
  O  O289  1  0.61616638  0.86020876  0.36143414  1
  O  O290  1  0.61570415  0.86527082  0.86093233  1
  O  O291  1  0.38850541  0.13511977  0.13305703  1
  O  O292  1  0.38222787  0.12581439  0.63090787  1
  O  O293  1  0.37129948  0.63217773  0.13976946  1
  O  O294  1  0.37830475  0.62536463  0.62825206  1
  O  O295  1  0.89286770  0.14234790  0.11824218  1
  O  O296  1  0.87888219  0.13463624  0.63020678  1
  O  O297  1  0.88390306  0.63151022  0.12902880  1
  O  O298  1  0.86982584  0.60944047  0.63475278  1
  O  O299  1  0.25247245  0.26003253  0.12015577  1
  O  O300  1  0.25282186  0.26250546  0.62650137  1
  O  O301  1  0.25652164  0.74410235  0.11311253  1
  O  O302  1  0.25278158  0.75610015  0.62145316  1
  O  O303  1  0.75742707  0.26203418  0.11687942  1
  O  O304  1  0.75962611  0.24593969  0.62012693  1
  O  O305  1  0.76056734  0.75161808  0.12123484  1
  O  O306  1  0.75158320  0.75241352  0.62037877  1
  O  O307  1  0.23979050  0.24156848  0.37580312  1
  O  O308  1  0.25147867  0.23893776  0.88548079  1
  O  O309  1  0.24184991  0.76052938  0.38510224  1
  O  O310  1  0.24149394  0.74157545  0.87667776  1
  O  O311  1  0.73725948  0.25697463  0.36680810  1
  O  O312  1  0.74013135  0.25374385  0.88736989  1
  O  O313  1  0.73731155  0.73234993  0.37101952  1
  O  O314  1  0.75321130  0.75524577  0.88908580  1
  O  O315  1  0.01156790  0.13000568  0.01288483  1
  O  O316  1  0.01437341  0.11558916  0.49851561  1
  O  O317  1  -0.00359885  0.61696243  0.00995354  1
  O  O318  1  0.01368201  0.63147436  0.49714209  1
  O  O319  1  0.49246219  0.13172838  0.01293976  1
  O  O320  1  0.49832526  0.11758736  0.51092915  1
  O  O321  1  0.50832943  0.61855356  -0.00162669  1
  O  O322  1  0.50246874  0.62983148  0.51249856  1
  O  O323  1  0.48551160  0.37478668  0.49323240  1
  O  O324  1  0.49460940  0.38254061  0.99700060  1
  O  O325  1  0.49189762  0.87820997  0.49366889  1
  O  O326  1  0.48538097  0.84955022  0.97548189  1
  O  O327  1  1.07549480  0.40590065  0.51702715  1
  O  O328  1  0.98771604  0.38653104  1.00693612  1
  O  O329  1  1.00970983  0.88790406  0.48816514  1
  O  O330  1  1.00125313  0.87105276  0.98874359  1
  O  O331  1  0.49141922  0.48702106  0.36874842  1
  O  O332  1  0.49250037  0.49515571  0.88304539  1
  O  O333  1  0.49153140  0.99711172  0.38237331  1
  O  O334  1  0.49138585  0.98712599  0.86357203  1
  O  O335  1  0.99157973  0.50269401  0.36139621  1
  O  O336  1  0.99098652  0.50313762  0.88693687  1
  O  O337  1  1.00424959  0.99578956  0.38053460  1
  O  O338  1  0.98653342  0.98817205  0.88238396  1
  O  O339  1  -0.00185195  0.01732375  0.12381998  1
  O  O340  1  0.00928987  0.00466623  0.61522754  1
  O  O341  1  0.00576277  0.50779502  0.11716728  1
  O  O342  1  0.01077990  0.49994281  0.62994459  1
  O  O343  1  0.49683674  0.01912122  0.12922407  1
  O  O344  1  0.50487474  0.00666207  0.62069756  1
  O  O345  1  0.49970712  0.49610722  0.11414400  1
  O  O346  1  0.51104310  0.50826318  0.63290849  1
  O  O347  1  0.24255490  0.37168956  0.23818291  1
  O  O348  1  0.25247382  0.38227622  0.74635973  1
  O  O349  1  0.23779090  0.87915094  0.25034239  1
  O  O350  1  0.23694234  0.87857398  0.74693433  1
  O  O351  1  0.75241576  0.38441579  0.23706238  1
  O  O352  1  0.73572597  0.38151181  0.74965269  1
  O  O353  1  0.73313985  0.86437533  0.24948892  1
  O  O354  1  0.73864677  0.88066708  0.75506966  1
  O  O355  1  0.25157713  0.12049557  0.26217422  1
  O  O356  1  0.25387065  0.12202310  0.75732805  1
  O  O357  1  0.26342804  0.63038162  0.25357267  1
  O  O358  1  0.25123343  0.61759603  0.75656695  1
  O  O359  1  0.76271306  0.11447746  0.20093554  1
  O  O360  1  0.74425762  0.10715171  0.75598391  1
  O  O361  1  0.75728366  0.61879838  0.25323394  1
  O  O362  1  0.75465133  0.61598150  0.75544489  1
  O  O363  1  0.36820456  0.11839729  0.37734878  1
  O  O364  1  0.36831492  0.11702544  0.86887438  1
  O  O365  1  0.37150673  0.61028256  0.36908774  1
  O  O366  1  0.36631116  0.62157186  0.86723854  1
  O  O367  1  0.88043126  0.11631179  0.37023352  1
  O  O368  1  0.87589079  0.10631451  0.88109513  1
  O  O369  1  0.86873767  0.62115793  0.36642969  1
  O  O370  1  0.87478909  0.61302418  0.86887932  1
  O  O371  1  0.13201654  0.38508755  0.13223518  1
  O  O372  1  0.13527522  0.37584374  0.64696289  1
  O  O373  1  0.12480514  0.87160834  0.13746015  1
  O  O374  1  0.12578853  0.87939279  0.63367512  1
  O  O375  1  0.63592691  0.38153358  0.12609994  1
  O  O376  1  0.62394207  0.38110986  0.63206330  1
  O  O377  1  0.63193878  0.85606384  0.14661963  1
  O  O378  1  0.61532271  0.88314239  0.63456320  1
  O  O379  1  0.12028074  0.25920240  0.25625139  1
  O  O380  1  0.12593177  0.26540466  0.75797561  1
  O  O381  1  0.12313612  0.75782921  0.25535802  1
  O  O382  1  0.12206962  0.75751134  0.75957416  1
  O  O383  1  0.61876171  0.25491694  0.25996287  1
  O  O384  1  0.62217434  0.25602162  0.75687466  1
  O  O385  1  0.61451784  0.73876877  0.25992902  1
  O  O386  1  0.61741901  0.75242703  0.74723491  1
  O  O387  1  0.38464204  0.25067158  0.25246804  1
  O  O388  1  0.38402097  0.24338921  0.74935362  1
  O  O389  1  0.37880722  0.74071091  0.24622780  1
  O  O390  1  0.37884103  0.74305009  0.74140582  1
  O  O391  1  0.88332161  0.25170507  0.24219110  1
  O  O392  1  0.86958068  0.24285707  0.74329995  1
  O  O393  1  0.88655334  0.74069452  0.23976788  1
  O  O394  1  0.87232583  0.73707313  0.74895985  1
  O  O395  1  0.36821566  0.49577396  0.48658208  1
  O  O396  1  0.38175949  0.49921828  0.99602833  1
  O  O397  1  0.38420081  0.99448247  0.49605223  1
  O  O398  1  0.37534007  0.99268352  0.98216286  1
  O  O399  1  0.89238001  0.51317281  0.48321646  1
  O  O400  1  0.87917267  0.49554353  0.99281200  1
  O  O401  1  0.88930751  1.00100084  0.48401143  1
  O  O402  1  0.86195732  1.00531971  1.00013085  1
  O  O403  1  0.13105390  0.00159966  0.00071853  1
  O  O404  1  0.12357429  0.00630266  0.50468408  1
  O  O405  1  0.11432166  0.49461066  0.00924753  1
  O  O406  1  0.14967244  0.52650826  0.50044203  1
  O  O407  1  0.60716687  -0.05044646  0.00926181  1
  O  O408  1  0.60733703  -0.01393308  0.50954832  1
  O  O409  1  0.61667887  0.51044428  0.00034889  1
  O  O410  1  0.61643104  0.51142571  0.50803322  1
  O  O411  1  0.36712580  0.37720063  0.12196809  1
  O  O412  1  0.36960923  0.37771245  0.61825337  1
  O  O413  1  0.37913590  0.86011516  0.12656000  1
  O  O414  1  0.36898317  0.86850019  0.62129228  1
  O  O415  1  0.87147279  0.36730444  0.11731929  1
  O  O416  1  0.86837111  0.35733454  0.63260638  1
  O  O417  1  0.86883169  0.86179887  0.13449374  1
  O  O418  1  0.88535135  0.87984509  0.61408121  1
  O  O419  1  0.13276380  0.12950737  0.37968893  1
  O  O420  1  0.13764415  0.12438092  0.87361832  1
  O  O421  1  0.12487492  0.64200696  0.37927457  1
  O  O422  1  0.13111223  0.63335425  0.86704855  1
  O  O423  1  0.62213295  0.14336682  0.37883128  1
  O  O424  1  0.61557873  0.13718146  0.87343275  1
  O  O425  1  0.62713409  0.62463876  0.38165993  1
  O  O426  1  0.62142214  0.62862807  0.89130229  1
