# generated using pymatgen
data_V85Zn86O256
_symmetry_space_group_name_H-M   'P 1'
_cell_length_a   16.96152996
_cell_length_b   16.96864690
_cell_length_c   16.96717255
_cell_angle_alpha   90.03205327
_cell_angle_beta   90.01785116
_cell_angle_gamma   89.97990349
_symmetry_Int_Tables_number   1
_chemical_formula_structural   V85Zn86O256
_chemical_formula_sum   'V85 Zn86 O256'
_cell_volume   4883.39211036
_cell_formula_units_Z   1
loop_
 _symmetry_equiv_pos_site_id
 _symmetry_equiv_pos_as_xyz
  1  'x, y, z'
loop_
 _atom_site_type_symbol
 _atom_site_label
 _atom_site_symmetry_multiplicity
 _atom_site_fract_x
 _atom_site_fract_y
 _atom_site_fract_z
 _atom_site_occupancy
  V  V0  1  0.12607598  0.49945491  0.12456899  1
  V  V1  1  0.62316663  0.50330877  0.62751178  1
  V  V2  1  0.62641399  0.00176493  0.12420516  1
  V  V3  1  0.12289261  0.88141991  0.24173153  1
  V  V4  1  0.49937810  -0.00026532  -0.00262631  1
  V  V5  1  0.75061264  0.87553589  0.12325592  1
  V  V6  1  0.37591738  0.37206407  0.00218177  1
  V  V7  1  0.76876756  0.87812533  0.61658072  1
  V  V8  1  0.75118522  0.24931758  0.00013926  1
  V  V9  1  0.12361222  0.25264453  0.87642878  1
  V  V10  1  0.37431569  0.24717357  0.12608784  1
  V  V11  1  0.24637712  -0.00174585  0.23624746  1
  V  V12  1  0.74372858  0.50123230  0.25078289  1
  V  V13  1  0.62172847  0.13321588  0.50521679  1
  V  V14  1  0.37243714  0.87275605  0.49646366  1
  V  V15  1  0.74535857  0.36881616  0.61985274  1
  V  V16  1  0.50402294  0.50440637  0.02189165  1
  V  V17  1  0.24501413  0.74849284  0.49645615  1
  V  V18  1  0.74652703  0.50833990  0.76703860  1
  V  V19  1  0.49878980  0.62507245  0.62566981  1
  V  V20  1  0.87690106  0.12525042  0.24938501  1
  V  V21  1  0.87173685  0.75330371  0.12785010  1
  V  V22  1  -0.00353362  0.88428131  0.38415438  1
  V  V23  1  0.25342108  0.38323046  0.62749106  1
  V  V24  1  0.24957365  0.37697986  0.13023855  1
  V  V25  1  0.00392586  0.24496779  0.24943148  1
  V  V26  1  0.12681212  0.00697679  0.60200700  1
  V  V27  1  0.50164143  0.74232096  0.23474062  1
  V  V28  1  0.87771812  0.87989025  -0.00275215  1
  V  V29  1  0.49792131  0.37142490  0.87617164  1
  V  V30  1  0.62501712  0.87433580  0.25022990  1
  V  V31  1  0.86496726  0.35521542  0.49654580  1
  V  V32  1  0.37673609  0.50037279  0.87671259  1
  V  V33  1  0.43963681  0.18333648  0.69376233  1
  V  V34  1  -0.00084578  0.62422695  0.12955212  1
  V  V35  1  0.74710692  0.13228526  0.37807524  1
  V  V36  1  0.74960637  0.37572744  0.12705342  1
  V  V37  1  0.37390008  0.12117883  0.24974056  1
  V  V38  1  0.49761175  0.00320024  0.50609621  1
  V  V39  1  0.87325141  0.25134316  0.64243760  1
  V  V40  1  0.00597168  0.00263123  0.01103335  1
  V  V41  1  0.76144380  0.12608891  0.86767573  1
  V  V42  1  0.37114620  -0.00384592  0.37219518  1
  V  V43  1  0.50033815  0.12413075  0.12350932  1
  V  V44  1  0.50886409  0.87743517  0.86846869  1
  V  V45  1  0.12667217  0.38444232  0.75292953  1
  V  V46  1  0.62702465  0.12422950  -0.00215486  1
  V  V47  1  0.00653792  0.87399338  0.86834219  1
  V  V48  1  -0.01395983  0.50484012  0.00187027  1
  V  V49  1  0.24951220  0.24797493  0.00121022  1
  V  V50  1  0.36901819  0.62635658  0.75218362  1
  V  V51  1  0.13970558  0.75182844  0.87704271  1
  V  V52  1  0.87599493  0.49602430  0.37812117  1
  V  V53  1  0.00073669  0.37303964  0.38252233  1
  V  V54  1  0.12729459  0.37669355  0.25280216  1
  V  V55  1  0.37204724  0.49551531  0.37825945  1
  V  V56  1  0.88258715  0.24869037  0.12288927  1
  V  V57  1  0.12679248  0.60692197  0.50519826  1
  V  V58  1  0.50826974  0.74862454  0.74794682  1
  V  V59  1  -0.00856761  0.38246031  0.87454919  1
  V  V60  1  0.00079078  0.75376192  0.25225766  1
  V  V61  1  0.12317528  0.12139390  0.01150515  1
  V  V62  1  0.62334862  0.74827511  0.37635202  1
  V  V63  1  0.25368027  0.24067253  0.51124263  1
  V  V64  1  0.75195966  0.00158569  0.25299920  1
  V  V65  1  0.37779923  0.85637583  -0.00114681  1
  V  V66  1  0.75765111  0.00157949  0.74527771  1
  V  V67  1  0.62273222  0.62629097  0.50182727  1
  V  V68  1  0.62269507  0.24679804  0.87091056  1
  V  V69  1  0.38232811  0.61923836  0.24202326  1
  V  V70  1  0.25104483  0.12628102  0.86966495  1
  V  V71  1  0.49711852  0.87290928  0.37267176  1
  V  V72  1  0.62248331  0.37574088  0.24797706  1
  V  V73  1  0.24320891  -0.00036810  0.74887717  1
  V  V74  1  0.36847031  0.74981886  0.62463775  1
  V  V75  1  -0.00272248  0.12036390  0.62505283  1
  V  V76  1  0.12448313  0.24180101  0.38786155  1
  V  V77  1  0.37670706  0.00324602  0.86779788  1
  V  V78  1  0.87409199  0.62321271  0.25268570  1
  V  V79  1  0.74712454  0.74873167  -0.02573586  1
  V  V80  1  0.61736195  0.37235356  0.74901288  1
  V  V81  1  0.24969655  0.62124922  0.36558005  1
  V  V82  1  0.76081047  0.75615587  0.49963141  1
  V  V83  1  0.50080065  0.24755181  0.25398087  1
  V  V84  1  0.63044722  0.87199964  0.73952884  1
  Zn  Zn85  1  -0.00304703  0.24789091  0.75662343  1
  Zn  Zn86  1  0.26959241  0.64171485  0.89668726  1
  Zn  Zn87  1  0.86997076  -0.00984796  0.39818946  1
  Zn  Zn88  1  0.62165701  0.00322996  0.62428381  1
  Zn  Zn89  1  0.24517035  0.12122653  0.37845911  1
  Zn  Zn90  1  0.24577203  0.87482384  0.62266878  1
  Zn  Zn91  1  -0.06114179  0.68654449  0.67325743  1
  Zn  Zn92  1  0.37891241  0.36886238  0.50918598  1
  Zn  Zn93  1  0.12164217  0.87332168  0.74224632  1
  Zn  Zn94  1  0.24857823  0.86038021  0.11077079  1
  Zn  Zn95  1  0.25125435  0.50489792  0.75280719  1
  Zn  Zn96  1  -0.02819840  0.53277187  0.53741483  1
  Zn  Zn97  1  0.62949701  0.62336727  0.00070412  1
  Zn  Zn98  1  0.75073771  0.62408570  0.37867292  1
  Zn  Zn99  1  0.49917222  0.37400450  0.37878242  1
  Zn  Zn100  1  0.62650145  0.25410031  0.37920190  1
  Zn  Zn101  1  0.49929363  0.49482546  0.50061275  1
  Zn  Zn102  1  0.90252579  0.57117741  0.83180834  1
  Zn  Zn103  1  0.87003698  0.38343249  -0.00121053  1
  Zn  Zn104  1  0.88236882  0.00333229  0.86854016  1
  Zn  Zn105  1  0.13321441  0.63458478  0.00532489  1
  Zn  Zn106  1  0.12253036  0.74735353  0.37394183  1
  Zn  Zn107  1  0.18854273  0.18849097  0.19130814  1
  Zn  Zn108  1  0.18339130  0.18784230  0.68925344  1
  Zn  Zn109  1  0.19054449  0.68673209  0.18347761  1
  Zn  Zn110  1  0.13548688  0.70632239  0.66884911  1
  Zn  Zn111  1  0.68829746  0.18954589  0.18780133  1
  Zn  Zn112  1  0.68192281  0.18749513  0.68763611  1
  Zn  Zn113  1  0.68344689  0.68568929  0.18409305  1
  Zn  Zn114  1  0.73782507  0.71237363  0.70953412  1
  Zn  Zn115  1  0.31006222  0.30923462  0.31525610  1
  Zn  Zn116  1  0.31421527  0.30929874  0.80828253  1
  Zn  Zn117  1  0.29808471  0.79334125  0.27913021  1
  Zn  Zn118  1  0.31584163  0.81788698  0.80970641  1
  Zn  Zn119  1  0.81258664  0.30902004  0.31055507  1
  Zn  Zn120  1  0.80572651  0.32447331  0.81404224  1
  Zn  Zn121  1  0.81343562  0.81401217  0.31564955  1
  Zn  Zn122  1  0.85319101  0.76598891  0.82667513  1
  Zn  Zn123  1  0.19485406  0.43057880  0.43715005  1
  Zn  Zn124  1  0.18840170  0.44153778  0.94155252  1
  Zn  Zn125  1  0.18744999  0.93142176  0.42620301  1
  Zn  Zn126  1  0.19116493  0.93748675  0.94027848  1
  Zn  Zn127  1  0.68479445  0.43696481  0.43646677  1
  Zn  Zn128  1  0.68087358  0.43470280  0.94252418  1
  Zn  Zn129  1  0.68485693  0.94116675  0.43825450  1
  Zn  Zn130  1  0.69124030  0.93742769  0.93195170  1
  Zn  Zn131  1  0.31307963  0.05702338  0.05680023  1
  Zn  Zn132  1  0.31518021  0.06550666  0.56597762  1
  Zn  Zn133  1  0.31421941  0.55809452  0.06258965  1
  Zn  Zn134  1  0.30926218  0.56322689  0.56010860  1
  Zn  Zn135  1  0.81587352  0.06344409  0.06189322  1
  Zn  Zn136  1  0.81007337  0.06994424  0.56583808  1
  Zn  Zn137  1  0.78234552  0.58021078  0.07511431  1
  Zn  Zn138  1  0.80159074  0.56196424  0.56572488  1
  Zn  Zn139  1  0.43207361  0.43480595  0.19548741  1
  Zn  Zn140  1  0.43591528  0.43456575  0.68889648  1
  Zn  Zn141  1  0.43751272  0.93266557  0.18384165  1
  Zn  Zn142  1  0.43208469  0.93832434  0.68608578  1
  Zn  Zn143  1  0.93686244  0.43425604  0.19084579  1
  Zn  Zn144  1  0.94188590  0.50853211  0.68878020  1
  Zn  Zn145  1  0.93684295  0.94028418  0.18956990  1
  Zn  Zn146  1  0.94094696  0.94150220  0.68455580  1
  Zn  Zn147  1  0.06209129  0.06232849  0.31019388  1
  Zn  Zn148  1  0.06112267  0.06534734  0.81397605  1
  Zn  Zn149  1  0.06285405  0.55889781  0.31500524  1
  Zn  Zn150  1  0.07158223  0.57207817  0.81381213  1
  Zn  Zn151  1  0.56201321  0.06217662  0.31696382  1
  Zn  Zn152  1  0.56991554  0.05965817  0.80824476  1
  Zn  Zn153  1  0.56018861  0.55978378  0.31432009  1
  Zn  Zn154  1  0.56611835  0.56349520  0.81961906  1
  Zn  Zn155  1  0.43409474  0.18447743  0.43854947  1
  Zn  Zn156  1  0.43682318  0.18656562  0.93121324  1
  Zn  Zn157  1  0.43601742  0.68558023  0.43400314  1
  Zn  Zn158  1  0.47334346  0.67663145  0.92955445  1
  Zn  Zn159  1  0.92447200  0.15550839  0.45837792  1
  Zn  Zn160  1  0.94107469  0.18889722  0.94019750  1
  Zn  Zn161  1  0.94144987  0.68760652  0.43554481  1
  Zn  Zn162  1  0.95257827  0.69875925  0.95200519  1
  Zn  Zn163  1  0.06071803  0.31525345  0.05956686  1
  Zn  Zn164  1  0.03511985  0.35379139  0.59408440  1
  Zn  Zn165  1  0.06346195  0.81356618  0.06144253  1
  Zn  Zn166  1  0.05874679  0.81555447  0.56031804  1
  Zn  Zn167  1  0.56349168  0.31325471  0.06396147  1
  Zn  Zn168  1  0.55366087  0.30944608  0.56662748  1
  Zn  Zn169  1  0.56601860  0.81468380  0.05774461  1
  Zn  Zn170  1  0.56263130  0.81391012  0.56254037  1
  O  O171  1  0.13067330  0.13308541  0.11029758  1
  O  O172  1  0.12151459  0.11025847  0.62945236  1
  O  O173  1  0.11971994  0.61437102  0.13233214  1
  O  O174  1  0.13897046  0.61225526  0.60462156  1
  O  O175  1  0.62179493  0.12083500  0.11833559  1
  O  O176  1  0.62751812  0.12192357  0.60924298  1
  O  O177  1  0.67105225  0.60958347  0.10647906  1
  O  O178  1  0.61758251  0.61606086  0.61741600  1
  O  O179  1  0.37351990  0.38710885  0.37168207  1
  O  O180  1  0.38229098  0.37708507  0.87990063  1
  O  O181  1  0.38001723  0.88101183  0.37749115  1
  O  O182  1  0.38752090  0.88409576  0.87929733  1
  O  O183  1  0.87896776  0.37539157  0.37798114  1
  O  O184  1  0.88657328  0.37126630  0.88130823  1
  O  O185  1  0.88887164  0.87901412  0.37071437  1
  O  O186  1  0.89103628  0.86997705  0.88309831  1
  O  O187  1  0.26108743  0.00251881  0.36904913  1
  O  O188  1  0.25731795  0.00662221  0.86942836  1
  O  O189  1  0.26304944  0.50464705  0.37687833  1
  O  O190  1  0.26921575  0.49769910  0.87944611  1
  O  O191  1  0.75262020  0.00859153  0.36782959  1
  O  O192  1  0.75462044  0.00888262  0.86526255  1
  O  O193  1  0.75640839  0.49896673  0.36645932  1
  O  O194  1  0.73731686  0.49761527  0.86648444  1
  O  O195  1  0.24211790  0.48401866  0.12426426  1
  O  O196  1  0.25318905  0.48642203  0.62856751  1
  O  O197  1  0.25994021  0.98820823  0.13480503  1
  O  O198  1  0.24001507  1.00266991  0.63038678  1
  O  O199  1  0.76281721  0.48126082  0.13806929  1
  O  O200  1  0.73456008  0.48896751  0.63076502  1
  O  O201  1  0.74585226  0.99559131  0.13127605  1
  O  O202  1  0.74905180  0.99399483  0.62647624  1
  O  O203  1  0.00478405  0.36248310  0.25889703  1
  O  O204  1  0.01324810  0.37389660  0.76690307  1
  O  O205  1  0.00408025  0.86962273  0.25136507  1
  O  O206  1  0.00240320  0.88511353  0.76515768  1
  O  O207  1  0.50683025  0.36477832  0.25141319  1
  O  O208  1  0.51001102  0.37895638  0.76034717  1
  O  O209  1  0.50611217  0.86600653  0.25382780  1
  O  O210  1  0.50804472  0.87250376  0.74977173  1
  O  O211  1  0.49600900  0.12926709  0.24372569  1
  O  O212  1  0.50018743  0.12095175  0.74761113  1
  O  O213  1  0.49354906  0.62780410  0.24971014  1
  O  O214  1  0.49560812  0.63397589  0.74331345  1
  O  O215  1  0.99234737  0.13637346  0.25173932  1
  O  O216  1  1.00955233  0.13275175  0.73568770  1
  O  O217  1  0.99366266  0.63253819  0.24858907  1
  O  O218  1  0.98446188  0.60032918  0.75051121  1
  O  O219  1  0.37051019  0.25241169  0.00739522  1
  O  O220  1  0.35619646  0.25319556  0.48873192  1
  O  O221  1  0.39360794  0.75998086  -0.01444152  1
  O  O222  1  0.36483173  0.75035297  0.50332054  1
  O  O223  1  0.86952143  0.25013557  0.00908850  1
  O  O224  1  0.87086258  0.25369291  0.50380756  1
  O  O225  1  0.86462339  0.76566565  0.00978833  1
  O  O226  1  0.85932525  0.74241203  0.49298252  1
  O  O227  1  0.13788580  0.25570981  0.48706458  1
  O  O228  1  0.12923240  0.24613524  0.99242906  1
  O  O229  1  0.13683040  0.74379983  0.49387218  1
  O  O230  1  0.12517640  0.75398703  0.98656051  1
  O  O231  1  0.61520191  0.23647662  0.49733751  1
  O  O232  1  0.63172093  0.24591230  0.99176326  1
  O  O233  1  0.62816079  0.74475321  0.49214343  1
  O  O234  1  0.64750227  0.75684504  1.00407406  1
  O  O235  1  0.49550640  0.24378914  0.13445908  1
  O  O236  1  0.49861508  0.24793349  0.64100725  1
  O  O237  1  0.51072788  0.75175592  0.13611471  1
  O  O238  1  0.49331841  0.74709536  0.63239901  1
  O  O239  1  0.99126505  0.25578666  0.13250944  1
  O  O240  1  0.98580276  0.25754426  0.63698764  1
  O  O241  1  0.99191588  0.74567391  0.13115127  1
  O  O242  1  1.02967687  0.74394437  0.63762080  1
  O  O243  1  0.01326814  0.25412338  0.36824616  1
  O  O244  1  0.00824819  0.25977947  0.87747071  1
  O  O245  1  -0.00050404  0.76068270  0.36611988  1
  O  O246  1  0.01483285  0.76921905  0.88079905  1
  O  O247  1  0.49795768  0.24873910  0.36189419  1
  O  O248  1  0.50964694  0.26101836  0.88347982  1
  O  O249  1  0.51146394  0.75318500  0.37128669  1
  O  O250  1  0.49517312  0.76541458  0.85297359  1
  O  O251  1  0.25127929  0.13745174  0.49879012  1
  O  O252  1  0.24360632  0.12756190  0.99220375  1
  O  O253  1  0.24364055  0.62898324  0.48767777  1
  O  O254  1  0.24559377  0.61957597  1.00399585  1
  O  O255  1  0.73107587  0.12189786  0.49066832  1
  O  O256  1  0.74543223  0.12939476  0.99211522  1
  O  O257  1  0.73663567  0.63385514  0.50053447  1
  O  O258  1  0.75559528  0.64659283  0.98159342  1
  O  O259  1  0.25636666  0.36749085  0.00833591  1
  O  O260  1  0.25124308  0.36563770  0.51491722  1
  O  O261  1  0.27145800  0.87520847  -0.00299838  1
  O  O262  1  0.25531095  0.86490224  0.49470852  1
  O  O263  1  0.74982096  0.36917226  0.00945792  1
  O  O264  1  0.75142938  0.37489976  0.50800871  1
  O  O265  1  0.75913623  0.87453869  0.00379726  1
  O  O266  1  0.74878504  0.87336295  0.50696890  1
  O  O267  1  0.11675909  0.48455946  0.24007071  1
  O  O268  1  0.13529955  0.48794740  0.76600834  1
  O  O269  1  0.13324351  0.99496213  0.24899225  1
  O  O270  1  0.13773823  0.99819186  0.75471885  1
  O  O271  1  0.63577721  0.49202510  0.25453008  1
  O  O272  1  0.62422573  0.49296146  0.74599953  1
  O  O273  1  0.63444130  0.99712528  0.24654075  1
  O  O274  1  0.63716613  0.99017791  0.74543322  1
  O  O275  1  0.37032977  -0.00001496  0.25439623  1
  O  O276  1  0.36461982  -0.00452737  0.76115362  1
  O  O277  1  0.38015417  0.50974525  0.26378377  1
  O  O278  1  0.37814833  0.50862164  0.75973434  1
  O  O279  1  0.86321362  0.00903783  0.24811677  1
  O  O280  1  0.86271231  -0.00315505  0.75051336  1
  O  O281  1  0.86583078  0.49994834  0.25954853  1
  O  O282  1  0.85146993  0.49376500  0.76026400  1
  O  O283  1  0.11952982  0.36807959  0.36944139  1
  O  O284  1  0.12069477  0.36935484  0.87692061  1
  O  O285  1  0.11163927  0.87170970  0.36227336  1
  O  O286  1  0.11901604  0.87270234  0.87701012  1
  O  O287  1  0.62243816  0.37214364  0.36257873  1
  O  O288  1  0.61751672  0.36619924  0.86987043  1
  O  O289  1  0.61962013  0.86854284  0.36842500  1
  O  O290  1  0.61402174  0.88435684  0.86271985  1
  O  O291  1  0.37965435  0.12725201  0.12886766  1
  O  O292  1  0.38176530  0.12871075  0.62916930  1
  O  O293  1  0.37242274  0.61330554  0.14453045  1
  O  O294  1  0.37895805  0.62892074  0.63171325  1
  O  O295  1  0.86673598  0.13611204  0.13757025  1
  O  O296  1  0.88736284  0.13797006  0.62808997  1
  O  O297  1  0.87595092  0.63357045  0.13368846  1
  O  O298  1  0.89751941  0.59362899  0.61063531  1
  O  O299  1  0.25340051  0.25856929  0.12109684  1
  O  O300  1  0.24630109  0.25151149  0.61371672  1
  O  O301  1  0.26428546  0.76598614  0.16895860  1
  O  O302  1  0.24873941  0.75166274  0.61270578  1
  O  O303  1  0.75807937  0.25836222  0.12236040  1
  O  O304  1  0.75125317  0.26214548  0.63256119  1
  O  O305  1  0.75873077  0.76498848  0.13543911  1
  O  O306  1  0.73989576  0.77245364  0.60982430  1
  O  O307  1  0.23724347  0.24718535  0.37931721  1
  O  O308  1  0.24536917  0.24376134  0.88297163  1
  O  O309  1  0.24966098  0.73850206  0.37733957  1
  O  O310  1  0.24472386  0.75627446  0.87707418  1
  O  O311  1  0.74514797  0.23654285  0.36821179  1
  O  O312  1  0.74334136  0.24526349  0.87946522  1
  O  O313  1  0.73801352  0.75114698  0.38021428  1
  O  O314  1  0.74540279  0.77078487  0.87808563  1
  O  O315  1  0.01096972  0.11562942  -0.00548389  1
  O  O316  1  0.01480333  0.14918420  0.53022741  1
  O  O317  1  0.00934219  0.62004853  0.01322284  1
  O  O318  1  0.02152014  0.62300883  0.48650527  1
  O  O319  1  0.50677933  0.11987809  0.00382334  1
  O  O320  1  0.51060508  0.11581111  0.49012651  1
  O  O321  1  0.48966388  0.60496209  0.02230950  1
  O  O322  1  0.50951463  0.62661364  0.50618990  1
  O  O323  1  0.49471001  0.37536493  0.49670906  1
  O  O324  1  0.49367379  0.37563776  0.99531964  1
  O  O325  1  0.49324029  0.88069442  0.49129802  1
  O  O326  1  0.49997307  0.88111186  0.98694946  1
  O  O327  1  0.98615216  0.36430327  0.48496482  1
  O  O328  1  0.99700212  0.38726858  0.99349123  1
  O  O329  1  1.00317126  0.87597625  0.48283213  1
  O  O330  1  0.99469182  0.88295989  0.99514886  1
  O  O331  1  0.48729543  0.49809364  0.37937264  1
  O  O332  1  0.49130283  0.48532466  0.88276372  1
  O  O333  1  0.48869473  0.99362011  0.37803466  1
  O  O334  1  0.49469844  0.99618973  0.87578676  1
  O  O335  1  0.98952556  0.48561116  0.36736137  1
  O  O336  1  0.99595549  0.49932128  0.88677655  1
  O  O337  1  0.99682379  0.98695728  0.36645682  1
  O  O338  1  1.00010116  0.99098716  0.88418987  1
  O  O339  1  -0.00586011  -0.00066488  0.11040973  1
  O  O340  1  0.01140354  0.01215108  0.62465593  1
  O  O341  1  0.00491197  0.50450093  0.12393249  1
  O  O342  1  0.00812159  0.46081369  0.61492436  1
  O  O343  1  0.50691413  0.00555627  0.11935485  1
  O  O344  1  0.49603246  -0.00439285  0.60854614  1
  O  O345  1  0.50071011  0.48228569  0.11863486  1
  O  O346  1  0.50893816  0.50314752  0.62492899  1
  O  O347  1  0.23813950  0.36705241  0.24304786  1
  O  O348  1  0.24787956  0.37707148  0.74365956  1
  O  O349  1  0.23530196  0.88956140  0.26438764  1
  O  O350  1  0.24927808  0.88618649  0.74379093  1
  O  O351  1  0.74270410  0.37789927  0.24569980  1
  O  O352  1  0.73350313  0.38515795  0.74498576  1
  O  O353  1  0.74530201  0.88481277  0.24711608  1
  O  O354  1  0.74416531  0.88351742  0.72906513  1
  O  O355  1  0.25560248  0.11477515  0.25038913  1
  O  O356  1  0.24384486  0.12008197  0.76409573  1
  O  O357  1  0.26382602  0.62394475  0.26097749  1
  O  O358  1  0.26753691  0.62593540  0.76006261  1
  O  O359  1  0.75224990  0.11815740  0.25551114  1
  O  O360  1  0.74198177  0.11591766  0.75751640  1
  O  O361  1  0.75600611  0.61514021  0.25587476  1
  O  O362  1  0.73195903  0.60607117  0.75013353  1
  O  O363  1  0.37335520  0.11399930  0.36543446  1
  O  O364  1  0.36357740  0.11446317  0.88307879  1
  O  O365  1  0.36963112  0.61309103  0.37214086  1
  O  O366  1  0.38457919  0.61656912  0.87007436  1
  O  O367  1  0.86503863  0.13418881  0.35766633  1
  O  O368  1  0.86414215  0.12707788  0.87750002  1
  O  O369  1  0.87462308  0.61335353  0.37061493  1
  O  O370  1  0.87593158  0.66528584  0.88016527  1
  O  O371  1  0.12974778  0.37748649  0.13262992  1
  O  O372  1  0.14203082  0.36427372  0.64371142  1
  O  O373  1  0.12830251  0.87096893  0.13725241  1
  O  O374  1  0.12469913  0.89571958  0.62324422  1
  O  O375  1  0.63467045  0.36747463  0.13860883  1
  O  O376  1  0.62519899  0.37944375  0.63249538  1
  O  O377  1  0.63068767  0.88327091  0.13116764  1
  O  O378  1  0.62569355  0.88370761  0.62858760  1
  O  O379  1  0.11916978  0.25670907  0.25614439  1
  O  O380  1  0.12975343  0.25925162  0.76718516  1
  O  O381  1  0.10978959  0.75488535  0.25064852  1
  O  O382  1  0.13214953  0.75922585  0.77010563  1
  O  O383  1  0.61549062  0.25524349  0.25108354  1
  O  O384  1  0.62862393  0.25734685  0.76370606  1
  O  O385  1  0.62096702  0.75116505  0.25761287  1
  O  O386  1  0.62354170  0.76376528  0.74063347  1
  O  O387  1  0.38031288  0.24274126  0.24500705  1
  O  O388  1  0.38186425  0.23572960  0.76055942  1
  O  O389  1  0.39279639  0.72897117  0.26260842  1
  O  O390  1  0.38283767  0.74511926  0.74245842  1
  O  O391  1  0.88381455  0.24542649  0.24245729  1
  O  O392  1  0.87001813  0.25806080  0.74457467  1
  O  O393  1  0.88348360  0.74660976  0.24782833  1
  O  O394  1  0.84908397  0.74073800  0.71960236  1
  O  O395  1  0.37550612  0.49702540  0.48997224  1
  O  O396  1  0.38557176  0.48887567  0.99704095  1
  O  O397  1  0.37828498  0.99627469  0.49058140  1
  O  O398  1  0.38531677  0.99622132  0.98706873  1
  O  O399  1  0.86978749  0.48682046  0.48512976  1
  O  O400  1  0.88475709  0.50503875  1.01179937  1
  O  O401  1  0.88770492  1.04939947  0.49008634  1
  O  O402  1  0.87996722  0.99142903  0.99534282  1
  O  O403  1  0.11970791  0.00909771  -0.00110347  1
  O  O404  1  0.13501252  0.00355275  0.50413697  1
  O  O405  1  0.11599856  0.49689475  0.01640090  1
  O  O406  1  0.12985750  0.50792308  0.49041336  1
  O  O407  1  0.62002505  0.00405008  0.00289747  1
  O  O408  1  0.61258169  0.00913695  0.49739773  1
  O  O409  1  0.60616541  0.49695442  -0.00053777  1
  O  O410  1  0.62386422  0.50903337  0.50741868  1
  O  O411  1  0.36595737  0.36709617  0.12564368  1
  O  O412  1  0.35951265  0.37209526  0.62908126  1
  O  O413  1  0.38644124  0.87354483  0.10094948  1
  O  O414  1  0.37084597  0.86750768  0.61426266  1
  O  O415  1  0.86894233  0.36362063  0.12472814  1
  O  O416  1  0.85994157  0.36470907  0.61206837  1
  O  O417  1  0.87022892  0.87408565  0.11804634  1
  O  O418  1  0.86746574  0.88266792  0.61718793  1
  O  O419  1  0.12504348  0.13869495  0.37127188  1
  O  O420  1  0.13204287  0.13464791  0.88330987  1
  O  O421  1  0.13651560  0.62417896  0.37422783  1
  O  O422  1  0.13142894  0.64283734  0.87969826  1
  O  O423  1  0.63138878  0.12712737  0.38168693  1
  O  O424  1  0.63240321  0.13174442  0.87943731  1
  O  O425  1  0.62532924  0.63166914  0.38327792  1
  O  O426  1  0.58059862  0.63854976  0.89862207  1
