# generated using pymatgen
data_V85Zn86O256
_symmetry_space_group_name_H-M   'P 1'
_cell_length_a   16.94171184
_cell_length_b   16.94565463
_cell_length_c   16.94978978
_cell_angle_alpha   90.07171309
_cell_angle_beta   89.95229174
_cell_angle_gamma   90.04516787
_symmetry_Int_Tables_number   1
_chemical_formula_structural   V85Zn86O256
_chemical_formula_sum   'V85 Zn86 O256'
_cell_volume   4866.08098164
_cell_formula_units_Z   1
loop_
 _symmetry_equiv_pos_site_id
 _symmetry_equiv_pos_as_xyz
  1  'x, y, z'
loop_
 _atom_site_type_symbol
 _atom_site_label
 _atom_site_symmetry_multiplicity
 _atom_site_fract_x
 _atom_site_fract_y
 _atom_site_fract_z
 _atom_site_occupancy
  V  V0  1  0.76031494  0.26005746  0.00513179  1
  V  V1  1  0.86595294  0.75950867  0.62396016  1
  V  V2  1  0.24986569  0.49546954  0.24688478  1
  V  V3  1  0.87459000  0.00115181  0.37269222  1
  V  V4  1  0.50010896  0.12882365  0.62539492  1
  V  V5  1  0.62549297  0.87336704  0.24928712  1
  V  V6  1  0.24531839  0.87788517  0.14007896  1
  V  V7  1  0.87610280  0.12344997  0.74988705  1
  V  V8  1  0.75163678  0.63080772  0.38387852  1
  V  V9  1  0.50954487  0.88187335  0.88197650  1
  V  V10  1  0.86443413  0.62654913  0.24432811  1
  V  V11  1  0.11989300  0.62301386  0.49983874  1
  V  V12  1  0.16964694  0.81014729  0.82001447  1
  V  V13  1  0.63213318  0.47331555  0.62359593  1
  V  V14  1  0.50472924  0.74705438  0.24506782  1
  V  V15  1  0.24855539  0.62604797  0.87257877  1
  V  V16  1  0.24218891  0.62257602  0.37329661  1
  V  V17  1  0.12285441  0.37326500  0.75064229  1
  V  V18  1  0.62872086  0.49714728  0.12267953  1
  V  V19  1  0.13110692  0.25147041  0.88170847  1
  V  V20  1  0.12191987  0.75662881  0.36964560  1
  V  V21  1  0.75214177  0.12582753  0.36992722  1
  V  V22  1  0.75197850  0.12561979  0.87651419  1
  V  V23  1  0.50098235  0.38286128  0.37110923  1
  V  V24  1  0.50679577  0.74490230  0.74357146  1
  V  V25  1  0.86716921  0.25179796  0.62454832  1
  V  V26  1  0.50303149  0.87992601  0.37233722  1
  V  V27  1  0.00064818  0.24995168  0.75172817  1
  V  V28  1  0.62232345  0.25077925  0.37170655  1
  V  V29  1  0.00100043  0.86894702  0.87706629  1
  V  V30  1  0.38088100  0.62176057  0.73990987  1
  V  V31  1  0.24796190  0.75597238  0.00074302  1
  V  V32  1  0.00150581  -0.00296868  0.50036201  1
  V  V33  1  0.36896069  0.12409963  0.75348828  1
  V  V34  1  0.86800884  0.49991814  0.36968417  1
  V  V35  1  0.24831841  0.11771904  0.87852238  1
  V  V36  1  0.24731652  0.37323582  0.62432970  1
  V  V37  1  0.50179046  0.38438368  0.87894847  1
  V  V38  1  0.87566977  -0.00165592  0.87366642  1
  V  V39  1  0.24975134  0.24897678  0.49180798  1
  V  V40  1  0.11806460  0.49775141  0.62664696  1
  V  V41  1  0.37354688  0.62314236  0.24554955  1
  V  V42  1  -0.00001204  0.00037236  0.00267171  1
  V  V43  1  0.62391352  0.12588441  0.49720893  1
  V  V44  1  0.36886518  0.24589621  0.11404995  1
  V  V45  1  -0.01215965  0.12577160  0.13851310  1
  V  V46  1  0.62322403  0.61425930  -0.01195388  1
  V  V47  1  0.37817142  0.38406512  0.49840785  1
  V  V48  1  0.87410055  0.86672238  0.00434392  1
  V  V49  1  0.75338139  0.00196630  0.24612478  1
  V  V50  1  0.12644899  0.12942276  0.00717270  1
  V  V51  1  0.12523857  0.62927308  -0.00183235  1
  V  V52  1  -0.00448031  0.75610057  0.24823164  1
  V  V53  1  -0.00685161  0.63162717  0.12507824  1
  V  V54  1  0.63820121  0.37571445  0.24128277  1
  V  V55  1  0.12345211  0.50026992  0.12590067  1
  V  V56  1  0.62754122  0.25583046  0.87514161  1
  V  V57  1  0.00034509  0.75073485  0.74912795  1
  V  V58  1  0.12732188  0.12463222  0.49808230  1
  V  V59  1  -0.00629047  0.49413929  0.00101119  1
  V  V60  1  0.62000767  -0.00203002  0.11867222  1
  V  V61  1  0.36579821  0.87832884  0.50275295  1
  V  V62  1  -0.00219325  0.37200115  0.36801278  1
  V  V63  1  0.12599879  -0.00158363  0.14149270  1
  V  V64  1  0.86848899  0.37486645  0.49949171  1
  V  V65  1  0.86565921  0.50014499  0.87761197  1
  V  V66  1  0.75245527  0.86355238  0.12471919  1
  V  V67  1  0.37372456  0.25168804  0.62492345  1
  V  V68  1  0.36474349  0.12550630  0.25289552  1
  V  V69  1  0.50492380  0.25527274  0.75199603  1
  V  V70  1  0.63729734  0.74331285  0.87196378  1
  V  V71  1  0.12134828  0.24816262  0.36803264  1
  V  V72  1  0.87511660  0.26100906  0.13704897  1
  V  V73  1  0.00488723  0.12193216  0.62454316  1
  V  V74  1  0.62465188  -0.00040527  0.62430500  1
  V  V75  1  0.49832658  0.00389024  0.49578393  1
  V  V76  1  0.37146836  0.38473394  0.00027041  1
  V  V77  1  0.25091484  0.49791277  0.75254347  1
  V  V78  1  0.37682449  0.75154902  0.12112490  1
  V  V79  1  -0.00941084  0.62146908  0.62824034  1
  V  V80  1  0.62731722  0.87248456  0.74466730  1
  V  V81  1  0.75305539  -0.00190103  0.74208920  1
  V  V82  1  0.36116203  0.00326727  0.36746887  1
  V  V83  1  0.58279210  0.69571583  0.42196088  1
  V  V84  1  0.62090558  0.12379415  0.00012850  1
  Zn  Zn85  1  0.12051553  0.36937129  0.24712402  1
  Zn  Zn86  1  0.38340111  0.50835802  0.87897186  1
  Zn  Zn87  1  0.86111288  0.62915109  0.76685711  1
  Zn  Zn88  1  0.53329953  0.57681410  0.55930294  1
  Zn  Zn89  1  0.20085279  0.94324924  0.67864659  1
  Zn  Zn90  1  0.38482683  0.88464976  0.00517369  1
  Zn  Zn91  1  0.49624949  0.61251383  0.11429030  1
  Zn  Zn92  1  0.74359702  0.49196832  0.74568458  1
  Zn  Zn93  1  0.75574009  0.73754895  -0.00241654  1
  Zn  Zn94  1  -0.00499770  0.49732518  0.50085947  1
  Zn  Zn95  1  0.86920213  0.87939972  0.50482598  1
  Zn  Zn96  1  0.49910188  0.24762522  0.24368962  1
  Zn  Zn97  1  0.38327562  0.00568649  0.88606555  1
  Zn  Zn98  1  -0.00074826  0.87659288  0.37205060  1
  Zn  Zn99  1  0.24373860  0.36921213  0.11746355  1
  Zn  Zn100  1  -0.00001981  0.37152786  0.88405822  1
  Zn  Zn101  1  0.37332958  0.74974284  0.62428154  1
  Zn  Zn102  1  0.74370618  0.75950996  0.50173245  1
  Zn  Zn103  1  0.74482042  0.25336086  0.50368152  1
  Zn  Zn104  1  0.24156302  0.75664533  0.50841517  1
  Zn  Zn105  1  0.49565139  0.12024170  0.12202786  1
  Zn  Zn106  1  0.37657774  0.50112007  0.37496251  1
  Zn  Zn107  1  0.18916141  0.18483162  0.18691506  1
  Zn  Zn108  1  0.18724223  0.18214528  0.68762870  1
  Zn  Zn109  1  0.18411829  0.68784351  0.18665745  1
  Zn  Zn110  1  0.19015632  0.68522156  0.68074989  1
  Zn  Zn111  1  0.68958171  0.18789304  0.18527315  1
  Zn  Zn112  1  0.68619575  0.18930616  0.69019145  1
  Zn  Zn113  1  0.68452828  0.68070651  0.18360942  1
  Zn  Zn114  1  0.68891481  0.66855607  0.68157022  1
  Zn  Zn115  1  0.31263940  0.31101465  0.30980904  1
  Zn  Zn116  1  0.31302168  0.31041344  0.81666327  1
  Zn  Zn117  1  0.31388638  0.80972524  0.31506224  1
  Zn  Zn118  1  0.33469303  0.81291088  0.81413222  1
  Zn  Zn119  1  0.81187653  0.31027095  0.31350505  1
  Zn  Zn120  1  0.81504828  0.32001114  0.82187183  1
  Zn  Zn121  1  0.81266625  0.81151083  0.31528743  1
  Zn  Zn122  1  0.81450392  0.81492415  0.80687586  1
  Zn  Zn123  1  0.18475065  0.43593454  0.43681990  1
  Zn  Zn124  1  0.18764084  0.43962782  0.93820647  1
  Zn  Zn125  1  0.18326783  0.94036061  0.43584265  1
  Zn  Zn126  1  0.19165799  0.94541614  0.95196727  1
  Zn  Zn127  1  0.68565430  0.44317113  0.44001161  1
  Zn  Zn128  1  0.68703018  0.43586543  0.94256151  1
  Zn  Zn129  1  0.68897422  0.93433882  0.43809929  1
  Zn  Zn130  1  0.69040631  0.93630162  0.93634460  1
  Zn  Zn131  1  0.30926456  0.05973010  0.06219416  1
  Zn  Zn132  1  0.30845958  0.06507920  0.55963972  1
  Zn  Zn133  1  0.31071416  0.56379864  0.06106249  1
  Zn  Zn134  1  0.30636353  0.56329170  0.56330506  1
  Zn  Zn135  1  0.80932372  0.06030160  0.06004823  1
  Zn  Zn136  1  0.81394492  0.06509017  0.55976959  1
  Zn  Zn137  1  0.80700166  0.55965102  0.06253228  1
  Zn  Zn138  1  0.80728040  0.55979426  0.56290275  1
  Zn  Zn139  1  0.44138703  0.43322041  0.18476788  1
  Zn  Zn140  1  0.44125410  0.43826480  0.68945257  1
  Zn  Zn141  1  0.43516225  0.93888457  0.18646857  1
  Zn  Zn142  1  0.40017607  0.96279699  0.67123365  1
  Zn  Zn143  1  0.93515160  0.44127499  0.18933591  1
  Zn  Zn144  1  0.90597788  0.42197539  0.70536493  1
  Zn  Zn145  1  0.93530876  0.93884189  0.18746964  1
  Zn  Zn146  1  1.03999642  0.93796130  0.68564098  1
  Zn  Zn147  1  0.06129126  0.06670110  0.31574103  1
  Zn  Zn148  1  0.06879153  0.05971864  0.81537483  1
  Zn  Zn149  1  0.05432640  0.56171189  0.31029478  1
  Zn  Zn150  1  0.06072122  0.56482471  0.81347638  1
  Zn  Zn151  1  0.55923220  0.06424440  0.30460285  1
  Zn  Zn152  1  0.56478503  0.06607458  0.81016781  1
  Zn  Zn153  1  0.56184469  0.55526967  0.30062395  1
  Zn  Zn154  1  0.57614373  0.56096809  0.78807656  1
  Zn  Zn155  1  0.43665623  0.19118051  0.43287893  1
  Zn  Zn156  1  0.43913848  0.19114802  0.93942120  1
  Zn  Zn157  1  0.41587333  0.69470639  0.42755516  1
  Zn  Zn158  1  0.44340694  0.69089760  0.93240772  1
  Zn  Zn159  1  0.93701179  0.18701148  0.43577864  1
  Zn  Zn160  1  0.94039527  0.18697134  0.94091223  1
  Zn  Zn161  1  0.93572607  0.68777590  0.43844568  1
  Zn  Zn162  1  0.93947602  0.68641275  0.93898825  1
  Zn  Zn163  1  0.05844464  0.30960173  0.06914325  1
  Zn  Zn164  1  0.05562294  0.31145885  0.55867747  1
  Zn  Zn165  1  0.06463438  0.81338416  0.06527363  1
  Zn  Zn166  1  0.06296367  0.81161159  0.56161386  1
  Zn  Zn167  1  0.55846526  0.31015446  0.06075174  1
  Zn  Zn168  1  0.55943889  0.31729223  0.55871376  1
  Zn  Zn169  1  0.56962155  0.80401697  0.05964557  1
  Zn  Zn170  1  0.55483836  0.81993964  0.56619598  1
  O  O171  1  0.11527314  0.12220214  0.12246656  1
  O  O172  1  0.11629811  0.13249926  0.61128378  1
  O  O173  1  0.11663061  0.61816787  0.11963292  1
  O  O174  1  0.11465555  0.61894376  0.61761171  1
  O  O175  1  0.62643403  0.11647750  0.11663119  1
  O  O176  1  0.61877940  0.12149011  0.61931642  1
  O  O177  1  0.62000742  0.61319433  0.11647176  1
  O  O178  1  0.61089897  0.60192997  0.63774522  1
  O  O179  1  0.38171803  0.37561904  0.37995453  1
  O  O180  1  0.38056261  0.37547498  0.88690552  1
  O  O181  1  0.38364530  0.88151912  0.37841761  1
  O  O182  1  0.39796960  0.87965505  0.87789305  1
  O  O183  1  0.87908713  0.38032635  0.37675907  1
  O  O184  1  0.88700135  0.39286245  0.88420550  1
  O  O185  1  0.87589547  0.89057607  0.37433220  1
  O  O186  1  0.88271008  0.87931120  0.88082012  1
  O  O187  1  0.26206112  -0.00378291  0.37360025  1
  O  O188  1  0.24988834  0.01475381  0.87913860  1
  O  O189  1  0.24542213  0.50870569  0.36577454  1
  O  O190  1  0.25376575  0.50945231  0.86990533  1
  O  O191  1  0.75377204  0.00664259  0.36647020  1
  O  O192  1  0.75453968  0.00578032  0.86564587  1
  O  O193  1  0.76138462  0.50867788  0.37727293  1
  O  O194  1  0.76390125  0.49208714  0.87849002  1
  O  O195  1  0.24074925  0.49958239  0.13015818  1
  O  O196  1  0.23958230  0.49353453  0.63223886  1
  O  O197  1  0.23842389  0.98997518  0.12392641  1
  O  O198  1  0.29166033  0.99446935  0.64194125  1
  O  O199  1  0.73116259  0.49569931  0.11889196  1
  O  O200  1  0.73765327  0.49500252  0.62165942  1
  O  O201  1  0.74292873  0.99298037  0.13154570  1
  O  O202  1  0.74498228  1.01036955  0.63692495  1
  O  O203  1  0.00153930  0.38022729  0.26294341  1
  O  O204  1  0.00303287  0.36030107  0.75109251  1
  O  O205  1  -0.00615460  0.86051874  0.24852352  1
  O  O206  1  -0.00057471  0.85983239  0.76176125  1
  O  O207  1  0.50617106  0.36767412  0.25802671  1
  O  O208  1  0.48824656  0.35966770  0.76254051  1
  O  O209  1  0.50166108  0.86729385  0.25501010  1
  O  O210  1  0.51779256  0.86622997  0.76139088  1
  O  O211  1  0.48940820  0.12865249  0.24184503  1
  O  O212  1  0.49658642  0.13872194  0.74722305  1
  O  O213  1  0.49248941  0.63273302  0.24789124  1
  O  O214  1  0.49058918  0.63253814  0.76110723  1
  O  O215  1  0.99718664  0.12368223  0.23676380  1
  O  O216  1  0.99762363  0.13315746  0.74389754  1
  O  O217  1  0.98933495  0.63139908  0.24144812  1
  O  O218  1  1.00057078  0.63697502  0.74519311  1
  O  O219  1  0.37164759  0.25488896  0.01045868  1
  O  O220  1  0.36572057  0.25562582  0.50269253  1
  O  O221  1  0.36917431  0.75331355  0.00688730  1
  O  O222  1  0.36809399  0.76732122  0.49604198  1
  O  O223  1  0.86465797  0.24569088  0.00581224  1
  O  O224  1  0.87240501  0.25366806  0.50734567  1
  O  O225  1  0.87302589  0.76221313  -0.00369084  1
  O  O226  1  0.87803156  0.75161512  0.51530362  1
  O  O227  1  0.13101032  0.24574359  0.49251163  1
  O  O228  1  0.11651798  0.24302357  0.99363447  1
  O  O229  1  0.12207699  0.73735651  0.49062443  1
  O  O230  1  0.13585976  0.74234229  1.00605117  1
  O  O231  1  0.62524400  0.24365254  0.48952711  1
  O  O232  1  0.63667785  0.24283089  0.99682563  1
  O  O233  1  0.62248716  0.75260124  0.49903574  1
  O  O234  1  0.63148626  0.73792822  0.98795802  1
  O  O235  1  0.48326560  0.24679983  0.12392882  1
  O  O236  1  0.49467911  0.24828839  0.63265294  1
  O  O237  1  0.49171682  0.74981082  0.12968664  1
  O  O238  1  0.49833721  0.75140896  0.63954779  1
  O  O239  1  0.98544703  0.23680608  0.12152098  1
  O  O240  1  0.99441933  0.23950755  0.63151239  1
  O  O241  1  1.00378850  0.73891152  0.13119374  1
  O  O242  1  0.99288811  0.74159007  0.63326583  1
  O  O243  1  0.00815588  0.25790106  0.37781885  1
  O  O244  1  0.00952183  0.24855519  0.86806811  1
  O  O245  1  0.00487815  0.74980076  0.36683722  1
  O  O246  1  -0.00116879  0.76049005  0.87041534  1
  O  O247  1  0.51219937  0.25562860  0.37072625  1
  O  O248  1  0.50997995  0.25464478  0.86994193  1
  O  O249  1  0.50366455  0.75664524  0.36670301  1
  O  O250  1  0.51369300  0.75799949  0.86423393  1
  O  O251  1  0.24069687  0.13503974  0.50294644  1
  O  O252  1  0.23407867  0.12491757  0.99676336  1
  O  O253  1  0.23913073  0.62300325  0.48896291  1
  O  O254  1  0.24853665  0.63682855  0.99229703  1
  O  O255  1  0.74084613  0.12459115  0.48689025  1
  O  O256  1  0.74343001  0.13126136  0.99237957  1
  O  O257  1  0.75334770  0.63068259  0.48715048  1
  O  O258  1  0.73101122  0.62387754  1.00313134  1
  O  O259  1  0.26529372  0.37783734  -0.00117003  1
  O  O260  1  0.25477992  0.36862656  0.50513682  1
  O  O261  1  0.25239974  0.86395854  0.00728268  1
  O  O262  1  0.26242475  0.87823301  0.49379564  1
  O  O263  1  0.74900889  0.35806610  0.00185783  1
  O  O264  1  0.76469246  0.36973618  0.48805508  1
  O  O265  1  0.75825461  0.87350655  0.00796475  1
  O  O266  1  0.75535253  0.87322960  0.49984503  1
  O  O267  1  0.12853118  0.50277932  0.23804903  1
  O  O268  1  0.12820965  0.49242054  0.74662580  1
  O  O269  1  0.12051988  1.00390942  0.24095596  1
  O  O270  1  0.11919724  1.00285933  0.73697772  1
  O  O271  1  0.62708193  0.48360595  0.24096317  1
  O  O272  1  0.62734673  0.47752747  0.73634715  1
  O  O273  1  0.63467909  0.99321549  0.24249926  1
  O  O274  1  0.63209063  0.99463184  0.74407264  1
  O  O275  1  0.37906416  0.01345462  0.25441851  1
  O  O276  1  0.39398498  0.02302456  0.76883500  1
  O  O277  1  0.36555616  0.50422133  0.24710589  1
  O  O278  1  0.36956044  0.50541344  0.75413735  1
  O  O279  1  0.86108590  -0.00149388  0.25498509  1
  O  O280  1  0.86606909  0.00771902  0.75699097  1
  O  O281  1  0.87741361  0.51225923  0.25778041  1
  O  O282  1  0.89892885  0.51191889  0.77661241  1
  O  O283  1  0.11552307  0.36765537  0.37419961  1
  O  O284  1  0.12254641  0.36774830  0.87089504  1
  O  O285  1  0.12194442  0.86013931  0.37929070  1
  O  O286  1  0.11867845  0.87583637  0.88636785  1
  O  O287  1  0.62043048  0.36952431  0.36562282  1
  O  O288  1  0.61755439  0.36297843  0.88450333  1
  O  O289  1  0.61105580  0.88309432  0.36583014  1
  O  O290  1  0.62395835  0.86564907  0.87015634  1
  O  O291  1  0.37282564  0.13352710  0.13000693  1
  O  O292  1  0.38098481  0.13469197  0.63376224  1
  O  O293  1  0.37591378  0.63552220  0.12677823  1
  O  O294  1  0.37763068  0.61914437  0.63556525  1
  O  O295  1  0.88565263  0.12472103  0.12074589  1
  O  O296  1  0.88283560  0.13315490  0.62969510  1
  O  O297  1  0.88136559  0.62012270  0.13099787  1
  O  O298  1  0.88572908  0.62560602  0.62465279  1
  O  O299  1  0.26369969  0.25355452  0.12999727  1
  O  O300  1  0.25395539  0.25546524  0.61664129  1
  O  O301  1  0.25604719  0.75369231  0.11853535  1
  O  O302  1  0.25941426  0.74356185  0.61920914  1
  O  O303  1  0.76401266  0.24197886  0.11420611  1
  O  O304  1  0.76343986  0.24217972  0.62374593  1
  O  O305  1  0.74525132  0.76100781  0.12296841  1
  O  O306  1  0.76342974  0.74032370  0.62449128  1
  O  O307  1  0.24179679  0.25762684  0.38673027  1
  O  O308  1  0.23523460  0.24258039  0.87281910  1
  O  O309  1  0.24032607  0.73743100  0.37411130  1
  O  O310  1  0.24630844  0.75004357  0.87855565  1
  O  O311  1  0.73881356  0.24136415  0.37424909  1
  O  O312  1  0.74782064  0.24804258  0.88404523  1
  O  O313  1  0.74876527  0.74003351  0.37803073  1
  O  O314  1  0.74034267  0.75382192  0.87304760  1
  O  O315  1  0.00851304  0.11843098  0.00711235  1
  O  O316  1  0.00584930  0.12135211  0.50712308  1
  O  O317  1  0.00611493  0.61967647  0.00896936  1
  O  O318  1  0.00522387  0.62189987  0.50852150  1
  O  O319  1  0.51633998  0.13012932  0.00032518  1
  O  O320  1  0.50403246  0.12366749  0.50293604  1
  O  O321  1  0.51669390  0.63190568  -0.00067492  1
  O  O322  1  0.50523273  0.63755035  0.47063874  1
  O  O323  1  0.48634975  0.36451523  0.48530910  1
  O  O324  1  0.48500117  0.36670231  0.99015630  1
  O  O325  1  0.49244711  0.88253972  0.48784696  1
  O  O326  1  0.50688348  0.86634437  0.98527838  1
  O  O327  1  0.99019556  0.37567230  0.48605282  1
  O  O328  1  1.00637879  0.39213976  1.00600119  1
  O  O329  1  0.99383247  0.88591183  0.49656400  1
  O  O330  1  0.99320851  0.87841771  0.99716031  1
  O  O331  1  0.49765726  0.48721140  0.36940645  1
  O  O332  1  0.50251580  0.48557687  0.86629493  1
  O  O333  1  0.49289366  0.99489524  0.37661186  1
  O  O334  1  0.51475837  0.98433935  0.87459655  1
  O  O335  1  0.98687936  0.49421589  0.37737150  1
  O  O336  1  1.00869107  0.50126562  0.89593572  1
  O  O337  1  0.99080142  1.00088354  0.38002618  1
  O  O338  1  0.99654050  0.98818495  0.88139681  1
  O  O339  1  0.00327221  0.00957032  0.12272129  1
  O  O340  1  -0.00990784  0.01522136  0.61440314  1
  O  O341  1  0.00442976  0.50905709  0.11809578  1
  O  O342  1  0.00526791  0.50668364  0.62650350  1
  O  O343  1  0.51604864  -0.00242969  0.12789889  1
  O  O344  1  0.50035592  0.01106366  0.61702083  1
  O  O345  1  0.51533191  0.49888568  0.13001541  1
  O  O346  1  0.51409954  0.48092762  0.61866406  1
  O  O347  1  0.24643172  0.38789398  0.24959254  1
  O  O348  1  0.24425727  0.37775829  0.74567370  1
  O  O349  1  0.25093353  0.86584854  0.23888153  1
  O  O350  1  0.24168909  0.86529614  0.76843242  1
  O  O351  1  0.73620415  0.37076092  0.25113471  1
  O  O352  1  0.79776919  0.39075226  0.73972046  1
  O  O353  1  0.74528439  0.87981476  0.24333625  1
  O  O354  1  0.73863295  0.88557592  0.75394182  1
  O  O355  1  0.26516076  0.12469040  0.24885121  1
  O  O356  1  0.25917053  0.13185470  0.76148460  1
  O  O357  1  0.25110197  0.61529232  0.25320370  1
  O  O358  1  0.25732442  0.61894063  0.75642717  1
  O  O359  1  0.74203470  0.11589409  0.26111554  1
  O  O360  1  0.75472274  0.12000228  0.75809658  1
  O  O361  1  0.76077519  0.63187447  0.25525324  1
  O  O362  1  0.75207823  0.60718282  0.75201889  1
  O  O363  1  0.37799258  0.11946802  0.36158661  1
  O  O364  1  0.36385629  0.13295390  0.87320678  1
  O  O365  1  0.35909738  0.62028277  0.36425913  1
  O  O366  1  0.36422700  0.62760652  0.86940498  1
  O  O367  1  0.86439389  0.11509918  0.37784154  1
  O  O368  1  0.87224201  0.11967785  0.87066758  1
  O  O369  1  0.86886198  0.61888581  0.36884894  1
  O  O370  1  0.87905408  0.60848258  0.88498625  1
  O  O371  1  0.12567158  0.38259361  0.12853055  1
  O  O372  1  0.12621323  0.37812728  0.62915524  1
  O  O373  1  0.13243512  0.88567360  0.12351993  1
  O  O374  1  0.11961144  0.88064459  0.62635968  1
  O  O375  1  0.62029291  0.37573428  0.13516260  1
  O  O376  1  0.63474267  0.37122353  0.62047091  1
  O  O377  1  0.63285908  0.87986936  0.12731711  1
  O  O378  1  0.61975542  0.88675944  0.63357642  1
  O  O379  1  0.13154788  0.24918545  0.26398178  1
  O  O380  1  0.11835311  0.25300472  0.75645306  1
  O  O381  1  0.11167467  0.73928476  0.25997062  1
  O  O382  1  0.11905915  0.74467681  0.75424681  1
  O  O383  1  0.62420456  0.25828738  0.25301326  1
  O  O384  1  0.61850517  0.24819868  0.76216290  1
  O  O385  1  0.61180451  0.75501199  0.24103452  1
  O  O386  1  0.62522718  0.75395784  0.75194736  1
  O  O387  1  0.37527706  0.24017423  0.24254794  1
  O  O388  1  0.38141920  0.24243935  0.74699037  1
  O  O389  1  0.38410438  0.74459040  0.24303876  1
  O  O390  1  0.38791318  0.73957890  0.74761275  1
  O  O391  1  0.86774104  0.24672433  0.23571797  1
  O  O392  1  0.88381937  0.24274945  0.74534016  1
  O  O393  1  0.88399542  0.73970438  0.25469275  1
  O  O394  1  0.88188428  0.74485534  0.74223809  1
  O  O395  1  0.36712111  0.48782657  0.49696860  1
  O  O396  1  0.37655878  0.48933108  1.00015595  1
  O  O397  1  0.37974255  0.99470965  0.48805419  1
  O  O398  1  0.37645107  0.99801431  0.99874777  1
  O  O399  1  0.87513018  0.49110132  0.49302352  1
  O  O400  1  0.88883949  0.50374530  0.99769152  1
  O  O401  1  0.88462211  1.00290584  0.49183208  1
  O  O402  1  0.88025767  0.99119029  0.99325044  1
  O  O403  1  0.11609342  0.00949782  0.01189235  1
  O  O404  1  0.11220872  0.01014084  0.49277073  1
  O  O405  1  0.12094584  0.50724827  0.01137752  1
  O  O406  1  0.12156786  0.50881643  0.50554803  1
  O  O407  1  0.63562219  0.00953171  0.00794199  1
  O  O408  1  0.61768169  0.00692292  0.50403301  1
  O  O409  1  0.62083683  0.50712908  0.00313180  1
  O  O410  1  0.62156654  0.49561388  0.51489443  1
  O  O411  1  0.37325643  0.36632684  0.11377381  1
  O  O412  1  0.36874918  0.36966903  0.61670981  1
  O  O413  1  0.36872616  0.86493727  0.12514714  1
  O  O414  1  0.38975916  0.87076372  0.60353573  1
  O  O415  1  0.88206174  0.36024012  0.12808877  1
  O  O416  1  0.89086437  0.36051166  0.60903619  1
  O  O417  1  0.86529606  0.88137034  0.11524556  1
  O  O418  1  0.87563735  0.85715265  0.62969358  1
  O  O419  1  0.11877360  0.13463777  0.38774955  1
  O  O420  1  0.12927609  0.13115253  0.88529311  1
  O  O421  1  0.12498171  0.62725022  0.38132847  1
  O  O422  1  0.14005436  0.62181043  0.88073456  1
  O  O423  1  0.62768782  0.13202232  0.37630233  1
  O  O424  1  0.63194114  0.13551119  0.88047787  1
  O  O425  1  0.63492912  0.62422307  0.36348081  1
  O  O426  1  0.62133484  0.62741031  0.88050277  1
