# generated using pymatgen
data_V85Zn86O256
_symmetry_space_group_name_H-M   'P 1'
_cell_length_a   16.91797202
_cell_length_b   16.92164378
_cell_length_c   16.91916618
_cell_angle_alpha   89.93796126
_cell_angle_beta   89.99875434
_cell_angle_gamma   90.04393667
_symmetry_Int_Tables_number   1
_chemical_formula_structural   V85Zn86O256
_chemical_formula_sum   'V85 Zn86 O256'
_cell_volume   4843.61287028
_cell_formula_units_Z   1
loop_
 _symmetry_equiv_pos_site_id
 _symmetry_equiv_pos_as_xyz
  1  'x, y, z'
loop_
 _atom_site_type_symbol
 _atom_site_label
 _atom_site_symmetry_multiplicity
 _atom_site_fract_x
 _atom_site_fract_y
 _atom_site_fract_z
 _atom_site_occupancy
  V  V0  1  0.00084268  0.75190866  0.74560890  1
  V  V1  1  0.74928101  0.24423541  -0.00689341  1
  V  V2  1  0.87258281  0.25053887  0.62551319  1
  V  V3  1  0.50603549  0.61428668  0.62446672  1
  V  V4  1  0.75104830  0.12553615  0.37597637  1
  V  V5  1  0.23646522  0.24450038  -0.00211833  1
  V  V6  1  0.50178420  0.49883604  -0.00546960  1
  V  V7  1  0.00268530  0.49845405  0.50435990  1
  V  V8  1  0.11881023  0.74910750  0.37098146  1
  V  V9  1  0.62766506  -0.00359142  0.12249278  1
  V  V10  1  0.25057077  0.74949110  -0.00293603  1
  V  V11  1  0.00746991  0.62029212  0.62567152  1
  V  V12  1  0.12546502  0.50228279  0.12517748  1
  V  V13  1  0.73909023  0.74656339  -0.00384593  1
  V  V14  1  0.01295649  0.12472747  0.62325718  1
  V  V15  1  0.62331764  0.26366398  0.86743925  1
  V  V16  1  0.73078990  0.37637087  0.62728326  1
  V  V17  1  0.00218381  0.62949120  0.12813668  1
  V  V18  1  0.73484313  0.49643933  0.74555851  1
  V  V19  1  0.37546285  0.62571867  0.75317331  1
  V  V20  1  0.00136201  0.87956675  0.37403294  1
  V  V21  1  0.12548029  0.75200745  0.87089686  1
  V  V22  1  0.24609429  0.12106545  0.38250804  1
  V  V23  1  0.12262236  0.87327811  0.24672705  1
  V  V24  1  0.49303945  0.11954783  0.63706823  1
  V  V25  1  0.73729921  0.62737917  0.87664257  1
  V  V26  1  0.51474493  0.87347986  0.87059423  1
  V  V27  1  0.12434834  0.37553110  0.25173096  1
  V  V28  1  0.24391987  0.00559314  0.74723208  1
  V  V29  1  0.50412675  0.12713876  0.13663298  1
  V  V30  1  0.74600114  -0.00615770  0.75077157  1
  V  V31  1  0.38216424  0.87897960  0.50079347  1
  V  V32  1  0.11460267  0.38053627  0.76646811  1
  V  V33  1  0.87242065  0.62396937  0.74804367  1
  V  V34  1  0.61690025  0.24325129  0.36680197  1
  V  V35  1  0.62109051  -0.00841689  0.62755911  1
  V  V36  1  0.00952260  0.12605756  0.11974864  1
  V  V37  1  0.23199072  0.87286787  0.63165234  1
  V  V38  1  0.62254929  0.12592830  -0.00981973  1
  V  V39  1  0.00122897  0.87624394  0.86721931  1
  V  V40  1  0.12336870  0.24443889  0.38638379  1
  V  V41  1  0.87794916  0.75110953  0.12331156  1
  V  V42  1  0.62967288  0.62881563  0.50086965  1
  V  V43  1  0.49703131  0.36811092  0.37055098  1
  V  V44  1  -0.00163121  0.25545369  0.76361790  1
  V  V45  1  0.38066837  0.00088596  0.37749872  1
  V  V46  1  0.86876835  0.12678759  0.75161594  1
  V  V47  1  0.50636120  0.62701315  0.12084932  1
  V  V48  1  0.23931043  0.37380674  0.62673687  1
  V  V49  1  0.37698175  0.75176941  0.12693924  1
  V  V50  1  0.86950717  0.87408128  0.50259066  1
  V  V51  1  0.25248233  0.37531309  0.12501132  1
  V  V52  1  0.87598061  0.87371300  -0.00123821  1
  V  V53  1  0.87784591  0.62944030  0.25213150  1
  V  V54  1  0.36594876  0.24379348  0.62965095  1
  V  V55  1  0.24575958  0.50053789  0.74721579  1
  V  V56  1  0.25148794  0.87970530  0.12407593  1
  V  V57  1  0.74437167  0.64468853  0.37782160  1
  V  V58  1  0.00041531  0.49904581  -0.00496954  1
  V  V59  1  0.87567581  0.49628810  0.87120455  1
  V  V60  1  0.51646210  0.75888405  0.25332909  1
  V  V61  1  0.75280497  -0.00802967  0.24797071  1
  V  V62  1  -0.00383714  0.37590118  0.37705610  1
  V  V63  1  0.37833007  0.74999356  0.62564941  1
  V  V64  1  0.25078426  0.74950179  0.49753917  1
  V  V65  1  0.37840534  0.37247982  -0.00728066  1
  V  V66  1  0.87598946  0.37553146  -0.00415666  1
  V  V67  1  0.61527149  0.11991767  0.50439955  1
  V  V68  1  0.25138686  0.50070632  0.25109727  1
  V  V69  1  0.01101226  0.00319681  -0.00440084  1
  V  V70  1  0.74780150  0.49863998  0.25537778  1
  V  V71  1  0.49246000  0.26290441  0.75523648  1
  V  V72  1  0.87451856  0.25058117  0.12271283  1
  V  V73  1  0.87668858  0.12440355  0.24934014  1
  V  V74  1  0.74593519  0.24845730  0.50199227  1
  V  V75  1  0.62631206  0.50193812  0.12065639  1
  V  V76  1  0.25086403  0.62550065  0.37489745  1
  V  V77  1  0.74929843  0.37434903  0.12432290  1
  V  V78  1  0.37871926  0.62760021  0.25125210  1
  V  V79  1  0.51499602  0.75053535  0.75332829  1
  V  V80  1  0.37768255  0.49855818  0.38092783  1
  V  V81  1  0.38182325  0.25106793  0.13102786  1
  V  V82  1  0.00054719  0.25047118  0.25016585  1
  V  V83  1  0.87021185  0.00496865  0.87528461  1
  V  V84  1  0.37755830  0.87839168  -0.00678595  1
  Zn  Zn85  1  0.12536647  0.62545091  -0.00117669  1
  Zn  Zn86  1  0.49876898  0.00379955  -0.00398412  1
  Zn  Zn87  1  0.12630534  0.62095018  0.50229822  1
  Zn  Zn88  1  0.86975968  0.74576883  0.61617097  1
  Zn  Zn89  1  0.37727659  0.49705789  0.87335728  1
  Zn  Zn90  1  0.87997334  0.00394803  0.37982761  1
  Zn  Zn91  1  0.61988088  0.36808582  0.24735871  1
  Zn  Zn92  1  0.24596287  0.12307232  0.88198892  1
  Zn  Zn93  1  0.24990000  0.62438865  0.87440915  1
  Zn  Zn94  1  0.37782416  0.12704698  0.25456480  1
  Zn  Zn95  1  0.51400579  0.86864890  0.38214790  1
  Zn  Zn96  1  0.24442497  0.24481755  0.50892054  1
  Zn  Zn97  1  0.25230669  0.00278410  0.24944943  1
  Zn  Zn98  1  0.51109073  0.49362371  0.50330985  1
  Zn  Zn99  1  0.87064789  0.37714160  0.50193836  1
  Zn  Zn100  1  0.74285593  0.86697497  0.62596223  1
  Zn  Zn101  1  0.37244981  0.37228090  0.50378557  1
  Zn  Zn102  1  0.01302563  0.00392886  0.50596012  1
  Zn  Zn103  1  0.87281522  0.50318306  0.37774828  1
  Zn  Zn104  1  0.13048202  0.00498940  0.12068870  1
  Zn  Zn105  1  0.37986412  0.00921496  0.85930688  1
  Zn  Zn106  1  0.74570388  0.86978798  0.12625380  1
  Zn  Zn107  1  0.19270128  0.18984227  0.19318871  1
  Zn  Zn108  1  0.17363112  0.17881403  0.72768911  1
  Zn  Zn109  1  0.18910204  0.69082429  0.18753087  1
  Zn  Zn110  1  0.18684573  0.68972259  0.68762752  1
  Zn  Zn111  1  0.68867593  0.18142129  0.18410165  1
  Zn  Zn112  1  0.68419927  0.18318534  0.69094500  1
  Zn  Zn113  1  0.69091755  0.68538351  0.18544783  1
  Zn  Zn114  1  0.69000449  0.68463943  0.68215215  1
  Zn  Zn115  1  0.31033947  0.30921999  0.31448116  1
  Zn  Zn116  1  0.30906028  0.31196147  0.81402840  1
  Zn  Zn117  1  0.31566451  0.81626102  0.31232908  1
  Zn  Zn118  1  0.31743592  0.81655013  0.80962487  1
  Zn  Zn119  1  0.81018671  0.31126090  0.31319834  1
  Zn  Zn120  1  0.80699672  0.31507772  0.81074302  1
  Zn  Zn121  1  0.81969989  0.81425333  0.31152015  1
  Zn  Zn122  1  0.81205288  0.81056252  0.81058455  1
  Zn  Zn123  1  0.18573706  0.43508458  0.44087497  1
  Zn  Zn124  1  0.19179209  0.43871772  0.93768105  1
  Zn  Zn125  1  0.18854874  0.94016465  0.44044388  1
  Zn  Zn126  1  0.18897887  0.93566981  0.92878389  1
  Zn  Zn127  1  0.68169935  0.43512794  0.43844899  1
  Zn  Zn128  1  0.68855350  0.43876078  0.93652306  1
  Zn  Zn129  1  0.68914624  0.93884240  0.43731311  1
  Zn  Zn130  1  0.69177486  0.93744131  0.94000847  1
  Zn  Zn131  1  0.31782969  0.06845978  0.05463875  1
  Zn  Zn132  1  0.30268117  0.05899217  0.56613105  1
  Zn  Zn133  1  0.31695603  0.56326978  0.06235911  1
  Zn  Zn134  1  0.31277581  0.56182429  0.56577431  1
  Zn  Zn135  1  0.81591298  0.06350137  0.06088146  1
  Zn  Zn136  1  0.81455581  0.05796865  0.56402105  1
  Zn  Zn137  1  0.81227290  0.56465963  0.06137572  1
  Zn  Zn138  1  0.81248062  0.56003208  0.56170357  1
  Zn  Zn139  1  0.43905910  0.43753943  0.18871378  1
  Zn  Zn140  1  0.43071539  0.43470596  0.68738216  1
  Zn  Zn141  1  0.43871196  0.94188339  0.18758970  1
  Zn  Zn142  1  0.43596398  0.93433927  0.68875240  1
  Zn  Zn143  1  0.93570764  0.44123198  0.18704974  1
  Zn  Zn144  1  0.93180297  0.43662356  0.68503349  1
  Zn  Zn145  1  0.94181122  0.93822733  0.18678296  1
  Zn  Zn146  1  0.93761330  0.94098582  0.68591757  1
  Zn  Zn147  1  0.06623308  0.05923071  0.31014064  1
  Zn  Zn148  1  0.06823245  0.06112842  0.80622346  1
  Zn  Zn149  1  0.06138736  0.56206922  0.31424341  1
  Zn  Zn150  1  0.06348439  0.56397092  0.81301739  1
  Zn  Zn151  1  0.57997819  0.02849312  0.32645481  1
  Zn  Zn152  1  0.56216181  0.06414306  0.81194203  1
  Zn  Zn153  1  0.56393849  0.56212020  0.31219429  1
  Zn  Zn154  1  0.56180555  0.56403047  0.81236975  1
  Zn  Zn155  1  0.43330327  0.18430929  0.44486479  1
  Zn  Zn156  1  0.43478954  0.18657393  0.93715356  1
  Zn  Zn157  1  0.44380464  0.68798144  0.43780396  1
  Zn  Zn158  1  0.44177976  0.69011775  0.93700073  1
  Zn  Zn159  1  0.93770022  0.18769172  0.44171012  1
  Zn  Zn160  1  0.93891477  0.18503957  0.93732717  1
  Zn  Zn161  1  0.93695243  0.68885552  0.43770606  1
  Zn  Zn162  1  0.93427186  0.68432696  0.93593335  1
  Zn  Zn163  1  0.06095582  0.31807893  0.06271071  1
  Zn  Zn164  1  0.05987602  0.31253382  0.56959011  1
  Zn  Zn165  1  0.06339897  0.81379028  0.05820569  1
  Zn  Zn166  1  0.05748086  0.80996901  0.55486467  1
  Zn  Zn167  1  0.56241859  0.31254978  0.06101543  1
  Zn  Zn168  1  0.55332154  0.30536508  0.55874714  1
  Zn  Zn169  1  0.56165791  0.81490478  0.06175444  1
  Zn  Zn170  1  0.56486688  0.80438053  0.56163051  1
  O  O171  1  0.11239901  0.12576368  0.13452504  1
  O  O172  1  0.11001959  0.13929355  0.63403705  1
  O  O173  1  0.11848833  0.62154280  0.12480182  1
  O  O174  1  0.11152988  0.62805418  0.62390895  1
  O  O175  1  0.62034223  0.12235015  0.11190118  1
  O  O176  1  0.61544154  0.11866887  0.62142303  1
  O  O177  1  0.61812173  0.61511175  0.12827925  1
  O  O178  1  0.61684113  0.62330664  0.61681049  1
  O  O179  1  0.37866610  0.38096601  0.37621136  1
  O  O180  1  0.37325267  0.37590168  0.88899817  1
  O  O181  1  0.37767848  0.88289961  0.38356520  1
  O  O182  1  0.38369782  0.87411369  0.88343409  1
  O  O183  1  0.88686725  0.37277023  0.37548621  1
  O  O184  1  0.86783072  0.38854155  0.87954261  1
  O  O185  1  0.88491784  0.87823083  0.38081982  1
  O  O186  1  0.88375042  0.88258147  0.87891019  1
  O  O187  1  0.25725103  0.00538237  0.37333157  1
  O  O188  1  0.25097236  0.00029300  0.86081462  1
  O  O189  1  0.25551819  0.50400902  0.37031486  1
  O  O190  1  0.25348141  0.50431637  0.86373703  1
  O  O191  1  0.75781153  0.01027982  0.36443936  1
  O  O192  1  0.76226399  -0.00282824  0.86998499  1
  O  O193  1  0.75174510  0.49600108  0.36216763  1
  O  O194  1  0.75551591  0.50654580  0.86875802  1
  O  O195  1  0.24631473  0.49669459  0.13085471  1
  O  O196  1  0.25560195  0.49140250  0.63875526  1
  O  O197  1  0.25071996  0.98916884  0.12037927  1
  O  O198  1  0.25159144  0.97770819  0.63039823  1
  O  O199  1  0.74438301  0.49791101  0.13195690  1
  O  O200  1  0.75426907  0.48864796  0.63318766  1
  O  O201  1  0.74759330  0.99863678  0.12824126  1
  O  O202  1  0.74169572  0.99604782  0.63374767  1
  O  O203  1  0.00267121  0.37189861  0.25646993  1
  O  O204  1  0.00733352  0.37433313  0.74794116  1
  O  O205  1  0.00810832  0.87712030  0.26078103  1
  O  O206  1  -0.00711712  0.86742505  0.75896454  1
  O  O207  1  0.50133176  0.37708689  0.26442276  1
  O  O208  1  0.49934398  0.36175017  0.74738082  1
  O  O209  1  0.49632577  0.85962216  0.24652230  1
  O  O210  1  0.49938295  0.86539992  0.76223623  1
  O  O211  1  0.50238324  0.11899149  0.23712382  1
  O  O212  1  0.50141896  0.13545824  0.74108008  1
  O  O213  1  0.49757756  0.63312925  0.24135451  1
  O  O214  1  0.49338646  0.62927515  0.74427642  1
  O  O215  1  0.99169536  0.12865791  0.24406985  1
  O  O216  1  0.98733693  0.13598207  0.74279472  1
  O  O217  1  0.99045550  0.62004211  0.24135861  1
  O  O218  1  0.99286294  0.62894850  0.74409427  1
  O  O219  1  0.37067345  0.25895463  0.01257890  1
  O  O220  1  0.36963894  0.25185319  0.51634041  1
  O  O221  1  0.37007014  0.75832404  0.00558175  1
  O  O222  1  0.36904585  0.75080464  0.50591414  1
  O  O223  1  0.86784912  0.25436100  0.00080763  1
  O  O224  1  0.86376391  0.25113252  0.50809072  1
  O  O225  1  0.87218343  0.75384525  0.00655846  1
  O  O226  1  0.88037758  0.76811917  0.49802684  1
  O  O227  1  0.12216991  0.25494267  0.48910421  1
  O  O228  1  0.13821349  0.25993831  1.00436726  1
  O  O229  1  0.13361979  0.74596981  0.48936671  1
  O  O230  1  0.13454228  0.74854389  0.99272384  1
  O  O231  1  0.62983617  0.23953422  0.49275600  1
  O  O232  1  0.63022938  0.24685261  0.98982539  1
  O  O233  1  0.62176652  0.73158981  0.49560427  1
  O  O234  1  0.64004223  0.75137008  1.00782420  1
  O  O235  1  0.49393963  0.24235385  0.12280783  1
  O  O236  1  0.49030509  0.24454478  0.63818287  1
  O  O237  1  0.49755902  0.74410528  0.13104245  1
  O  O238  1  0.49379098  0.74040802  0.63285450  1
  O  O239  1  0.99451656  0.24538602  0.12827898  1
  O  O240  1  0.98821346  0.24640306  0.63357524  1
  O  O241  1  0.99560172  0.73725621  0.11727385  1
  O  O242  1  0.99440488  0.74186742  0.63104209  1
  O  O243  1  0.00487640  0.25512544  0.37057204  1
  O  O244  1  -0.00882155  0.25371981  0.86326480  1
  O  O245  1  0.01382380  0.75495755  0.37695399  1
  O  O246  1  0.00448402  0.75610660  0.86956625  1
  O  O247  1  0.50576839  0.25322587  0.38029231  1
  O  O248  1  0.50698954  0.24771112  0.86345387  1
  O  O249  1  0.50014540  0.75065475  0.35815542  1
  O  O250  1  0.49963917  0.76156732  0.86767368  1
  O  O251  1  0.24910561  0.12662461  0.48833715  1
  O  O252  1  0.24115861  0.14029958  1.00810808  1
  O  O253  1  0.24952598  0.63344236  0.49587502  1
  O  O254  1  0.25262771  0.63854885  0.99966649  1
  O  O255  1  0.74509568  0.13416533  0.49870348  1
  O  O256  1  0.74515686  0.13893210  1.00376906  1
  O  O257  1  0.74880413  0.62242637  0.48437446  1
  O  O258  1  0.75761522  0.63361454  0.98852748  1
  O  O259  1  0.25862634  0.37272634  0.00879554  1
  O  O260  1  0.24974910  0.37162027  0.51165018  1
  O  O261  1  0.25613805  0.86642786  0.00264814  1
  O  O262  1  0.25932443  0.86056331  0.50787214  1
  O  O263  1  0.75531150  0.36582224  0.00455417  1
  O  O264  1  0.74855479  0.36297058  0.50410222  1
  O  O265  1  0.75973186  0.86576063  0.00200307  1
  O  O266  1  0.76588188  0.88194829  0.49940112  1
  O  O267  1  0.13054504  0.49537564  0.24571797  1
  O  O268  1  0.12986012  0.49110284  0.75163588  1
  O  O269  1  0.12981466  0.98663568  0.24401373  1
  O  O270  1  0.14233869  0.99059736  0.74771946  1
  O  O271  1  0.63250078  0.49713883  0.23991323  1
  O  O272  1  0.63534269  0.50229862  0.75107250  1
  O  O273  1  0.64473867  1.02003472  0.23187786  1
  O  O274  1  0.63567124  1.00836356  0.74216705  1
  O  O275  1  0.37252579  0.00140689  0.26095886  1
  O  O276  1  0.35271055  -0.02460599  0.75163919  1
  O  O277  1  0.37160015  0.50695186  0.25965732  1
  O  O278  1  0.36855754  0.50833784  0.75349832  1
  O  O279  1  0.87132482  0.00988456  0.24785293  1
  O  O280  1  0.87044051  0.00853841  0.75647784  1
  O  O281  1  0.86573163  0.51265718  0.24884611  1
  O  O282  1  0.86831913  0.50544852  0.75623745  1
  O  O283  1  0.11354006  0.36902256  0.37079121  1
  O  O284  1  0.12213054  0.38047003  0.86511521  1
  O  O285  1  0.12217992  0.86814470  0.36633293  1
  O  O286  1  0.11489791  0.86148854  0.87821204  1
  O  O287  1  0.61629224  0.36109541  0.37314755  1
  O  O288  1  0.62256362  0.36229734  0.87883525  1
  O  O289  1  0.61127867  0.92007122  0.36217614  1
  O  O290  1  0.61339221  0.87698497  0.87998514  1
  O  O291  1  0.38616211  0.13304872  0.12539035  1
  O  O292  1  0.38253249  0.13101831  0.61838047  1
  O  O293  1  0.38362505  0.63108197  0.13195886  1
  O  O294  1  0.37991043  0.63319781  0.63309142  1
  O  O295  1  0.88501398  0.13164866  0.13028256  1
  O  O296  1  0.87431086  0.13695358  0.63208995  1
  O  O297  1  0.88144703  0.63248409  0.13054349  1
  O  O298  1  0.88143679  0.62332109  0.63608947  1
  O  O299  1  0.25602651  0.25774548  0.11866410  1
  O  O300  1  0.25469290  0.25481094  0.63343005  1
  O  O301  1  0.25460094  0.76028787  0.11649243  1
  O  O302  1  0.25730133  0.75212515  0.61701413  1
  O  O303  1  0.75529502  0.25422140  0.11681379  1
  O  O304  1  0.75116169  0.25348095  0.62012098  1
  O  O305  1  0.76101805  0.74873914  0.11733061  1
  O  O306  1  0.75871162  0.75578724  0.63406273  1
  O  O307  1  0.23902130  0.24354228  0.37833443  1
  O  O308  1  0.25382744  0.25327821  0.89583752  1
  O  O309  1  0.24478679  0.74690822  0.38080298  1
  O  O310  1  0.24318063  0.75149245  0.87995964  1
  O  O311  1  0.74263255  0.24466102  0.38354605  1
  O  O312  1  0.73566949  0.25289009  0.87965404  1
  O  O313  1  0.74915182  0.74275804  0.36966995  1
  O  O314  1  0.75698364  0.73995332  0.88315017  1
  O  O315  1  -0.00180114  0.11684838  0.00738983  1
  O  O316  1  -0.00280578  0.12785355  0.51827293  1
  O  O317  1  -0.00085413  0.61456203  0.00773764  1
  O  O318  1  -0.00151941  0.61822881  0.50808161  1
  O  O319  1  0.50939197  0.12408776  0.00691012  1
  O  O320  1  0.50987998  0.13220489  0.51579209  1
  O  O321  1  0.49379172  0.61897861  0.01399828  1
  O  O322  1  0.50658358  0.62179731  0.50882190  1
  O  O323  1  0.49458615  0.37664525  0.48840808  1
  O  O324  1  0.49030436  0.38618020  1.00872134  1
  O  O325  1  0.48647581  0.86339984  0.49842787  1
  O  O326  1  0.49428142  0.87460639  0.98856126  1
  O  O327  1  0.99756663  0.37997727  0.49414702  1
  O  O328  1  0.99190070  0.39060891  1.00640950  1
  O  O329  1  0.99355063  0.87570166  0.48662748  1
  O  O330  1  0.99526752  0.88228585  0.98901097  1
  O  O331  1  0.49152798  0.49329182  0.37490815  1
  O  O332  1  0.49954311  0.50733392  0.89089345  1
  O  O333  1  0.48095319  1.01141630  0.38174859  1
  O  O334  1  0.49843572  0.98793180  0.87364777  1
  O  O335  1  0.99535280  0.49122003  0.37920377  1
  O  O336  1  0.99014908  0.50697831  0.88399450  1
  O  O337  1  1.00024452  0.99252210  0.37662435  1
  O  O338  1  0.99619377  0.99450917  0.87603973  1
  O  O339  1  0.00184302  0.00831414  0.11343051  1
  O  O340  1  -0.00217269  0.02141510  0.63178372  1
  O  O341  1  0.00413225  0.51082716  0.11961698  1
  O  O342  1  -0.00578181  0.50697104  0.61675136  1
  O  O343  1  0.51032974  0.00745489  0.12086775  1
  O  O344  1  0.50647642  0.00728014  0.63435478  1
  O  O345  1  0.50767188  0.50770987  0.12097716  1
  O  O346  1  0.48998694  0.51116552  0.62369135  1
  O  O347  1  0.24488682  0.38123001  0.24543469  1
  O  O348  1  0.23813816  0.38139713  0.74907734  1
  O  O349  1  0.24509525  0.87548946  0.23849548  1
  O  O350  1  0.24486024  0.86171632  0.73315384  1
  O  O351  1  0.74982200  0.38222004  0.24267109  1
  O  O352  1  0.74828950  0.38377170  0.74003410  1
  O  O353  1  0.75892229  0.88810147  0.24566262  1
  O  O354  1  0.75758916  0.88982774  0.74907955  1
  O  O355  1  0.25369021  0.12297316  0.26320142  1
  O  O356  1  0.26080581  0.10364589  0.72730102  1
  O  O357  1  0.25749981  0.62068126  0.25448933  1
  O  O358  1  0.25670563  0.61897234  0.74842368  1
  O  O359  1  0.76486933  0.12247971  0.25157426  1
  O  O360  1  0.76237594  0.11662082  0.74663225  1
  O  O361  1  0.75515859  0.61931561  0.26024428  1
  O  O362  1  0.75699005  0.61750422  0.75602562  1
  O  O363  1  0.36518365  0.12013097  0.37638586  1
  O  O364  1  0.36152897  0.11610963  0.89331246  1
  O  O365  1  0.37131805  0.61838103  0.37114159  1
  O  O366  1  0.37462574  0.62777164  0.86239368  1
  O  O367  1  0.87112934  0.12765404  0.36631211  1
  O  O368  1  0.87943281  0.11466399  0.86683462  1
  O  O369  1  0.86499547  0.62663212  0.36794523  1
  O  O370  1  0.87022476  0.61477473  0.86422523  1
  O  O371  1  0.13059397  0.38361503  0.13220381  1
  O  O372  1  0.13567609  0.37476345  0.63188706  1
  O  O373  1  0.13244422  0.87452357  0.12955601  1
  O  O374  1  0.13438426  0.85996528  0.62313814  1
  O  O375  1  0.63161614  0.38022915  0.12824531  1
  O  O376  1  0.63197355  0.36804246  0.61717609  1
  O  O377  1  0.62698709  0.89173944  0.11911965  1
  O  O378  1  0.62201559  0.88760779  0.61751098  1
  O  O379  1  0.11775407  0.25824951  0.25710953  1
  O  O380  1  0.11049824  0.27274620  0.74642638  1
  O  O381  1  0.13102196  0.76270332  0.25654344  1
  O  O382  1  0.11012607  0.74434553  0.75668035  1
  O  O383  1  0.63245188  0.24485623  0.26383101  1
  O  O384  1  0.61640218  0.24697553  0.76220174  1
  O  O385  1  0.61515447  0.75118601  0.24269753  1
  O  O386  1  0.61357369  0.74261675  0.74853367  1
  O  O387  1  0.37012143  0.24954289  0.23565664  1
  O  O388  1  0.38458830  0.25252734  0.74781016  1
  O  O389  1  0.37830340  0.74361829  0.24350618  1
  O  O390  1  0.38167496  0.74299443  0.74194538  1
  O  O391  1  0.88070622  0.24437269  0.24398311  1
  O  O392  1  0.87615341  0.24593607  0.74565193  1
  O  O393  1  0.87161775  0.73822384  0.23976224  1
  O  O394  1  0.88708956  0.73929604  0.75405720  1
  O  O395  1  0.37389696  0.49944523  0.48803287  1
  O  O396  1  0.38331284  0.49206502  1.00026667  1
  O  O397  1  0.36535715  0.98651419  0.49489798  1
  O  O398  1  0.37775999  0.98514091  1.00259900  1
  O  O399  1  0.88517090  0.49617240  0.49609692  1
  O  O400  1  0.88011829  0.49712575  0.99239469  1
  O  O401  1  0.88531288  0.99043866  0.49941851  1
  O  O402  1  0.88359801  0.99585187  0.99162347  1
  O  O403  1  0.11449587  -0.00479754  -0.00201296  1
  O  O404  1  0.12336230  -0.01250505  0.51209390  1
  O  O405  1  0.11854477  0.50256263  0.00558604  1
  O  O406  1  0.10894799  0.50354031  0.49253336  1
  O  O407  1  0.62814094  0.01075476  0.00453050  1
  O  O408  1  0.63399403  0.01406395  0.51286402  1
  O  O409  1  0.61907093  0.49370304  0.01246994  1
  O  O410  1  0.62393075  0.51677946  0.49072755  1
  O  O411  1  0.37076374  0.37067921  0.12087905  1
  O  O412  1  0.36125873  0.36453977  0.62761793  1
  O  O413  1  0.36948735  0.87024126  0.11859283  1
  O  O414  1  0.37325362  0.86028826  0.61841605  1
  O  O415  1  0.86983575  0.37037938  0.11831458  1
  O  O416  1  0.86521024  0.36125079  0.62451056  1
  O  O417  1  0.88069323  0.86242519  0.12047156  1
  O  O418  1  0.87996486  0.87525891  0.61037852  1
  O  O419  1  0.13025397  0.13502821  0.36864147  1
  O  O420  1  0.14275760  0.13870886  0.83564977  1
  O  O421  1  0.13293302  0.63297360  0.37247426  1
  O  O422  1  0.12657161  0.63811903  0.87807516  1
  O  O423  1  0.62984126  0.12570001  0.38490370  1
  O  O424  1  0.62083645  0.13502500  0.88593433  1
  O  O425  1  0.64059241  0.62393073  0.37491959  1
  O  O426  1  0.63780307  0.62292992  0.87571362  1
