# generated using pymatgen
data_V85Zn86O256
_symmetry_space_group_name_H-M   'P 1'
_cell_length_a   16.95552193
_cell_length_b   16.95866113
_cell_length_c   16.94606370
_cell_angle_alpha   90.01113706
_cell_angle_beta   89.92437187
_cell_angle_gamma   89.98099278
_symmetry_Int_Tables_number   1
_chemical_formula_structural   V85Zn86O256
_chemical_formula_sum   'V85 Zn86 O256'
_cell_volume   4872.71655414
_cell_formula_units_Z   1
loop_
 _symmetry_equiv_pos_site_id
 _symmetry_equiv_pos_as_xyz
  1  'x, y, z'
loop_
 _atom_site_type_symbol
 _atom_site_label
 _atom_site_symmetry_multiplicity
 _atom_site_fract_x
 _atom_site_fract_y
 _atom_site_fract_z
 _atom_site_occupancy
  V  V0  1  0.88359619  0.87896294  0.00068457  1
  V  V1  1  0.07789367  0.19172064  0.93197332  1
  V  V2  1  0.25669735  0.50013115  0.24924719  1
  V  V3  1  0.00047867  0.50058889  0.49991344  1
  V  V4  1  0.61810151  0.49771832  0.61735367  1
  V  V5  1  0.12410968  0.25559921  0.37261571  1
  V  V6  1  0.62395288  0.24956667  0.87712373  1
  V  V7  1  0.25131421  0.37585163  0.62542323  1
  V  V8  1  0.75115766  0.75335515  0.00097563  1
  V  V9  1  0.49320664  0.87916000  0.87650528  1
  V  V10  1  0.13044519  0.49558131  0.12411480  1
  V  V11  1  0.49674540  0.74262170  0.75053665  1
  V  V12  1  0.37308500  -0.00349032  0.37373277  1
  V  V13  1  0.88130511  0.00033594  0.87613963  1
  V  V14  1  0.87501939  -0.00347414  0.37126216  1
  V  V15  1  0.51201961  0.87331225  0.36868628  1
  V  V16  1  0.87501728  0.62418633  0.25472029  1
  V  V17  1  0.49512208  0.62209498  0.62245042  1
  V  V18  1  0.61788034  0.62233391  -0.00081148  1
  V  V19  1  0.26011577  -0.00087582  0.75042474  1
  V  V20  1  0.25816704  0.62835722  0.87388709  1
  V  V21  1  0.12758952  0.75172294  0.87360151  1
  V  V22  1  0.36776270  0.87583148  0.00392856  1
  V  V23  1  0.00098930  0.75782013  0.74837626  1
  V  V24  1  0.90757226  0.59259872  0.77233315  1
  V  V25  1  0.87937668  0.12433572  0.74099441  1
  V  V26  1  0.25066425  0.25232505  0.49971705  1
  V  V27  1  0.00027894  0.24886126  0.24713934  1
  V  V28  1  0.87620282  0.37468542  0.50092216  1
  V  V29  1  -0.00058264  0.61785910  0.12134412  1
  V  V30  1  0.75094031  0.74145890  0.49552222  1
  V  V31  1  0.62362426  0.75050453  0.87590443  1
  V  V32  1  0.11548389  -0.00669747  0.10293134  1
  V  V33  1  0.61803592  0.49946632  0.12139351  1
  V  V34  1  0.12869350  0.49784319  0.62455769  1
  V  V35  1  0.12780096  0.00771173  0.62335686  1
  V  V36  1  0.74939242  0.37735191  0.12639420  1
  V  V37  1  0.62426675  0.62394881  0.49296595  1
  V  V38  1  0.13270647  0.87436122  0.73700716  1
  V  V39  1  0.74890816  0.50395420  0.25412991  1
  V  V40  1  0.39025949  0.50449530  0.37344419  1
  V  V41  1  0.36752591  0.75137023  0.62959970  1
  V  V42  1  0.86678473  0.87659973  0.50002489  1
  V  V43  1  0.75231242  0.62229081  0.87229285  1
  V  V44  1  0.88233454  0.38972367  -0.01319177  1
  V  V45  1  0.75145433  0.12150463  0.36416915  1
  V  V46  1  0.74513856  0.50149531  0.75112715  1
  V  V47  1  0.49856272  0.37619699  0.88433477  1
  V  V48  1  0.25966171  0.50152978  0.74964920  1
  V  V49  1  0.49676752  0.00140329  0.00055085  1
  V  V50  1  0.87964567  0.75090879  0.12664850  1
  V  V51  1  0.12234542  0.62187080  -0.00149101  1
  V  V52  1  0.25361949  0.24047983  0.00221222  1
  V  V53  1  0.75061107  0.00042430  0.75209553  1
  V  V54  1  0.00372034  0.62813910  0.62245215  1
  V  V55  1  0.23323783  -0.01309767  0.24553116  1
  V  V56  1  0.02433747  -0.03661756  0.48515695  1
  V  V57  1  0.74810692  0.87025128  0.62876073  1
  V  V58  1  0.62335603  0.87488531  0.75230604  1
  V  V59  1  0.10850046  0.13461750  0.50633359  1
  V  V60  1  0.87226172  0.50157594  0.37545769  1
  V  V61  1  0.36864405  0.12489353  0.24873993  1
  V  V62  1  0.62977314  0.11945309  0.49881863  1
  V  V63  1  0.62537958  -0.00022306  0.62592013  1
  V  V64  1  0.12558511  0.37194414  0.76627914  1
  V  V65  1  0.01384300  0.75588828  0.26424786  1
  V  V66  1  0.13118899  0.62329953  0.48870039  1
  V  V67  1  0.87533309  0.24894381  0.12543191  1
  V  V68  1  0.00799818  0.24802567  0.74142181  1
  V  V69  1  0.24726017  0.12573962  0.37661100  1
  V  V70  1  0.25144723  0.75447207  0.49132788  1
  V  V71  1  0.49720303  0.62749084  0.13250946  1
  V  V72  1  0.63006476  -0.00633976  0.13540505  1
  V  V73  1  0.49894801  0.12766197  0.12819827  1
  V  V74  1  0.36848236  0.75083644  0.13370508  1
  V  V75  1  0.37589935  0.24930103  0.62601031  1
  V  V76  1  0.62100052  0.25499348  0.37403375  1
  V  V77  1  0.49851070  0.24955938  0.75203096  1
  V  V78  1  0.87507551  0.74710329  0.63053845  1
  V  V79  1  0.75248633  0.37361841  0.62692145  1
  V  V80  1  0.38937541  0.37744701  0.49203933  1
  V  V81  1  0.36703336  0.38242335  0.00889022  1
  V  V82  1  0.38177475  0.50362091  0.87638592  1
  V  V83  1  0.49910992  0.00006856  0.50088398  1
  V  V84  1  0.74638837  0.25213058  0.00045543  1
  Zn  Zn85  1  0.24735617  0.75452166  0.00583972  1
  Zn  Zn86  1  0.50088276  0.12474867  0.62626251  1
  Zn  Zn87  1  0.00628995  0.87960317  0.87880041  1
  Zn  Zn88  1  0.12990776  0.37320383  0.24181875  1
  Zn  Zn89  1  0.00353502  0.12143502  0.11110580  1
  Zn  Zn90  1  0.64241719  0.74893761  0.36114779  1
  Zn  Zn91  1  0.37767652  0.12165045  0.75667375  1
  Zn  Zn92  1  0.87945378  0.24555312  0.62204569  1
  Zn  Zn93  1  0.62331692  0.37429263  0.74993730  1
  Zn  Zn94  1  0.62421512  0.12385668  0.00319068  1
  Zn  Zn95  1  0.75241329  0.24698431  0.50002290  1
  Zn  Zn96  1  0.75198334  0.87714507  0.13941623  1
  Zn  Zn97  1  0.25781079  0.62620341  0.36919520  1
  Zn  Zn98  1  0.25566279  0.12314199  0.87785051  1
  Zn  Zn99  1  0.87521032  0.11441634  0.24227210  1
  Zn  Zn100  1  0.50476397  0.75317503  0.24900581  1
  Zn  Zn101  1  0.61936159  0.37959844  0.25708205  1
  Zn  Zn102  1  0.36558648  0.25895119  0.13301314  1
  Zn  Zn103  1  0.49108494  0.25669035  0.25786827  1
  Zn  Zn104  1  -0.00145238  0.37779852  0.36908685  1
  Zn  Zn105  1  0.74677675  0.12323860  0.87420063  1
  Zn  Zn106  1  0.37496093  0.87611665  0.50353747  1
  Zn  Zn107  1  0.18402237  0.18012575  0.18025127  1
  Zn  Zn108  1  0.18958499  0.18676386  0.69001568  1
  Zn  Zn109  1  0.18879440  0.68188838  0.19046427  1
  Zn  Zn110  1  0.18894647  0.68350683  0.68728758  1
  Zn  Zn111  1  0.68531457  0.18575638  0.18829962  1
  Zn  Zn112  1  0.68814620  0.18738376  0.68855230  1
  Zn  Zn113  1  0.68919735  0.68972200  0.18694608  1
  Zn  Zn114  1  0.68319207  0.68434592  0.68615751  1
  Zn  Zn115  1  0.30968581  0.31798394  0.31163165  1
  Zn  Zn116  1  0.31051938  0.30963041  0.81932364  1
  Zn  Zn117  1  0.31658571  0.81457353  0.31281504  1
  Zn  Zn118  1  0.31315510  0.81577877  0.81107182  1
  Zn  Zn119  1  0.80813080  0.31222715  0.31278352  1
  Zn  Zn120  1  0.81382663  0.31170472  0.81027516  1
  Zn  Zn121  1  0.82409329  0.81008780  0.31440997  1
  Zn  Zn122  1  0.81531761  0.81194335  0.81423585  1
  Zn  Zn123  1  0.19431522  0.43797173  0.43392241  1
  Zn  Zn124  1  0.19345040  0.44060126  0.94136916  1
  Zn  Zn125  1  0.19298411  0.93870367  0.44040019  1
  Zn  Zn126  1  0.18876905  0.93700218  0.92891093  1
  Zn  Zn127  1  0.68948574  0.43840806  0.44001579  1
  Zn  Zn128  1  0.68972229  0.43715868  0.93838892  1
  Zn  Zn129  1  0.69193061  0.93731941  0.31219508  1
  Zn  Zn130  1  0.68635352  0.93806813  0.94156849  1
  Zn  Zn131  1  0.30850992  0.05746749  0.06868440  1
  Zn  Zn132  1  0.30896547  0.06557756  0.56446135  1
  Zn  Zn133  1  0.31158508  0.56669160  0.06273999  1
  Zn  Zn134  1  0.31805291  0.56258831  0.55755126  1
  Zn  Zn135  1  0.81171071  0.06416851  0.06051631  1
  Zn  Zn136  1  0.81188889  0.05829454  0.55915376  1
  Zn  Zn137  1  0.80887152  0.56426887  0.06350068  1
  Zn  Zn138  1  0.81408617  0.56132647  0.57042640  1
  Zn  Zn139  1  0.44184288  0.43940030  0.19183544  1
  Zn  Zn140  1  0.43862358  0.43306540  0.68889737  1
  Zn  Zn141  1  0.43447707  0.93905281  0.18709138  1
  Zn  Zn142  1  0.43945576  0.93123735  0.68474510  1
  Zn  Zn143  1  0.93823355  0.43544496  0.18371778  1
  Zn  Zn144  1  0.94297683  0.43635139  0.69792655  1
  Zn  Zn145  1  0.94788966  0.93366383  0.18631102  1
  Zn  Zn146  1  0.94212119  0.94111499  0.67779172  1
  Zn  Zn147  1  0.05896668  0.06822228  0.31523235  1
  Zn  Zn148  1  0.06105041  0.05938986  0.80570287  1
  Zn  Zn149  1  0.06130125  0.56171674  0.30798183  1
  Zn  Zn150  1  0.07588341  0.56148043  0.81050205  1
  Zn  Zn151  1  0.55797702  0.06759048  0.31320314  1
  Zn  Zn152  1  0.55924615  0.06449625  0.81569358  1
  Zn  Zn153  1  0.56394737  0.56519710  0.31032726  1
  Zn  Zn154  1  0.56310734  0.56187916  0.81080350  1
  Zn  Zn155  1  0.43766080  0.18480163  0.43846884  1
  Zn  Zn156  1  0.43163467  0.18624002  0.94038347  1
  Zn  Zn157  1  0.43983133  0.68847873  0.44049494  1
  Zn  Zn158  1  0.43596699  0.69086611  0.94293495  1
  Zn  Zn159  1  0.93403215  0.19017113  0.43225697  1
  Zn  Zn160  1  0.91712862  0.19530809  0.92963465  1
  Zn  Zn161  1  0.93566609  0.68745089  0.43755291  1
  Zn  Zn162  1  0.94136079  0.69024599  0.93804952  1
  Zn  Zn163  1  0.05716198  0.31850638  0.06172026  1
  Zn  Zn164  1  0.06223683  0.31592089  0.56567649  1
  Zn  Zn165  1  0.06560872  0.81109132  0.06814780  1
  Zn  Zn166  1  0.07055436  0.81335592  0.55109243  1
  Zn  Zn167  1  0.55729464  0.31369288  0.06728630  1
  Zn  Zn168  1  0.56570367  0.30843097  0.56154844  1
  Zn  Zn169  1  0.56068708  0.81335321  0.06470191  1
  Zn  Zn170  1  0.56283931  0.81083842  0.55894853  1
  O  O171  1  0.11830388  0.10292450  0.13051187  1
  O  O172  1  0.12685124  0.12059308  0.61768591  1
  O  O173  1  0.11847850  0.61926411  0.11660278  1
  O  O174  1  0.11845541  0.61797934  0.61884854  1
  O  O175  1  0.61649334  0.11654244  0.12537145  1
  O  O176  1  0.62462693  0.11999153  0.61683325  1
  O  O177  1  0.62046681  0.61866742  0.11643559  1
  O  O178  1  0.61476736  0.61646644  0.61939934  1
  O  O179  1  0.37427685  0.38058707  0.38691433  1
  O  O180  1  0.38069324  0.38256870  0.88417198  1
  O  O181  1  0.38186993  0.88749908  0.37953295  1
  O  O182  1  0.38778588  0.86943128  0.88307924  1
  O  O183  1  0.87379254  0.38133538  0.38388272  1
  O  O184  1  0.86907172  0.37331773  0.88794021  1
  O  O185  1  0.87355057  0.88289425  0.38872443  1
  O  O186  1  0.87723919  0.88222584  0.88209615  1
  O  O187  1  0.25672480  0.00548322  0.37292064  1
  O  O188  1  0.24807534  0.00130025  0.85411008  1
  O  O189  1  0.26056206  0.50237572  0.36574026  1
  O  O190  1  0.26218222  0.50685055  0.86909959  1
  O  O191  1  0.76046851  0.00926564  0.37360210  1
  O  O192  1  0.75656957  -0.00132559  0.86780632  1
  O  O193  1  0.75322416  0.49609633  0.36125443  1
  O  O194  1  0.74254111  0.51191403  0.86589145  1
  O  O195  1  0.24434664  0.50738985  0.13581347  1
  O  O196  1  0.25180042  0.49745121  0.63211748  1
  O  O197  1  0.23488921  1.00062676  0.13950139  1
  O  O198  1  0.23788847  1.00191812  0.63079912  1
  O  O199  1  0.74280839  0.49417519  0.13326847  1
  O  O200  1  0.73867511  0.49027427  0.62898588  1
  O  O201  1  0.73331877  1.00054847  0.11992661  1
  O  O202  1  0.74327703  0.99105017  0.63167910  1
  O  O203  1  0.00394157  0.36350820  0.24817144  1
  O  O204  1  0.01404083  0.36281245  0.74898929  1
  O  O205  1  -0.00233402  0.85413838  0.24960199  1
  O  O206  1  0.00798467  0.86739981  0.74526176  1
  O  O207  1  0.50978214  0.36581778  0.23793877  1
  O  O208  1  0.50061566  0.36448877  0.76244587  1
  O  O209  1  0.49644303  0.87970361  0.26642392  1
  O  O210  1  0.50367755  0.86672406  0.75814599  1
  O  O211  1  0.48733367  0.12793512  0.24544219  1
  O  O212  1  0.49923576  0.13744573  0.74797354  1
  O  O213  1  0.49966614  0.62458953  0.23532716  1
  O  O214  1  0.50566297  0.63740617  0.74345862  1
  O  O215  1  0.99434263  0.14019336  0.25178766  1
  O  O216  1  0.99164491  0.13301454  0.75121149  1
  O  O217  1  0.99187416  0.62983951  0.24115253  1
  O  O218  1  1.00950186  0.64271100  0.74071976  1
  O  O219  1  0.36566494  0.26097527  0.00636511  1
  O  O220  1  0.37219724  0.25850431  0.50370861  1
  O  O221  1  0.37275604  0.75986921  0.01012439  1
  O  O222  1  0.36544112  0.74812228  0.51026376  1
  O  O223  1  0.86515596  0.25936301  0.00989535  1
  O  O224  1  0.87289452  0.26031618  0.50267475  1
  O  O225  1  0.86941493  0.75478235  0.00569097  1
  O  O226  1  0.86749786  0.74797308  0.51129211  1
  O  O227  1  0.13049043  0.25062828  0.49492528  1
  O  O228  1  0.13171852  0.25330970  0.99789540  1
  O  O229  1  0.14573806  0.73701405  0.50976859  1
  O  O230  1  0.12816378  0.74181315  0.99511928  1
  O  O231  1  0.62633892  0.23691181  0.49220855  1
  O  O232  1  0.62987679  0.25083863  0.99506960  1
  O  O233  1  0.63514247  0.74137958  0.49968532  1
  O  O234  1  0.63317983  0.74534091  0.99681144  1
  O  O235  1  0.49500081  0.23474835  0.12439088  1
  O  O236  1  0.49476917  0.25119353  0.63502787  1
  O  O237  1  0.49212039  0.74346630  0.12507680  1
  O  O238  1  0.49386309  0.74294569  0.63173273  1
  O  O239  1  0.99206604  0.24754062  0.12907619  1
  O  O240  1  0.99844459  0.25176915  0.63704790  1
  O  O241  1  0.99065028  0.73923571  0.12712176  1
  O  O242  1  0.99820117  0.74390912  0.62779875  1
  O  O243  1  0.00625560  0.25527139  0.36653900  1
  O  O244  1  0.01199126  0.24220413  0.87036608  1
  O  O245  1  0.00030136  0.74320185  0.36382077  1
  O  O246  1  0.00902026  0.75254425  0.86384781  1
  O  O247  1  0.51678741  0.24111893  0.37622632  1
  O  O248  1  0.50474703  0.25708060  0.87209425  1
  O  O249  1  0.49614956  0.76766702  0.37685434  1
  O  O250  1  0.50355075  0.75448115  0.86809418  1
  O  O251  1  0.24510385  0.13598308  0.49383616  1
  O  O252  1  0.25658790  0.13557740  1.00080097  1
  O  O253  1  0.24583645  0.63039231  0.49643400  1
  O  O254  1  0.24416411  0.62911407  0.98733719  1
  O  O255  1  0.74291203  0.12459314  0.49185440  1
  O  O256  1  0.74821532  0.14056745  0.99783801  1
  O  O257  1  0.74065349  0.63223401  0.51442684  1
  O  O258  1  0.74433791  0.63534635  0.99240249  1
  O  O259  1  0.26363411  0.36884261  -0.00183571  1
  O  O260  1  0.25849433  0.36928843  0.50673500  1
  O  O261  1  0.26471462  0.87578280  -0.00817746  1
  O  O262  1  0.25552076  0.85829899  0.49841889  1
  O  O263  1  0.75426684  0.36633541  0.00650039  1
  O  O264  1  0.76126570  0.37581454  0.50863059  1
  O  O265  1  0.75671053  0.86213398  0.00005921  1
  O  O266  1  0.75761527  0.85971334  0.51334462  1
  O  O267  1  0.13369071  0.49855054  0.24194217  1
  O  O268  1  0.14103095  0.49226457  0.74308097  1
  O  O269  1  0.13426036  0.99847567  0.26444048  1
  O  O270  1  0.13054600  0.99349506  0.74003361  1
  O  O271  1  0.63348358  0.50155539  0.24168537  1
  O  O272  1  0.63125334  0.49765587  0.73983925  1
  O  O273  1  0.62306768  1.00313112  0.23992559  1
  O  O274  1  0.62793568  0.99479505  0.74661419  1
  O  O275  1  0.36425625  0.00526365  0.25670107  1
  O  O276  1  0.36292764  -0.00065525  0.73637410  1
  O  O277  1  0.36880074  0.49469530  0.26286533  1
  O  O278  1  0.36613762  0.49365102  0.75796486  1
  O  O279  1  0.89114158  -0.00180710  0.26692320  1
  O  O280  1  0.87174844  0.00464473  0.75271053  1
  O  O281  1  0.86964553  0.50445507  0.25320050  1
  O  O282  1  0.85104472  0.50322258  0.73193441  1
  O  O283  1  0.12413580  0.36380097  0.37582244  1
  O  O284  1  0.12868742  0.38616892  0.86477174  1
  O  O285  1  0.09299829  0.88790755  0.45036161  1
  O  O286  1  0.12390779  0.86863834  0.86070777  1
  O  O287  1  0.63162259  0.35803376  0.37970830  1
  O  O288  1  0.61648554  0.36686071  0.87715405  1
  O  O289  1  0.61416158  0.87407370  0.37686220  1
  O  O290  1  0.61519660  0.86834984  0.87352755  1
  O  O291  1  0.37860797  0.12209713  0.13835301  1
  O  O292  1  0.37800961  0.14014795  0.62485352  1
  O  O293  1  0.38560901  0.63939977  0.11408194  1
  O  O294  1  0.38740130  0.63309285  0.62073343  1
  O  O295  1  0.87974128  0.13358019  0.12343960  1
  O  O296  1  0.86780414  0.12451471  0.63662990  1
  O  O297  1  0.88221445  0.62995343  0.12880639  1
  O  O298  1  0.89209083  0.62442088  0.63916528  1
  O  O299  1  0.24730246  0.24893443  0.11050998  1
  O  O300  1  0.25892476  0.25536915  0.62077285  1
  O  O301  1  0.26465252  0.74308223  0.12534634  1
  O  O302  1  0.26491372  0.74005708  0.62062049  1
  O  O303  1  0.75337499  0.25686719  0.12059037  1
  O  O304  1  0.75019280  0.26352936  0.62466173  1
  O  O305  1  0.76390283  0.74775372  0.11586273  1
  O  O306  1  0.75608270  0.75178676  0.62562581  1
  O  O307  1  0.24225222  0.24638527  0.37881529  1
  O  O308  1  0.24814314  0.24930248  0.89412074  1
  O  O309  1  0.25999077  0.74519172  0.38727480  1
  O  O310  1  0.24608819  0.74287065  0.87301468  1
  O  O311  1  0.74161024  0.24044667  0.37862980  1
  O  O312  1  0.74032005  0.25165053  0.88215731  1
  O  O313  1  0.75673059  0.74782491  0.39209280  1
  O  O314  1  0.74496056  0.74162234  0.87964343  1
  O  O315  1  0.00824191  0.14267225  -0.01106250  1
  O  O316  1  0.00901701  0.13811035  0.50265891  1
  O  O317  1  0.00951497  0.62761488  0.00651518  1
  O  O318  1  0.00785780  0.62167710  0.50660722  1
  O  O319  1  0.49856512  0.11713156  0.00940938  1
  O  O320  1  0.50596714  0.11349766  0.50075183  1
  O  O321  1  0.51427675  0.63052383  0.00501337  1
  O  O322  1  0.51064203  0.63075217  0.51172362  1
  O  O323  1  0.48733038  0.37084402  0.50349175  1
  O  O324  1  0.48734687  0.37014384  0.99009559  1
  O  O325  1  0.50025657  0.88639509  0.49165040  1
  O  O326  1  0.49348703  0.88074486  0.99387179  1
  O  O327  1  0.98891909  0.38195163  0.50147452  1
  O  O328  1  0.98144014  0.37755094  1.00164449  1
  O  O329  1  0.97143775  0.86730298  0.52008874  1
  O  O330  1  0.98619259  0.86524880  0.99757473  1
  O  O331  1  0.48914510  0.49731766  0.36839293  1
  O  O332  1  0.48989460  0.49288833  0.86852667  1
  O  O333  1  0.49418260  0.99333472  0.38103290  1
  O  O334  1  0.50463344  0.99043246  0.88595657  1
  O  O335  1  0.99333774  0.49775379  0.38192560  1
  O  O336  1  0.97320389  0.51568248  0.80649910  1
  O  O337  1  0.99417918  1.00939076  0.39456581  1
  O  O338  1  0.98561988  0.99701823  0.86836973  1
  O  O339  1  0.00854678  0.00292690  0.11902661  1
  O  O340  1  0.01856479  -0.00914631  0.60262890  1
  O  O341  1  0.00820215  0.51252396  0.13109993  1
  O  O342  1  0.00705480  0.50770969  0.62061113  1
  O  O343  1  0.50817020  0.00824214  0.12301086  1
  O  O344  1  0.50577553  -0.00002678  0.61780981  1
  O  O345  1  0.51207548  0.50799802  0.12457402  1
  O  O346  1  0.50687008  0.50750717  0.63301160  1
  O  O347  1  0.24624879  0.39165982  0.25127932  1
  O  O348  1  0.24690868  0.37997181  0.74553784  1
  O  O349  1  0.24947198  0.88960700  0.25878697  1
  O  O350  1  0.24531351  0.88624481  0.74859349  1
  O  O351  1  0.74466572  0.38230758  0.24128912  1
  O  O352  1  0.74586100  0.38157002  0.74430377  1
  O  O353  1  0.75229553  0.86695438  0.25158534  1
  O  O354  1  0.74287485  0.87889611  0.74814998  1
  O  O355  1  0.25376707  0.11678087  0.25775836  1
  O  O356  1  0.25251703  0.11102896  0.74819669  1
  O  O357  1  0.24920961  0.60837109  0.25424185  1
  O  O358  1  0.24581181  0.61476571  0.76305554  1
  O  O359  1  0.75585127  0.12830652  0.25982349  1
  O  O360  1  0.75521654  0.11683008  0.75208917  1
  O  O361  1  0.76407215  0.61550773  0.24062992  1
  O  O362  1  0.74658578  0.61818601  0.75881899  1
  O  O363  1  0.37123823  0.11516245  0.36794806  1
  O  O364  1  0.37078423  0.12874388  0.86924657  1
  O  O365  1  0.37919828  0.60801610  0.38359237  1
  O  O366  1  0.37066786  0.61675371  0.88134860  1
  O  O367  1  0.86596482  0.11725840  0.37541419  1
  O  O368  1  0.86817214  0.11632879  0.86330203  1
  O  O369  1  0.87777925  0.61727631  0.36368175  1
  O  O370  1  0.86793696  0.63111740  0.86627987  1
  O  O371  1  0.12131723  0.39244991  0.12037091  1
  O  O372  1  0.13448381  0.38196340  0.62976360  1
  O  O373  1  0.12031792  0.89255202  0.12415666  1
  O  O374  1  0.12648149  0.88014984  0.63308767  1
  O  O375  1  0.63577489  0.38324474  0.11880779  1
  O  O376  1  0.63088081  0.38149211  0.62422655  1
  O  O377  1  0.62575438  0.89050536  0.12197739  1
  O  O378  1  0.62970146  0.87803226  0.63102763  1
  O  O379  1  0.11908067  0.25071934  0.25542930  1
  O  O380  1  0.12103899  0.25896839  0.74800785  1
  O  O381  1  0.11276342  0.74263336  0.24782363  1
  O  O382  1  0.12286366  0.75759644  0.75016968  1
  O  O383  1  0.62633211  0.24796222  0.26675282  1
  O  O384  1  0.61736905  0.25205226  0.75899624  1
  O  O385  1  0.61858892  0.74292848  0.25225483  1
  O  O386  1  0.61642049  0.75576794  0.75497913  1
  O  O387  1  0.37087241  0.24100938  0.25031215  1
  O  O388  1  0.38171257  0.25422972  0.74152422  1
  O  O389  1  0.38057940  0.75383808  0.23732751  1
  O  O390  1  0.38141737  0.75169610  0.73876483  1
  O  O391  1  0.87899512  0.25349780  0.23687547  1
  O  O392  1  0.88455856  0.24163066  0.74968611  1
  O  O393  1  0.88278651  0.73908100  0.24224660  1
  O  O394  1  0.88735506  0.74860979  0.74647789  1
  O  O395  1  0.37356666  0.48622534  0.48822949  1
  O  O396  1  0.36974484  0.48996399  0.99226284  1
  O  O397  1  0.38114608  1.00140963  0.49405504  1
  O  O398  1  0.38796187  0.99060326  1.01389593  1
  O  O399  1  0.87885094  0.49597974  0.49696587  1
  O  O400  1  0.86505734  0.48865180  1.00053888  1
  O  O401  1  0.87752992  0.98901815  0.49403237  1
  O  O402  1  0.86666948  0.99053413  0.98967749  1
  O  O403  1  0.12716143  -0.00310641  0.00336262  1
  O  O404  1  0.12765436  0.01998142  0.50462477  1
  O  O405  1  0.13349302  0.51405920  0.00634984  1
  O  O406  1  0.12288177  0.50454872  0.50515735  1
  O  O407  1  0.61298663  0.00196293  0.00920666  1
  O  O408  1  0.61674461  0.01125369  0.50625757  1
  O  O409  1  0.63415349  0.51099788  0.00882640  1
  O  O410  1  0.62822050  0.50665388  0.50993048  1
  O  O411  1  0.38069698  0.37843489  0.11094608  1
  O  O412  1  0.37228885  0.36699337  0.61559951  1
  O  O413  1  0.38102276  0.86132308  0.11834076  1
  O  O414  1  0.38197431  0.85536112  0.62029543  1
  O  O415  1  0.86283495  0.37057402  0.11907157  1
  O  O416  1  0.86808190  0.37590006  0.61994107  1
  O  O417  1  0.87373883  0.86769414  0.11829327  1
  O  O418  1  0.86231409  0.86922702  0.62790164  1
  O  O419  1  0.12669387  0.13960474  0.38443379  1
  O  O420  1  0.13019560  0.12327399  0.87624332  1
  O  O421  1  0.12675199  0.61803882  0.38714405  1
  O  O422  1  0.13263852  0.62996597  0.88094632  1
  O  O423  1  0.63314607  0.12800155  0.38060416  1
  O  O424  1  0.62456406  0.13806669  0.87958224  1
  O  O425  1  0.62135276  0.62593014  0.38939309  1
  O  O426  1  0.63050998  0.63050685  0.88075602  1
