# generated using pymatgen
data_V85Zn86O256
_symmetry_space_group_name_H-M   'P 1'
_cell_length_a   16.95529377
_cell_length_b   16.95207416
_cell_length_c   16.95456383
_cell_angle_alpha   90.06361174
_cell_angle_beta   90.04317856
_cell_angle_gamma   90.09043641
_symmetry_Int_Tables_number   1
_chemical_formula_structural   V85Zn86O256
_chemical_formula_sum   'V85 Zn86 O256'
_cell_volume   4873.19569358
_cell_formula_units_Z   1
loop_
 _symmetry_equiv_pos_site_id
 _symmetry_equiv_pos_as_xyz
  1  'x, y, z'
loop_
 _atom_site_type_symbol
 _atom_site_label
 _atom_site_symmetry_multiplicity
 _atom_site_fract_x
 _atom_site_fract_y
 _atom_site_fract_z
 _atom_site_occupancy
  V  V0  1  0.25029195  0.00505267  0.25063482  1
  V  V1  1  0.87565831  0.62752061  0.74837228  1
  V  V2  1  0.37502560  0.00374043  0.86635702  1
  V  V3  1  0.00313547  0.25015128  0.25084780  1
  V  V4  1  0.37795557  0.76185305  0.62794110  1
  V  V5  1  0.61644484  0.24796201  0.36973016  1
  V  V6  1  0.87395802  0.37553065  0.00312262  1
  V  V7  1  0.24921021  0.12378835  0.88317536  1
  V  V8  1  0.00988225  0.75495982  0.74607416  1
  V  V9  1  0.74532543  0.74781732  0.48962048  1
  V  V10  1  0.15803318  0.39313577  0.77228738  1
  V  V11  1  0.50555946  0.62282959  0.12742870  1
  V  V12  1  0.49823289  0.12447736  0.63384613  1
  V  V13  1  0.87887667  0.50250173  0.87409005  1
  V  V14  1  0.87599387  0.12589961  0.25023319  1
  V  V15  1  0.50100710  0.86751566  0.37928910  1
  V  V16  1  0.12137362  0.75567132  0.37340557  1
  V  V17  1  0.00215936  0.62549887  0.62591493  1
  V  V18  1  0.62262114  0.37305618  0.24981419  1
  V  V19  1  0.49927023  0.87015511  0.86999943  1
  V  V20  1  0.50144555  0.13080270  0.12912074  1
  V  V21  1  0.74711728  0.00447941  0.75389450  1
  V  V22  1  0.87703701  0.87514534  -0.00119943  1
  V  V23  1  0.75034627  0.25055093  0.49916845  1
  V  V24  1  0.63006594  0.12288421  -0.00528610  1
  V  V25  1  0.24913517  0.62881665  0.38255315  1
  V  V26  1  0.24813367  0.87293120  0.12340772  1
  V  V27  1  0.12651562  0.38018077  0.24598756  1
  V  V28  1  0.00579790  0.12715028  0.11836371  1
  V  V29  1  0.37361297  -0.00172488  0.37523912  1
  V  V30  1  0.00316541  0.87634107  0.37225267  1
  V  V31  1  0.57736156  0.57509107  -0.03665018  1
  V  V32  1  0.37812373  0.13060933  0.25287816  1
  V  V33  1  -0.00676678  0.36786737  0.86439044  1
  V  V34  1  0.74954388  0.12670772  0.37460042  1
  V  V35  1  0.00783893  0.87686838  0.87145995  1
  V  V36  1  0.37725647  0.62576638  0.25377871  1
  V  V37  1  0.35366610  0.61707575  0.75758219  1
  V  V38  1  0.74805642  -0.00259241  0.25051351  1
  V  V39  1  0.24947064  0.37929613  0.61262708  1
  V  V40  1  0.00149428  0.37600555  0.37495707  1
  V  V41  1  0.24844640  0.50210300  0.25135101  1
  V  V42  1  0.00175704  0.50233705  0.00238325  1
  V  V43  1  0.74882832  0.37886053  0.62355565  1
  V  V44  1  0.11943419  0.24445350  0.88235912  1
  V  V45  1  0.62450153  0.75031046  0.87176010  1
  V  V46  1  0.75438231  0.62218206  0.87734926  1
  V  V47  1  0.00247709  0.00932651  0.51364219  1
  V  V48  1  0.00277892  0.62567139  0.12922870  1
  V  V49  1  0.37882579  0.50189258  0.38447134  1
  V  V50  1  0.62572259  0.86567435  0.25257328  1
  V  V51  1  0.87071272  0.00568669  0.87618379  1
  V  V52  1  0.87569533  0.13107683  0.74838023  1
  V  V53  1  0.49414568  0.62711655  0.63514722  1
  V  V54  1  0.37812137  0.75016688  0.12541433  1
  V  V55  1  0.87914268  0.25126250  0.62646440  1
  V  V56  1  0.61315645  0.62856324  0.49313943  1
  V  V57  1  0.00040610  0.50372126  0.49741035  1
  V  V58  1  0.62938854  0.50383526  0.13019648  1
  V  V59  1  0.22868528  0.87940574  0.62866074  1
  V  V60  1  0.38656356  0.37572013  -0.02054947  1
  V  V61  1  0.87505101  0.25031746  0.12693510  1
  V  V62  1  0.13759287  0.23935990  0.38018887  1
  V  V63  1  0.49259400  -0.00466131  0.50123726  1
  V  V64  1  0.87737284  0.00007169  0.37748961  1
  V  V65  1  0.62460064  -0.00087620  0.62479006  1
  V  V66  1  0.50142201  0.37824787  0.37972081  1
  V  V67  1  0.88140264  0.75249387  0.13258867  1
  V  V68  1  0.17142641  0.55880881  0.06922487  1
  V  V69  1  0.49643086  0.25824616  0.75386222  1
  V  V70  1  0.74983791  0.74680039  0.00012164  1
  V  V71  1  0.75169761  0.37810525  0.13033488  1
  V  V72  1  0.61643173  0.49993447  0.61826516  1
  V  V73  1  0.87070471  0.61825593  0.25173364  1
  V  V74  1  0.23166321  -0.00065316  0.75101384  1
  V  V75  1  0.74780750  0.87315554  0.62452612  1
  V  V76  1  0.87286551  0.74921757  0.62405356  1
  V  V77  1  0.75033969  0.24790362  -0.00650430  1
  V  V78  1  0.37445075  0.87267764  -0.00144200  1
  V  V79  1  0.25562757  0.37272119  0.12449281  1
  V  V80  1  0.12703888  0.00484984  0.11744514  1
  V  V81  1  0.49901969  -0.00048885  0.00199960  1
  V  V82  1  0.12897870  0.73898726  0.88194807  1
  V  V83  1  0.37022157  0.24405082  0.61684490  1
  V  V84  1  0.62352172  0.12349350  0.49950285  1
  Zn  Zn85  1  0.11946993  0.87577727  0.24823025  1
  Zn  Zn86  1  0.62520628  -0.00267429  0.12594160  1
  Zn  Zn87  1  0.37933612  0.25382918  0.12729818  1
  Zn  Zn88  1  0.13281245  0.13210467  0.53389978  1
  Zn  Zn89  1  0.13053049  0.50368969  0.62594473  1
  Zn  Zn90  1  0.04457232  0.21241398  0.70447907  1
  Zn  Zn91  1  0.62258776  0.87094951  0.74950761  1
  Zn  Zn92  1  0.00348108  0.00422282  -0.00274875  1
  Zn  Zn93  1  0.37742842  0.37211370  0.49694481  1
  Zn  Zn94  1  0.25285715  0.24460558  0.00327024  1
  Zn  Zn95  1  0.24786389  0.73130903  -0.00167007  1
  Zn  Zn96  1  0.87567556  0.37702838  0.49862969  1
  Zn  Zn97  1  0.75002620  0.50194247  0.74550602  1
  Zn  Zn98  1  0.74973512  0.87433282  0.12527511  1
  Zn  Zn99  1  0.73917758  0.62023635  0.36846555  1
  Zn  Zn100  1  0.25312809  0.77443506  0.49518420  1
  Zn  Zn101  1  0.50536738  0.74825277  0.25620015  1
  Zn  Zn102  1  0.62324424  0.37691040  0.75175511  1
  Zn  Zn103  1  0.86733013  0.49641082  0.37175555  1
  Zn  Zn104  1  0.12656731  0.63150762  0.50228888  1
  Zn  Zn105  1  0.87307305  0.87452357  0.49878206  1
  Zn  Zn106  1  0.62693568  0.24549855  0.86814223  1
  Zn  Zn107  1  0.18968197  0.18939830  0.19062611  1
  Zn  Zn108  1  0.20388704  0.19030489  0.70249493  1
  Zn  Zn109  1  0.19232715  0.69551488  0.19734882  1
  Zn  Zn110  1  0.18836879  0.69279097  0.68728638  1
  Zn  Zn111  1  0.68633856  0.18657813  0.18507943  1
  Zn  Zn112  1  0.68853734  0.18725872  0.68639441  1
  Zn  Zn113  1  0.69140354  0.68850923  0.18397511  1
  Zn  Zn114  1  0.68570106  0.68587783  0.68566118  1
  Zn  Zn115  1  0.31347284  0.31381572  0.31213334  1
  Zn  Zn116  1  0.31774093  0.30232032  0.80882570  1
  Zn  Zn117  1  0.31307742  0.81688665  0.31117207  1
  Zn  Zn118  1  0.30976693  0.81064807  0.80709831  1
  Zn  Zn119  1  0.81118121  0.31437857  0.31238843  1
  Zn  Zn120  1  0.80536657  0.31675156  0.81280274  1
  Zn  Zn121  1  0.81566784  0.81140597  0.31236521  1
  Zn  Zn122  1  0.81442724  0.81469749  0.81163561  1
  Zn  Zn123  1  0.18516216  0.43868798  0.43758632  1
  Zn  Zn124  1  0.19441257  0.42539360  0.93978260  1
  Zn  Zn125  1  0.20450668  0.98081365  0.46024350  1
  Zn  Zn126  1  0.18816306  0.93384836  0.93826447  1
  Zn  Zn127  1  0.68817417  0.44203714  0.43767999  1
  Zn  Zn128  1  0.56648602  0.41173979  0.92557311  1
  Zn  Zn129  1  0.68428589  0.93566553  0.43674066  1
  Zn  Zn130  1  0.68814183  0.93552550  0.93848299  1
  Zn  Zn131  1  0.31609530  0.06198762  0.06274517  1
  Zn  Zn132  1  0.30968734  0.06405819  0.56818014  1
  Zn  Zn133  1  0.33693532  0.55504356  0.05978012  1
  Zn  Zn134  1  0.31530370  0.56360912  0.56562046  1
  Zn  Zn135  1  0.81394475  0.06244968  0.06432817  1
  Zn  Zn136  1  0.81462253  0.06439303  0.56488576  1
  Zn  Zn137  1  0.81289329  0.56233581  0.06358255  1
  Zn  Zn138  1  0.81038525  0.56271990  0.55444669  1
  Zn  Zn139  1  0.44096510  0.44012622  0.19347060  1
  Zn  Zn140  1  0.43146111  0.43894572  0.68620123  1
  Zn  Zn141  1  0.43894244  0.93746890  0.18985458  1
  Zn  Zn142  1  0.43765540  0.93708879  0.69011649  1
  Zn  Zn143  1  0.94213112  0.44162776  0.18634504  1
  Zn  Zn144  1  0.93815692  0.44007535  0.68531739  1
  Zn  Zn145  1  0.93884799  0.94011883  0.18795481  1
  Zn  Zn146  1  0.93183120  0.93566177  0.69045655  1
  Zn  Zn147  1  0.06228349  0.05973974  0.30885842  1
  Zn  Zn148  1  0.05871641  0.06575327  0.81403424  1
  Zn  Zn149  1  0.06200441  0.56589749  0.31135743  1
  Zn  Zn150  1  0.09806020  0.54096839  0.82628066  1
  Zn  Zn151  1  0.56154245  0.05693377  0.31262941  1
  Zn  Zn152  1  0.56227212  0.06173968  0.81428910  1
  Zn  Zn153  1  0.56304280  0.55864759  0.31053380  1
  Zn  Zn154  1  0.56294290  0.56393678  0.79500279  1
  Zn  Zn155  1  0.43770045  0.18219450  0.43855144  1
  Zn  Zn156  1  0.43521636  0.18776541  0.94052942  1
  Zn  Zn157  1  0.43156281  0.69232375  0.44688484  1
  Zn  Zn158  1  0.43062510  0.69008495  0.93091785  1
  Zn  Zn159  1  0.94203601  0.18869051  0.43999700  1
  Zn  Zn160  1  0.93341196  0.18608554  0.93770276  1
  Zn  Zn161  1  0.93731527  0.69129585  0.43770645  1
  Zn  Zn162  1  0.94295564  0.68835717  0.93995366  1
  Zn  Zn163  1  0.06622938  0.31623001  0.06121960  1
  Zn  Zn164  1  0.06794958  0.31425943  0.55678673  1
  Zn  Zn165  1  0.06309424  0.81253899  0.05927497  1
  Zn  Zn166  1  0.06168756  0.81825479  0.55256668  1
  Zn  Zn167  1  0.56541268  0.30728930  0.06705133  1
  Zn  Zn168  1  0.56186147  0.31048910  0.56161244  1
  Zn  Zn169  1  0.56526655  0.81160868  0.06183648  1
  Zn  Zn170  1  0.56037748  0.81003964  0.56298118  1
  O  O171  1  0.11757421  0.11818805  0.13146111  1
  O  O172  1  0.11778483  0.15098472  0.64312769  1
  O  O173  1  0.12085132  0.62837515  0.13181210  1
  O  O174  1  0.11632791  0.62503714  0.62332215  1
  O  O175  1  0.61729459  0.11871999  0.11846721  1
  O  O176  1  0.61841432  0.11776263  0.61919879  1
  O  O177  1  0.62090550  0.61768824  0.12559129  1
  O  O178  1  0.61471174  0.62109998  0.61919413  1
  O  O179  1  0.38381342  0.38252155  0.37305220  1
  O  O180  1  0.37569627  0.37185866  0.88045682  1
  O  O181  1  0.38619760  0.88828049  0.36789176  1
  O  O182  1  0.38109052  0.87635962  0.88026202  1
  O  O183  1  0.88905434  0.37496651  0.37339481  1
  O  O184  1  0.87546902  0.38075191  0.88488987  1
  O  O185  1  0.87951560  0.88440206  0.37619495  1
  O  O186  1  0.88192038  0.88283733  0.88175856  1
  O  O187  1  0.26140957  -0.01275995  0.36017017  1
  O  O188  1  0.25535369  -0.00019638  0.86946943  1
  O  O189  1  0.25567451  0.50719805  0.37036004  1
  O  O190  1  0.19842667  0.47371849  0.83906211  1
  O  O191  1  0.75567422  0.00425633  0.36709563  1
  O  O192  1  0.75767944  -0.00788995  0.86528283  1
  O  O193  1  0.75513473  0.50825532  0.37981397  1
  O  O194  1  0.75991682  0.51744803  0.87211766  1
  O  O195  1  0.24601389  0.49909084  0.12828410  1
  O  O196  1  0.24934378  0.48419213  0.62052011  1
  O  O197  1  0.24515104  0.99401957  0.12895513  1
  O  O198  1  0.25363621  0.99241157  0.64506399  1
  O  O199  1  0.74289992  0.49024245  0.12101224  1
  O  O200  1  0.74309107  0.49317215  0.62061879  1
  O  O201  1  0.75342835  0.99723942  0.14029332  1
  O  O202  1  0.74551637  0.99188858  0.62956799  1
  O  O203  1  0.00864897  0.37262482  0.25361772  1
  O  O204  1  -0.02076515  0.36756193  0.76549651  1
  O  O205  1  -0.00027871  0.88355691  0.26590766  1
  O  O206  1  -0.00925993  0.86590568  0.75947097  1
  O  O207  1  0.51489561  0.37599188  0.25872121  1
  O  O208  1  0.50086827  0.36174971  0.74369917  1
  O  O209  1  0.50926317  0.87344498  0.25752778  1
  O  O210  1  0.50298529  0.87842395  0.76604166  1
  O  O211  1  0.49228457  0.11207327  0.23920058  1
  O  O212  1  0.50352724  0.12671914  0.73703623  1
  O  O213  1  0.49648511  0.62966451  0.24471216  1
  O  O214  1  0.49773976  0.63486565  0.73724144  1
  O  O215  1  0.99429013  0.13005118  0.24094804  1
  O  O216  1  0.98140075  0.12973367  0.75768026  1
  O  O217  1  0.99232809  0.62248054  0.23600591  1
  O  O218  1  0.99352568  0.63502934  0.73582141  1
  O  O219  1  0.37392757  0.26138679  0.00530010  1
  O  O220  1  0.38245382  0.25104162  0.51233159  1
  O  O221  1  0.36872762  0.75176480  0.01050144  1
  O  O222  1  0.36375318  0.74668561  0.52117071  1
  O  O223  1  0.87025213  0.25387288  0.00961633  1
  O  O224  1  0.86708387  0.25089780  0.50630338  1
  O  O225  1  0.86982083  0.75734736  0.00527993  1
  O  O226  1  0.86386937  0.75005969  0.50735053  1
  O  O227  1  0.11991046  0.24306753  0.48414572  1
  O  O228  1  0.13300787  0.25807773  0.98700922  1
  O  O229  1  0.13289828  0.75162665  0.48852209  1
  O  O230  1  0.12737670  0.74914986  0.98730075  1
  O  O231  1  0.63090665  0.24264078  0.49240431  1
  O  O232  1  0.63495452  0.24034111  1.00208640  1
  O  O233  1  0.63047395  0.73721193  0.50513663  1
  O  O234  1  0.64251975  0.75650027  0.99177439  1
  O  O235  1  0.49988961  0.23483289  0.12736878  1
  O  O236  1  0.49389735  0.24188041  0.62915379  1
  O  O237  1  0.49488422  0.74139719  0.12612678  1
  O  O238  1  0.48514599  0.74659066  0.62341360  1
  O  O239  1  0.99808604  0.24571469  0.13052463  1
  O  O240  1  0.98288672  0.26653147  0.62300623  1
  O  O241  1  0.99235665  0.73946967  0.11502587  1
  O  O242  1  0.99583444  0.74801808  0.62875331  1
  O  O243  1  0.00487973  0.25827256  0.36753136  1
  O  O244  1  0.00515901  0.25614642  0.88363260  1
  O  O245  1  0.00842116  0.76236884  0.38182341  1
  O  O246  1  0.00628585  0.75702848  0.86819641  1
  O  O247  1  0.51222160  0.25303911  0.37731610  1
  O  O248  1  0.49719066  0.23985678  0.85553352  1
  O  O249  1  0.49043313  0.76353977  0.37662714  1
  O  O250  1  0.51205138  0.75905239  0.88625242  1
  O  O251  1  0.23085607  0.08867814  0.49584663  1
  O  O252  1  0.25143935  0.12194429  0.98906077  1
  O  O253  1  0.24854987  0.62207275  0.48799459  1
  O  O254  1  0.24521369  0.61249172  1.01458329  1
  O  O255  1  0.74378152  0.12935816  0.49343177  1
  O  O256  1  0.74079647  0.13299926  1.01099893  1
  O  O257  1  0.73575594  0.63421545  0.50080914  1
  O  O258  1  0.75868132  0.63489654  0.99125133  1
  O  O259  1  0.26517153  0.37254251  0.00888842  1
  O  O260  1  0.25305412  0.37362680  0.50887002  1
  O  O261  1  0.25726465  0.87544236  0.01194267  1
  O  O262  1  0.24574435  0.88986805  0.52446318  1
  O  O263  1  0.75965810  0.36253887  0.01726713  1
  O  O264  1  0.74985333  0.36808260  0.50753445  1
  O  O265  1  0.76294970  0.86914487  0.00094750  1
  O  O266  1  0.74772503  0.86729178  0.50645442  1
  O  O267  1  0.13132044  0.48817301  0.25677423  1
  O  O268  1  0.09551497  0.47213969  0.73340701  1
  O  O269  1  0.13446945  0.99738376  0.23962275  1
  O  O270  1  0.13330367  0.99877714  0.75674507  1
  O  O271  1  0.62583561  0.49179752  0.23826183  1
  O  O272  1  0.63091989  0.49903123  0.73256832  1
  O  O273  1  0.63433069  0.99044261  0.24953237  1
  O  O274  1  0.63125109  0.99791338  0.74445189  1
  O  O275  1  0.36951156  0.00606068  0.25479715  1
  O  O276  1  0.37542815  -0.00217760  0.76494178  1
  O  O277  1  0.36877447  0.50858590  0.25962615  1
  O  O278  1  0.38040657  0.51931302  0.74760493  1
  O  O279  1  0.86891300  0.00474912  0.26033242  1
  O  O280  1  0.86646203  0.00689063  0.75737835  1
  O  O281  1  0.87746669  0.51510725  0.24869127  1
  O  O282  1  0.87479417  0.51079403  0.75601287  1
  O  O283  1  0.11624424  0.36826196  0.36926434  1
  O  O284  1  0.10958272  0.36412338  0.87419718  1
  O  O285  1  0.11528720  0.87170063  0.37533456  1
  O  O286  1  0.11085160  0.86789459  0.88073518  1
  O  O287  1  0.62128500  0.36930809  0.36894184  1
  O  O288  1  0.63947054  0.35942009  0.86415845  1
  O  O289  1  0.61432141  0.87902090  0.36553869  1
  O  O290  1  0.61790657  0.86752833  0.87537391  1
  O  O291  1  0.38465689  0.12486835  0.13261601  1
  O  O292  1  0.38284829  0.13532098  0.62118033  1
  O  O293  1  0.38526256  0.63104523  0.13145922  1
  O  O294  1  0.37874316  0.63260815  0.63170754  1
  O  O295  1  0.88260922  0.12997618  0.13257486  1
  O  O296  1  0.86907214  0.13809132  0.63462320  1
  O  O297  1  0.88200065  0.63117014  0.13331536  1
  O  O298  1  0.87943315  0.63100543  0.62823782  1
  O  O299  1  0.25478525  0.25878291  0.12455561  1
  O  O300  1  0.26742843  0.25402142  0.62663255  1
  O  O301  1  0.25784257  0.75667001  0.12289194  1
  O  O302  1  0.25182043  0.76959609  0.62678059  1
  O  O303  1  0.75757693  0.25516241  0.12219170  1
  O  O304  1  0.75389704  0.25758279  0.61625433  1
  O  O305  1  0.76109376  0.75232068  0.11545125  1
  O  O306  1  0.75121486  0.75738122  0.61890480  1
  O  O307  1  0.23584824  0.25450974  0.37165457  1
  O  O308  1  0.24597027  0.23831381  0.87595580  1
  O  O309  1  0.24836631  0.74626597  0.37816980  1
  O  O310  1  0.23270337  0.75658776  0.87687584  1
  O  O311  1  0.74228199  0.24632833  0.38109433  1
  O  O312  1  0.75653885  0.24691390  0.89131454  1
  O  O313  1  0.75407221  0.74551010  0.38669894  1
  O  O314  1  0.74876028  0.74266106  0.88055953  1
  O  O315  1  -0.00520212  0.12378049  0.01469769  1
  O  O316  1  0.00294837  0.11280486  0.49834186  1
  O  O317  1  -0.00289493  0.61163935  0.00970893  1
  O  O318  1  0.00042614  0.62243230  0.50912257  1
  O  O319  1  0.50595673  0.11721727  0.00752316  1
  O  O320  1  0.50641248  0.11584397  0.50912108  1
  O  O321  1  0.50051647  0.63146641  0.00863768  1
  O  O322  1  0.50946132  0.63260210  0.51042006  1
  O  O323  1  0.50171278  0.37202825  0.48397120  1
  O  O324  1  0.49275365  0.36238010  0.99693789  1
  O  O325  1  0.50671129  0.88402570  0.49279574  1
  O  O326  1  0.49603978  0.88176524  0.99367352  1
  O  O327  1  1.00032687  0.38423394  0.49058897  1
  O  O328  1  0.99174080  0.38446123  0.99988550  1
  O  O329  1  0.99139576  0.88599266  0.48934932  1
  O  O330  1  0.98935739  0.87694501  0.99230090  1
  O  O331  1  0.49083194  0.49102824  0.36913796  1
  O  O332  1  0.52574613  0.51515961  0.89051675  1
  O  O333  1  0.49572978  0.99137491  0.38380757  1
  O  O334  1  0.49413935  0.99505286  0.88523165  1
  O  O335  1  0.99898547  0.49364176  0.37962934  1
  O  O336  1  0.99829104  0.49066504  0.88371501  1
  O  O337  1  0.99198886  0.99752052  0.38032955  1
  O  O338  1  0.99177087  0.99296678  0.87682612  1
  O  O339  1  0.00884775  0.00884156  0.12504462  1
  O  O340  1  -0.01982077  -0.00095260  0.61080509  1
  O  O341  1  0.00262703  0.50929864  0.11545940  1
  O  O342  1  -0.00299677  0.51103666  0.61487055  1
  O  O343  1  0.49893401  0.00353050  0.11242440  1
  O  O344  1  0.50248514  0.00437630  0.61969813  1
  O  O345  1  0.50721802  0.51470233  0.13026682  1
  O  O346  1  0.50555013  0.51081773  0.62678697  1
  O  O347  1  0.24487077  0.38226682  0.24445099  1
  O  O348  1  0.25358639  0.36738982  0.73494771  1
  O  O349  1  0.25291599  0.88388061  0.23494500  1
  O  O350  1  0.25071531  0.88962287  0.74424507  1
  O  O351  1  0.74102100  0.37049042  0.23903886  1
  O  O352  1  0.74867540  0.37811003  0.73342934  1
  O  O353  1  0.74435873  0.88114450  0.25184806  1
  O  O354  1  0.74915141  0.88437563  0.74162326  1
  O  O355  1  0.26079344  0.11185093  0.24274688  1
  O  O356  1  0.25351023  0.10722871  0.76621384  1
  O  O357  1  0.25672674  0.62169326  0.26210870  1
  O  O358  1  0.25349275  0.61876311  0.74404119  1
  O  O359  1  0.75396389  0.11751621  0.25567322  1
  O  O360  1  0.75565071  0.11126366  0.74570119  1
  O  O361  1  0.76637537  0.63141105  0.25015568  1
  O  O362  1  0.75880536  0.62754087  0.75663912  1
  O  O363  1  0.38472784  0.10995110  0.36623419  1
  O  O364  1  0.36678147  0.11315777  0.88275256  1
  O  O365  1  0.37051268  0.62127258  0.37359583  1
  O  O366  1  0.36878333  0.63386736  0.85737401  1
  O  O367  1  0.87006517  0.12033950  0.36937170  1
  O  O368  1  0.87400094  0.11158249  0.87188482  1
  O  O369  1  0.88277171  0.62943315  0.35606210  1
  O  O370  1  0.87311290  0.62503331  0.86854093  1
  O  O371  1  0.13974334  0.37222863  0.13413086  1
  O  O372  1  0.14454265  0.36753192  0.62651458  1
  O  O373  1  0.13237174  0.87995057  0.12618090  1
  O  O374  1  0.13003204  0.87209732  0.63116963  1
  O  O375  1  0.63075311  0.37941055  0.13239763  1
  O  O376  1  0.62954806  0.38410027  0.62124588  1
  O  O377  1  0.62824192  0.87783272  0.13429409  1
  O  O378  1  0.63263490  0.87859317  0.62778016  1
  O  O379  1  0.12118697  0.26231419  0.25584949  1
  O  O380  1  0.12991470  0.26757030  0.76809846  1
  O  O381  1  0.13027976  0.75882383  0.26665378  1
  O  O382  1  0.11334194  0.74940092  0.75917846  1
  O  O383  1  0.63096573  0.25760901  0.25934545  1
  O  O384  1  0.60945319  0.24692217  0.74436210  1
  O  O385  1  0.62706083  0.76125505  0.24736139  1
  O  O386  1  0.63297583  0.75073492  0.76744534  1
  O  O387  1  0.37237261  0.23384524  0.25282556  1
  O  O388  1  0.38925942  0.24811657  0.73437417  1
  O  O389  1  0.37624484  0.74524913  0.23834669  1
  O  O390  1  0.36476790  0.73940410  0.73451721  1
  O  O391  1  0.88186063  0.24582226  0.24559581  1
  O  O392  1  0.86032256  0.24142328  0.74093527  1
  O  O393  1  0.87483570  0.74495296  0.23635604  1
  O  O394  1  0.88260439  0.74487838  0.74441883  1
  O  O395  1  0.37304802  0.49826777  0.48722534  1
  O  O396  1  0.38481548  0.47494913  1.00121775  1
  O  O397  1  0.38704485  1.00358294  0.49288176  1
  O  O398  1  0.38297666  0.99210323  0.99342298  1
  O  O399  1  0.88807145  0.50023497  0.49491326  1
  O  O400  1  0.88253365  0.49571413  0.99457382  1
  O  O401  1  0.87557395  1.00227477  0.48707855  1
  O  O402  1  0.87533546  0.99295097  0.99366104  1
  O  O403  1  0.12346408  -0.00446344  0.01337986  1
  O  O404  1  0.10194574  -0.00466843  0.50924746  1
  O  O405  1  0.12014869  0.49444715  0.00240288  1
  O  O406  1  0.11245786  0.50421203  0.50222824  1
  O  O407  1  0.61855239  0.00451901  0.00181479  1
  O  O408  1  0.61725005  0.00478380  0.50554825  1
  O  O409  1  0.62237418  0.49566333  0.01401790  1
  O  O410  1  0.62525530  0.51554681  0.50944714  1
  O  O411  1  0.36412526  0.37520328  0.13642046  1
  O  O412  1  0.36738457  0.36609619  0.61928303  1
  O  O413  1  0.37193216  0.86690245  0.12069869  1
  O  O414  1  0.37311276  0.86393391  0.63158697  1
  O  O415  1  0.86977441  0.37182934  0.12534715  1
  O  O416  1  0.86465973  0.37174022  0.62073178  1
  O  O417  1  0.87764598  0.86871740  0.11782346  1
  O  O418  1  0.86053188  0.86888962  0.62278692  1
  O  O419  1  0.12307150  0.14138634  0.36097809  1
  O  O420  1  0.13118709  0.13396363  0.87225582  1
  O  O421  1  0.13242572  0.63498102  0.37488073  1
  O  O422  1  0.11683583  0.64034358  0.87503279  1
  O  O423  1  0.62880369  0.13078702  0.37677818  1
  O  O424  1  0.62150754  0.12687760  0.88988967  1
  O  O425  1  0.61872113  0.62342952  0.38899396  1
  O  O426  1  0.63349698  0.63047112  0.88118798  1
