# generated using pymatgen
data_V85Zn86O256
_symmetry_space_group_name_H-M   'P 1'
_cell_length_a   16.91956037
_cell_length_b   16.93223671
_cell_length_c   16.93147004
_cell_angle_alpha   90.03120885
_cell_angle_beta   90.01086200
_cell_angle_gamma   89.93499377
_symmetry_Int_Tables_number   1
_chemical_formula_structural   V85Zn86O256
_chemical_formula_sum   'V85 Zn86 O256'
_cell_volume   4850.62521980
_cell_formula_units_Z   1
loop_
 _symmetry_equiv_pos_site_id
 _symmetry_equiv_pos_as_xyz
  1  'x, y, z'
loop_
 _atom_site_type_symbol
 _atom_site_label
 _atom_site_symmetry_multiplicity
 _atom_site_fract_x
 _atom_site_fract_y
 _atom_site_fract_z
 _atom_site_occupancy
  V  V0  1  0.00418617  0.88006727  0.37262112  1
  V  V1  1  0.62893431  0.87599758  0.75364744  1
  V  V2  1  0.50050011  0.13223158  0.13024926  1
  V  V3  1  0.62971626  0.63004438  0.50033834  1
  V  V4  1  0.13019074  0.00657239  0.12016010  1
  V  V5  1  0.75228952  0.12351171  0.87444642  1
  V  V6  1  0.62938143  0.00173911  0.62307176  1
  V  V7  1  0.62749315  -0.00165552  0.13572672  1
  V  V8  1  0.23563804  0.24689905  -0.00245445  1
  V  V9  1  0.62588899  0.12319122  -0.00048681  1
  V  V10  1  0.37337509  0.37024772  -0.00200611  1
  V  V11  1  0.61684469  0.36290112  0.25161282  1
  V  V12  1  0.50227668  0.76600837  0.25395755  1
  V  V13  1  0.62512623  0.62547831  -0.00008717  1
  V  V14  1  0.01218920  0.86572351  0.87614689  1
  V  V15  1  0.87433789  0.00326046  0.37792231  1
  V  V16  1  0.49938203  0.62899193  0.12620046  1
  V  V17  1  -0.00208550  0.63070676  0.60866753  1
  V  V18  1  0.24612428  0.63287646  0.87385463  1
  V  V19  1  0.37508257  0.37607693  0.50124543  1
  V  V20  1  0.00709913  0.12767832  0.62795715  1
  V  V21  1  -0.00879505  0.50155094  -0.01076167  1
  V  V22  1  0.11905305  0.50000734  0.12319468  1
  V  V23  1  0.87806094  0.25300851  0.63044764  1
  V  V24  1  -0.00327975  0.74445528  0.75400977  1
  V  V25  1  0.87409754  0.86414594  0.50022108  1
  V  V26  1  0.87978621  0.12362370  0.24760489  1
  V  V27  1  0.50086767  0.24974943  0.74994934  1
  V  V28  1  0.37078944  0.75768656  0.62947416  1
  V  V29  1  0.24759237  0.37669700  0.12399482  1
  V  V30  1  0.00869905  0.00102117  0.50518609  1
  V  V31  1  0.12818630  0.74891925  0.37521533  1
  V  V32  1  0.23848795  0.12467908  0.87972475  1
  V  V33  1  0.81154957  0.31456349  0.45271123  1
  V  V34  1  0.12912403  0.87474312  0.24223206  1
  V  V35  1  0.37594957  0.50201890  0.37290877  1
  V  V36  1  0.50020769  0.62672860  0.62726858  1
  V  V37  1  0.87698179  0.25214320  0.11963309  1
  V  V38  1  0.38338791  0.87584110  0.49547799  1
  V  V39  1  0.24551674  0.75780036  -0.00120361  1
  V  V40  1  0.24635298  0.75653268  0.50882986  1
  V  V41  1  0.25358800  -0.00305891  0.24537723  1
  V  V42  1  0.37171067  0.50223766  0.87316978  1
  V  V43  1  0.37667329  0.13851141  0.25431426  1
  V  V44  1  0.37656015  0.24915624  0.62749998  1
  V  V45  1  0.87453795  0.86688123  0.00336927  1
  V  V46  1  0.75627571  0.60991444  0.87152921  1
  V  V47  1  0.12419311  0.36261473  0.75773638  1
  V  V48  1  0.75656219  0.37440966  0.63039831  1
  V  V49  1  0.62384777  0.76680566  0.37645159  1
  V  V50  1  0.87318810  0.61174513  0.74251545  1
  V  V51  1  0.37638043  0.12215348  0.75237227  1
  V  V52  1  0.49791955  0.50139226  0.49992123  1
  V  V53  1  0.00342098  0.47904784  0.49800658  1
  V  V54  1  0.37681355  0.87668182  0.00228239  1
  V  V55  1  0.63153564  0.13786948  0.49427175  1
  V  V56  1  0.74585245  0.37723205  0.12235796  1
  V  V57  1  0.74466304  0.62585464  0.37539334  1
  V  V58  1  0.24908143  0.11934034  0.37792020  1
  V  V59  1  0.62627173  0.24857271  0.87319925  1
  V  V60  1  0.50401826  -0.00443414  -0.00299381  1
  V  V61  1  0.87734969  -0.00613221  0.87141880  1
  V  V62  1  0.62844886  0.75146941  0.87534112  1
  V  V63  1  0.50104480  0.75509245  0.75432375  1
  V  V64  1  0.36883967  0.75523491  0.12603041  1
  V  V65  1  0.00855103  0.26681755  0.25037607  1
  V  V66  1  0.24842684  0.24704270  0.50163832  1
  V  V67  1  0.23978914  0.50441030  0.74813316  1
  V  V68  1  0.12213066  0.62966654  -0.00365349  1
  V  V69  1  -0.00446970  0.36251135  0.87139359  1
  V  V70  1  0.49640056  0.35961138  0.37042220  1
  V  V71  1  0.49614431  0.50187883  0.00058608  1
  V  V72  1  0.88120762  0.12767925  0.75098324  1
  V  V73  1  0.24409295  0.38142068  0.62609320  1
  V  V74  1  0.62881079  0.38055130  0.75095155  1
  V  V75  1  0.49837265  0.37517493  0.87366733  1
  V  V76  1  0.63103427  0.50113036  0.62693520  1
  V  V77  1  0.87235280  0.49730523  0.38157584  1
  V  V78  1  0.37563529  0.62778018  0.24974598  1
  V  V79  1  0.37889424  -0.00386948  0.87343961  1
  V  V80  1  0.76004151  0.86223473  0.62320147  1
  V  V81  1  0.00383870  0.00530515  -0.00026436  1
  V  V82  1  0.75105397  0.86820867  0.13357328  1
  V  V83  1  0.24110702  0.50286264  0.24966085  1
  V  V84  1  0.24140512  -0.00578376  0.74117962  1
  Zn  Zn85  1  0.75525231  0.74424069  0.00574832  1
  Zn  Zn86  1  0.75075561  0.24943336  -0.00133391  1
  Zn  Zn87  1  -0.01382497  0.63456774  0.12217440  1
  Zn  Zn88  1  0.13204059  0.86379407  0.73532641  1
  Zn  Zn89  1  0.62124153  0.50123241  0.13007837  1
  Zn  Zn90  1  0.87191832  0.62780390  0.24358401  1
  Zn  Zn91  1  0.75609786  -0.00319820  0.74826851  1
  Zn  Zn92  1  0.74554466  0.49927249  0.25266600  1
  Zn  Zn93  1  0.50848647  -0.00282998  0.49185814  1
  Zn  Zn94  1  -0.00747915  0.74809846  0.24324365  1
  Zn  Zn95  1  0.12726725  0.61813258  0.50018431  1
  Zn  Zn96  1  0.12840527  0.12136738  0.50467156  1
  Zn  Zn97  1  0.50451295  0.12162415  0.62433613  1
  Zn  Zn98  1  0.37546085  0.25336173  0.12972862  1
  Zn  Zn99  1  0.86886901  0.37909301  -0.00792186  1
  Zn  Zn100  1  0.38530125  -0.00645724  0.36726121  1
  Zn  Zn101  1  0.75044150  0.00083776  0.25285753  1
  Zn  Zn102  1  0.11692827  0.26276282  0.37814276  1
  Zn  Zn103  1  0.75089794  0.13467634  0.37714795  1
  Zn  Zn104  1  0.37284048  0.62730686  0.74987992  1
  Zn  Zn105  1  0.00571346  0.12909968  0.12122384  1
  Zn  Zn106  1  0.25040511  0.62740299  0.37848556  1
  Zn  Zn107  1  0.18990118  0.18684507  0.18690237  1
  Zn  Zn108  1  0.19122666  0.18478192  0.69177054  1
  Zn  Zn109  1  0.18205029  0.68692540  0.18395149  1
  Zn  Zn110  1  0.17845270  0.68550283  0.68405860  1
  Zn  Zn111  1  0.69140156  0.18634452  0.18805435  1
  Zn  Zn112  1  0.69418509  0.18831544  0.68521845  1
  Zn  Zn113  1  0.68587219  0.68889426  0.19353688  1
  Zn  Zn114  1  0.69254162  0.68614833  0.69011532  1
  Zn  Zn115  1  0.28417389  0.32339927  0.32204755  1
  Zn  Zn116  1  0.30786114  0.31033981  0.81377937  1
  Zn  Zn117  1  0.31010611  0.81363282  0.31452550  1
  Zn  Zn118  1  0.31262694  0.81672497  0.81501654  1
  Zn  Zn119  1  0.81403865  0.31402311  0.29093566  1
  Zn  Zn120  1  0.81329772  0.31218975  0.80999188  1
  Zn  Zn121  1  0.80966371  0.81181152  0.31633258  1
  Zn  Zn122  1  0.81696332  0.80514048  0.81095066  1
  Zn  Zn123  1  0.18254888  0.43582775  0.43369559  1
  Zn  Zn124  1  0.18375478  0.44050145  0.93616080  1
  Zn  Zn125  1  0.19248454  0.93498522  0.43894171  1
  Zn  Zn126  1  0.18814031  0.93865832  0.93356488  1
  Zn  Zn127  1  0.67683721  0.43967450  0.43329052  1
  Zn  Zn128  1  0.68412388  0.43798787  0.94030287  1
  Zn  Zn129  1  0.69345512  0.94303040  0.44271607  1
  Zn  Zn130  1  0.69197864  0.93593358  0.94022861  1
  Zn  Zn131  1  0.31414776  0.06478303  0.06401344  1
  Zn  Zn132  1  0.31637542  0.06013233  0.56490280  1
  Zn  Zn133  1  0.31073854  0.56577238  0.06140975  1
  Zn  Zn134  1  0.31148851  0.56871942  0.56404813  1
  Zn  Zn135  1  0.81458736  0.05920092  0.06135038  1
  Zn  Zn136  1  0.81351399  0.06130592  0.56310384  1
  Zn  Zn137  1  0.81093072  0.56160414  0.06381646  1
  Zn  Zn138  1  0.81559222  0.55839849  0.55870284  1
  Zn  Zn139  1  0.43639940  0.43778316  0.18759387  1
  Zn  Zn140  1  0.43537532  0.44007927  0.68907859  1
  Zn  Zn141  1  0.43648858  0.94363994  0.18345724  1
  Zn  Zn142  1  0.44148015  0.93558195  0.68613937  1
  Zn  Zn143  1  0.93316743  0.44564032  0.18612663  1
  Zn  Zn144  1  0.94472265  0.44127485  0.68458748  1
  Zn  Zn145  1  0.93864405  0.93723461  0.18599550  1
  Zn  Zn146  1  0.96740328  0.92177280  0.67381838  1
  Zn  Zn147  1  0.06528627  0.06712800  0.31048256  1
  Zn  Zn148  1  0.06055276  0.06038550  0.81274386  1
  Zn  Zn149  1  0.05614478  0.56409764  0.31557387  1
  Zn  Zn150  1  0.06101216  0.56195308  0.81086401  1
  Zn  Zn151  1  0.56056046  0.06604248  0.31771264  1
  Zn  Zn152  1  0.56318691  0.05977559  0.81091249  1
  Zn  Zn153  1  0.56154603  0.56087311  0.30981620  1
  Zn  Zn154  1  0.56251543  0.56462954  0.81277439  1
  Zn  Zn155  1  0.43838062  0.17774404  0.44224623  1
  Zn  Zn156  1  0.43582056  0.18446505  0.93886904  1
  Zn  Zn157  1  0.44052011  0.69153176  0.43858255  1
  Zn  Zn158  1  0.43762628  0.69048801  0.93493471  1
  Zn  Zn159  1  0.94595144  0.18592231  0.43363936  1
  Zn  Zn160  1  0.94022556  0.18731466  0.93705463  1
  Zn  Zn161  1  0.92854675  0.69682391  0.40893193  1
  Zn  Zn162  1  0.93466044  0.68569483  0.93496664  1
  Zn  Zn163  1  0.05999282  0.31796195  0.06204336  1
  Zn  Zn164  1  0.06721071  0.30772216  0.57017030  1
  Zn  Zn165  1  0.06240502  0.81609501  0.06318317  1
  Zn  Zn166  1  0.05766712  0.80821423  0.56417790  1
  Zn  Zn167  1  0.56307895  0.31078084  0.06096390  1
  Zn  Zn168  1  0.56243767  0.31448317  0.56264951  1
  Zn  Zn169  1  0.56452616  0.81423731  0.06533351  1
  Zn  Zn170  1  0.56613197  0.81272611  0.56647081  1
  O  O171  1  0.12446547  0.11135624  0.12740315  1
  O  O172  1  0.11119249  0.13198179  0.62862953  1
  O  O173  1  0.12746079  0.61436164  0.11059921  1
  O  O174  1  0.10337541  0.62378089  0.61858252  1
  O  O175  1  0.62059110  0.12002232  0.11913830  1
  O  O176  1  0.62872188  0.11689075  0.62168115  1
  O  O177  1  0.61992925  0.62684547  0.11623225  1
  O  O178  1  0.62271880  0.61908249  0.62178490  1
  O  O179  1  0.37601686  0.38408442  0.38094877  1
  O  O180  1  0.37684832  0.38038461  0.87996224  1
  O  O181  1  0.37322736  0.87245111  0.39181451  1
  O  O182  1  0.37377565  0.88728224  0.88619769  1
  O  O183  1  0.86209112  0.37429667  0.38483064  1
  O  O184  1  0.89010495  0.37208124  0.87209744  1
  O  O185  1  0.88331089  0.88563768  0.38021039  1
  O  O186  1  0.87549261  0.88048541  0.88444979  1
  O  O187  1  0.25591887  0.00551921  0.36861170  1
  O  O188  1  0.25869664  0.00922421  0.87142977  1
  O  O189  1  0.26019234  0.50479182  0.36597968  1
  O  O190  1  0.25258578  0.51154269  0.86965207  1
  O  O191  1  0.76407515  0.00174790  0.37271138  1
  O  O192  1  0.75951259  0.00588143  0.87418823  1
  O  O193  1  0.75240943  0.50581993  0.37838087  1
  O  O194  1  0.74208997  0.51186468  0.87364314  1
  O  O195  1  0.24334930  0.49700144  0.12787160  1
  O  O196  1  0.25589120  0.49209306  0.63365109  1
  O  O197  1  0.24466855  1.00358472  0.13309734  1
  O  O198  1  0.25253226  1.00564265  0.64312928  1
  O  O199  1  0.74409404  0.48656158  0.12349982  1
  O  O200  1  0.73796238  0.49166201  0.61943727  1
  O  O201  1  0.74284967  0.99293409  0.12632156  1
  O  O202  1  0.74312435  0.99107223  0.62882568  1
  O  O203  1  -0.00150480  0.36525440  0.24337027  1
  O  O204  1  0.01369482  0.38134532  0.75989196  1
  O  O205  1  0.00774239  0.87685101  0.26058968  1
  O  O206  1  -0.01825286  0.85866675  0.76794014  1
  O  O207  1  0.50664587  0.37417348  0.25491623  1
  O  O208  1  0.50531940  0.37024882  0.75560944  1
  O  O209  1  0.49480712  0.86469206  0.24290681  1
  O  O210  1  0.51265785  0.86313532  0.74653636  1
  O  O211  1  0.49054676  0.12408992  0.24185564  1
  O  O212  1  0.49477784  0.13199938  0.74847361  1
  O  O213  1  0.49326801  0.63309960  0.24329935  1
  O  O214  1  0.49958032  0.63660584  0.74532747  1
  O  O215  1  0.99038130  0.13015549  0.24554835  1
  O  O216  1  0.98967939  0.12001610  0.74453403  1
  O  O217  1  0.99548740  0.62514546  0.24421587  1
  O  O218  1  0.99078341  0.62397373  0.74313336  1
  O  O219  1  0.36871788  0.26162710  -0.00185241  1
  O  O220  1  0.37260601  0.25288945  0.51432185  1
  O  O221  1  0.37159328  0.75858823  0.00497162  1
  O  O222  1  0.37054646  0.75786869  0.50861710  1
  O  O223  1  0.87594106  0.25266662  0.00997985  1
  O  O224  1  0.87663268  0.25308218  0.50472573  1
  O  O225  1  0.87352724  0.76278722  -0.00423476  1
  O  O226  1  0.87797090  0.76565662  0.48994772  1
  O  O227  1  0.13542372  0.24648068  0.49841530  1
  O  O228  1  0.13655506  0.25412393  1.00319620  1
  O  O229  1  0.13250035  0.75287442  0.49573462  1
  O  O230  1  0.13575919  0.74405473  1.00353095  1
  O  O231  1  0.62543294  0.23651766  0.50870055  1
  O  O232  1  0.62487926  0.24137049  0.99042166  1
  O  O233  1  0.61561816  0.74193030  0.48795520  1
  O  O234  1  0.62479632  0.74059653  0.99327876  1
  O  O235  1  0.49599871  0.23595079  0.11705472  1
  O  O236  1  0.49161089  0.25229294  0.63271560  1
  O  O237  1  0.49115862  0.74707493  0.13032602  1
  O  O238  1  0.49544356  0.74545535  0.63449108  1
  O  O239  1  0.99443526  0.25035965  0.12946687  1
  O  O240  1  0.98722010  0.24346150  0.62182821  1
  O  O241  1  1.01097134  0.74745267  0.13159985  1
  O  O242  1  0.99033777  0.73400276  0.63154426  1
  O  O243  1  0.00183765  0.25162331  0.35714046  1
  O  O244  1  0.00367547  0.26367501  0.87864003  1
  O  O245  1  0.01876480  0.76452011  0.37876244  1
  O  O246  1  0.00015596  0.75454192  0.87090599  1
  O  O247  1  0.48795050  0.26139604  0.38003562  1
  O  O248  1  0.50431668  0.25498354  0.87000515  1
  O  O249  1  0.51146151  0.74896003  0.36694121  1
  O  O250  1  0.51532295  0.74498826  0.86730133  1
  O  O251  1  0.24949648  0.12750049  0.49793004  1
  O  O252  1  0.25603624  0.13224723  0.98874241  1
  O  O253  1  0.24759162  0.63924039  0.49973740  1
  O  O254  1  0.24439925  0.63474513  0.99223291  1
  O  O255  1  0.73776869  0.12278905  0.49935753  1
  O  O256  1  0.74485941  0.12530416  0.99254388  1
  O  O257  1  0.73484765  0.62103132  0.49907999  1
  O  O258  1  0.74239571  0.62408086  0.98871537  1
  O  O259  1  0.25531347  0.37115531  0.00398591  1
  O  O260  1  0.25556417  0.36826674  0.51151954  1
  O  O261  1  0.25747282  0.86418578  -0.00725916  1
  O  O262  1  0.26042439  0.86379285  0.50220792  1
  O  O263  1  0.74931101  0.37111208  0.00574286  1
  O  O264  1  0.74430169  0.37247725  0.50731445  1
  O  O265  1  0.75866401  0.87208103  0.01038165  1
  O  O266  1  0.75951543  0.87911680  0.51426847  1
  O  O267  1  0.13550145  0.50708978  0.24234048  1
  O  O268  1  0.13639228  0.49223929  0.75277225  1
  O  O269  1  0.13330752  0.99569301  0.24425554  1
  O  O270  1  0.14006906  1.00047517  0.75449535  1
  O  O271  1  0.62372436  0.48779492  0.24726047  1
  O  O272  1  0.61770106  0.48908371  0.74214687  1
  O  O273  1  0.62859126  1.00946851  0.23822054  1
  O  O274  1  0.62971546  0.99006908  0.74599547  1
  O  O275  1  0.36633655  0.00813453  0.24738001  1
  O  O276  1  0.37100224  0.00003716  0.75757489  1
  O  O277  1  0.36933562  0.50739297  0.25589007  1
  O  O278  1  0.36280028  0.50185793  0.75722000  1
  O  O279  1  0.87765042  0.00830956  0.25728310  1
  O  O280  1  0.87843429  0.00423762  0.76400371  1
  O  O281  1  0.87005929  0.49606757  0.26876747  1
  O  O282  1  0.88090078  0.51253926  0.75161754  1
  O  O283  1  0.17584326  0.35652062  0.35826059  1
  O  O284  1  0.11930436  0.37681374  0.86416870  1
  O  O285  1  0.12094339  0.87433267  0.36589905  1
  O  O286  1  0.11352755  0.87698820  0.86741432  1
  O  O287  1  0.61141700  0.37530317  0.36213627  1
  O  O288  1  0.61972386  0.37127991  0.86766970  1
  O  O289  1  0.63126709  0.86507604  0.38248526  1
  O  O290  1  0.63492994  0.86763597  0.86296037  1
  O  O291  1  0.38315075  0.12807687  0.13395208  1
  O  O292  1  0.37889436  0.13292081  0.63279928  1
  O  O293  1  0.37974478  0.63533038  0.12760505  1
  O  O294  1  0.38198083  0.63751268  0.62844567  1
  O  O295  1  0.87703492  0.13287258  0.12951335  1
  O  O296  1  0.87835504  0.13375117  0.63311010  1
  O  O297  1  0.87106893  0.62584173  0.12893333  1
  O  O298  1  0.88004961  0.61853864  0.63502441  1
  O  O299  1  0.25175579  0.25925718  0.11702471  1
  O  O300  1  0.25689183  0.25466170  0.62002991  1
  O  O301  1  0.26186511  0.74605776  0.11530673  1
  O  O302  1  0.25733655  0.74616893  0.62225589  1
  O  O303  1  0.75773507  0.25968433  0.12336297  1
  O  O304  1  0.76334446  0.26159517  0.62596635  1
  O  O305  1  0.74254514  0.76447734  0.12506635  1
  O  O306  1  0.74778409  0.76337934  0.62530642  1
  O  O307  1  0.26701601  0.23471074  0.39629016  1
  O  O308  1  0.25475027  0.23387808  0.88150133  1
  O  O309  1  0.24132085  0.75115246  0.38452770  1
  O  O310  1  0.25522657  0.74001138  0.88164901  1
  O  O311  1  0.76180019  0.25726069  0.38410523  1
  O  O312  1  0.74465340  0.24222894  0.87518685  1
  O  O313  1  0.73118241  0.74131263  0.37331687  1
  O  O314  1  0.73934202  0.73933795  0.87591878  1
  O  O315  1  -0.00254447  0.10949538  -0.00035048  1
  O  O316  1  0.00481287  0.11937573  0.50725678  1
  O  O317  1  0.00577476  0.61653344  -0.00270541  1
  O  O318  1  -0.00732575  0.63230899  0.50624473  1
  O  O319  1  0.50414047  0.11442799  0.00619099  1
  O  O320  1  0.51494938  0.12127255  0.50589062  1
  O  O321  1  0.50527818  0.62307309  0.00429655  1
  O  O322  1  0.50784702  0.62077738  0.50712226  1
  O  O323  1  0.49388679  0.38165017  0.49385293  1
  O  O324  1  0.49238994  0.37973272  0.99345218  1
  O  O325  1  0.48659145  0.87240129  0.50641534  1
  O  O326  1  0.49477113  0.88749492  1.00464326  1
  O  O327  1  1.00674595  0.38042166  0.50261898  1
  O  O328  1  0.99969001  0.38372311  0.98609320  1
  O  O329  1  0.99400980  0.88333052  0.48875235  1
  O  O330  1  0.99368150  0.88131654  0.99294533  1
  O  O331  1  0.48783242  0.49468168  0.37816714  1
  O  O332  1  0.49283392  0.49566243  0.87967809  1
  O  O333  1  0.49708809  0.99913485  0.37871876  1
  O  O334  1  0.49234517  1.00439137  0.88448854  1
  O  O335  1  0.98921360  0.50151348  0.38934809  1
  O  O336  1  1.00668019  0.49212337  0.88641347  1
  O  O337  1  0.99517560  0.99755349  0.37968417  1
  O  O338  1  0.99551714  0.98989723  0.88110021  1
  O  O339  1  0.00874607  -0.00017940  0.11589446  1
  O  O340  1  -0.01470516  0.01740883  0.61286391  1
  O  O341  1  0.00629187  0.49902353  0.11126874  1
  O  O342  1  -0.00670957  0.50978465  0.60365388  1
  O  O343  1  0.50873020  0.00936797  0.11786819  1
  O  O344  1  0.51734051  -0.00181501  0.62522543  1
  O  O345  1  0.49716895  0.50967872  0.11705753  1
  O  O346  1  0.50788416  0.50508562  0.62191308  1
  O  O347  1  0.26389161  0.39031096  0.22887476  1
  O  O348  1  0.24179450  0.38194371  0.74791406  1
  O  O349  1  0.24411277  0.88753570  0.25439367  1
  O  O350  1  0.24695210  0.88800478  0.75408356  1
  O  O351  1  0.73500254  0.37737530  0.24083951  1
  O  O352  1  0.74033750  0.37443329  0.74261762  1
  O  O353  1  0.75674698  0.87863119  0.23753919  1
  O  O354  1  0.74887568  0.87331580  0.74051491  1
  O  O355  1  0.25588150  0.11762699  0.25826037  1
  O  O356  1  0.25665885  0.11706735  0.76137327  1
  O  O357  1  0.25729810  0.61822838  0.24887891  1
  O  O358  1  0.24679934  0.62090507  0.75614303  1
  O  O359  1  0.76517014  0.12707268  0.25429733  1
  O  O360  1  0.76280849  0.12157575  0.75621774  1
  O  O361  1  0.74753653  0.61970372  0.26166850  1
  O  O362  1  0.76126377  0.62369690  0.75810095  1
  O  O363  1  0.36742386  0.11892248  0.37002036  1
  O  O364  1  0.37075654  0.11362326  0.87093969  1
  O  O365  1  0.37546902  0.61940074  0.36986634  1
  O  O366  1  0.36593955  0.62039288  0.87340622  1
  O  O367  1  0.87554988  0.11965681  0.36794488  1
  O  O368  1  0.87308701  0.11887269  0.86985311  1
  O  O369  1  0.85495728  0.61127365  0.38662539  1
  O  O370  1  0.86110211  0.62193980  0.86986503  1
  O  O371  1  0.13377233  0.39029000  0.11802366  1
  O  O372  1  0.13678655  0.37213812  0.63852547  1
  O  O373  1  0.12419864  0.88609203  0.13822506  1
  O  O374  1  0.07605535  0.88705492  0.63967197  1
  O  O375  1  0.62693059  0.37493084  0.13204546  1
  O  O376  1  0.63152696  0.38124803  0.63213520  1
  O  O377  1  0.63909054  0.88513671  0.11993491  1
  O  O378  1  0.63742295  0.87902779  0.63344263  1
  O  O379  1  0.10997122  0.24727959  0.24384203  1
  O  O380  1  0.13232999  0.26393806  0.75272501  1
  O  O381  1  0.13258060  0.76040877  0.25850526  1
  O  O382  1  0.10556603  0.74808090  0.74598104  1
  O  O383  1  0.62594606  0.26338408  0.24589251  1
  O  O384  1  0.62184488  0.25960818  0.75299762  1
  O  O385  1  0.61495422  0.74999834  0.26471283  1
  O  O386  1  0.62152628  0.75514681  0.75593360  1
  O  O387  1  0.36103220  0.23981348  0.25175584  1
  O  O388  1  0.37713277  0.24643456  0.74233970  1
  O  O389  1  0.37751132  0.74845553  0.24300045  1
  O  O390  1  0.38339198  0.75286785  0.74728652  1
  O  O391  1  0.88653201  0.24496187  0.23688525  1
  O  O392  1  0.87507976  0.24023601  0.74283555  1
  O  O393  1  0.88776026  0.73526817  0.29470293  1
  O  O394  1  0.88524390  0.72922564  0.75700714  1
  O  O395  1  0.37745006  0.49741860  0.49355505  1
  O  O396  1  0.37570624  0.49122725  0.99332945  1
  O  O397  1  0.37639902  0.98283413  0.50581140  1
  O  O398  1  0.38184807  0.99456924  0.99598681  1
  O  O399  1  0.88416300  0.49313215  0.49114495  1
  O  O400  1  0.88795586  0.49774775  0.99974276  1
  O  O401  1  0.88433468  0.99672316  0.49187166  1
  O  O402  1  0.88295205  0.99123466  0.99083454  1
  O  O403  1  0.11782596  -0.01000082  0.00877423  1
  O  O404  1  0.11321331  0.00003776  0.49497075  1
  O  O405  1  0.11750110  0.50818046  0.00513982  1
  O  O406  1  0.10936109  0.50071968  0.49116404  1
  O  O407  1  0.61945959  0.00427842  0.00503663  1
  O  O408  1  0.62699865  0.00740163  0.50968213  1
  O  O409  1  0.61558886  0.51213490  0.00111317  1
  O  O410  1  0.61560988  0.50637645  0.50837135  1
  O  O411  1  0.37025612  0.37484537  0.11295593  1
  O  O412  1  0.36582697  0.36870152  0.62357363  1
  O  O413  1  0.37641620  0.87030742  0.11161570  1
  O  O414  1  0.37788810  0.86291292  0.61936083  1
  O  O415  1  0.86446357  0.36948889  0.12337167  1
  O  O416  1  0.86664015  0.37058833  0.63384558  1
  O  O417  1  0.86210717  0.88178878  0.11746525  1
  O  O418  1  0.86678790  0.87835270  0.61790014  1
  O  O419  1  0.14035752  0.13098410  0.37537255  1
  O  O420  1  0.13957636  0.11959110  0.87502447  1
  O  O421  1  0.12702916  0.63602704  0.37833132  1
  O  O422  1  0.13244225  0.62084303  0.88675761  1
  O  O423  1  0.63093060  0.12762288  0.38853720  1
  O  O424  1  0.63191493  0.12787471  0.87778424  1
  O  O425  1  0.62982978  0.62372409  0.38399310  1
  O  O426  1  0.63312060  0.63003579  0.87964626  1
