# generated using pymatgen
data_V85Zn86O256
_symmetry_space_group_name_H-M   'P 1'
_cell_length_a   16.93066343
_cell_length_b   16.93002238
_cell_length_c   16.93934898
_cell_angle_alpha   89.95376671
_cell_angle_beta   90.03488815
_cell_angle_gamma   89.96785022
_symmetry_Int_Tables_number   1
_chemical_formula_structural   V85Zn86O256
_chemical_formula_sum   'V85 Zn86 O256'
_cell_volume   4855.43263743
_cell_formula_units_Z   1
loop_
 _symmetry_equiv_pos_site_id
 _symmetry_equiv_pos_as_xyz
  1  'x, y, z'
loop_
 _atom_site_type_symbol
 _atom_site_label
 _atom_site_symmetry_multiplicity
 _atom_site_fract_x
 _atom_site_fract_y
 _atom_site_fract_z
 _atom_site_occupancy
  V  V0  1  0.37319115  0.49733014  0.87803115  1
  V  V1  1  0.37446559  0.87682602  0.49884184  1
  V  V2  1  -0.00115718  0.49757799  -0.00056930  1
  V  V3  1  0.50836386  0.87503048  0.36779144  1
  V  V4  1  0.00556048  0.38263403  0.37012791  1
  V  V5  1  0.36936507  0.75466305  0.62444203  1
  V  V6  1  0.36032156  0.12170336  0.75205175  1
  V  V7  1  0.37679750  0.62559475  0.23980817  1
  V  V8  1  0.75046570  0.36611579  0.62213793  1
  V  V9  1  0.37386575  0.87641416  -0.00202670  1
  V  V10  1  0.62530265  0.75389362  0.87138889  1
  V  V11  1  0.62461520  0.00180119  0.63667087  1
  V  V12  1  0.36684168  0.37816423  0.50040666  1
  V  V13  1  0.12850854  0.86839787  0.25945314  1
  V  V14  1  0.12525432  0.49730551  0.62527306  1
  V  V15  1  0.25169359  0.49670254  0.74458743  1
  V  V16  1  0.62290413  0.49476454  0.12858989  1
  V  V17  1  0.37374114  0.62582195  0.74848204  1
  V  V18  1  0.75363930  0.75006452  0.00209745  1
  V  V19  1  0.62442025  0.37343022  0.74968402  1
  V  V20  1  0.62410570  0.50016667  0.62663836  1
  V  V21  1  0.23727905  0.88890305  0.62751930  1
  V  V22  1  0.63234166  0.24791614  0.87989986  1
  V  V23  1  0.49535269  0.50306361  0.00668254  1
  V  V24  1  0.64178174  0.13398364  0.49223879  1
  V  V25  1  0.50126241  0.75392041  0.74957432  1
  V  V26  1  0.12340805  0.75552474  0.87353096  1
  V  V27  1  0.12720534  0.37244888  0.74813568  1
  V  V28  1  -0.00658353  0.88401456  0.88102495  1
  V  V29  1  0.50060085  0.87881318  0.86853526  1
  V  V30  1  0.37685968  0.00525960  0.36956469  1
  V  V31  1  0.25045795  0.12809110  0.37195165  1
  V  V32  1  0.73607731  0.00036298  0.25428959  1
  V  V33  1  0.00205792  0.62367594  0.62573749  1
  V  V34  1  0.75844959  0.62413609  0.37812012  1
  V  V35  1  0.13923142  0.24626441  0.88301351  1
  V  V36  1  0.87330641  0.62476012  0.75099478  1
  V  V37  1  0.49845733  0.37420001  0.88249802  1
  V  V38  1  0.13289194  0.12049303  0.00068121  1
  V  V39  1  0.48682167  0.24687572  0.25161821  1
  V  V40  1  -0.00011925  0.37059884  0.87544389  1
  V  V41  1  0.76160065  0.12173431  0.87614338  1
  V  V42  1  0.62105157  0.62602017  0.00553742  1
  V  V43  1  0.87460197  0.12052552  0.25702329  1
  V  V44  1  0.00272719  0.75649375  0.75210727  1
  V  V45  1  0.87405402  0.49906034  0.87505546  1
  V  V46  1  0.62367270  0.63023630  0.49741375  1
  V  V47  1  0.00232613  0.74741471  0.25968258  1
  V  V48  1  0.86281841  0.36895498  -0.00086511  1
  V  V49  1  0.49557095  0.12080113  0.12847276  1
  V  V50  1  0.87248697  0.75094577  0.62702390  1
  V  V51  1  0.12365002  0.49148848  0.13175154  1
  V  V52  1  -0.00291443  0.62477417  0.12603027  1
  V  V53  1  0.25018207  0.87379979  0.12500280  1
  V  V54  1  0.25262950  0.00562698  0.24642159  1
  V  V55  1  0.24720141  0.25468216  0.50012696  1
  V  V56  1  0.50407624  -0.00054211  0.00173136  1
  V  V57  1  0.50775540  0.74812090  0.23988816  1
  V  V58  1  0.12374255  0.62310711  -0.00069915  1
  V  V59  1  0.49911433  0.50025373  0.49876073  1
  V  V60  1  0.00404954  0.00945925  0.49917266  1
  V  V61  1  0.74863724  0.49956671  0.75071845  1
  V  V62  1  0.86800545  0.24612579  0.12219570  1
  V  V63  1  0.87484327  0.87743122  0.49732168  1
  V  V64  1  0.73842090  0.87892049  0.13118506  1
  V  V65  1  0.00809253  0.24851511  0.24854890  1
  V  V66  1  0.74947677  0.50147322  0.25370685  1
  V  V67  1  0.49991440  0.36931270  0.37081280  1
  V  V68  1  0.87842230  0.24034126  0.62515857  1
  V  V69  1  0.50024067  0.24663903  0.74973263  1
  V  V70  1  0.76962123  0.00124100  0.75553524  1
  V  V71  1  0.37171655  0.25567838  0.62503115  1
  V  V72  1  0.87264684  0.37559698  0.49484385  1
  V  V73  1  0.62824913  0.12328749  0.00274038  1
  V  V74  1  -0.00333791  0.23801824  0.74932253  1
  V  V75  1  0.87719917  0.89065118  0.00368910  1
  V  V76  1  0.74482053  0.87586146  0.62972143  1
  V  V77  1  0.11413673  -0.00208236  0.12418373  1
  V  V78  1  0.24957470  0.74773719  -0.00008931  1
  V  V79  1  0.37421170  0.25300534  0.10491480  1
  V  V80  1  0.37654091  0.50275467  0.36931677  1
  V  V81  1  0.66942630  0.31479429  0.30770518  1
  V  V82  1  0.50445682  0.00454477  0.50013997  1
  V  V83  1  0.24700887  0.36783835  0.11618029  1
  V  V84  1  0.49902272  0.62781932  0.62334067  1
  Zn  Zn85  1  0.06443564  0.06853343  0.66271417  1
  Zn  Zn86  1  0.38006982  0.74406423  0.11880885  1
  Zn  Zn87  1  -0.00534864  0.50096302  0.49730398  1
  Zn  Zn88  1  0.23474499  0.75589496  0.48937723  1
  Zn  Zn89  1  0.87464582  0.74985395  0.12930769  1
  Zn  Zn90  1  0.12946817  0.25700603  0.36799368  1
  Zn  Zn91  1  0.74886473  0.62545386  0.87647087  1
  Zn  Zn92  1  0.12508952  0.63184344  0.49265416  1
  Zn  Zn93  1  0.00408900  0.87211414  0.37934163  1
  Zn  Zn94  1  0.36306072  0.00801844  0.87583928  1
  Zn  Zn95  1  0.24453961  0.63691620  0.37055901  1
  Zn  Zn96  1  0.24753838  0.62537623  0.87244370  1
  Zn  Zn97  1  0.87686615  0.62024076  0.25610290  1
  Zn  Zn98  1  0.25083197  0.49614482  0.24577312  1
  Zn  Zn99  1  -0.00283295  0.12155918  0.12000079  1
  Zn  Zn100  1  0.21088311  0.98975391  0.76335046  1
  Zn  Zn101  1  0.62774361  0.75331686  0.36923621  1
  Zn  Zn102  1  0.12565032  0.12600430  0.50093432  1
  Zn  Zn103  1  0.87207293  0.00179513  0.37429869  1
  Zn  Zn104  1  0.74260724  0.36896351  0.12409024  1
  Zn  Zn105  1  0.74873997  0.75392072  0.49856372  1
  Zn  Zn106  1  0.50171638  0.12751812  0.62334006  1
  Zn  Zn107  1  0.19064982  0.18584525  0.18244846  1
  Zn  Zn108  1  0.18886308  0.19663682  0.68527859  1
  Zn  Zn109  1  0.18864523  0.68415412  0.18767067  1
  Zn  Zn110  1  0.18730219  0.69011638  0.68482773  1
  Zn  Zn111  1  0.68666454  0.17820254  0.18380444  1
  Zn  Zn112  1  0.68954680  0.18174761  0.68752833  1
  Zn  Zn113  1  0.68710288  0.68432144  0.18577776  1
  Zn  Zn114  1  0.68629443  0.68869819  0.68856212  1
  Zn  Zn115  1  0.31113417  0.31711499  0.30625130  1
  Zn  Zn116  1  0.31403776  0.31547605  0.81228468  1
  Zn  Zn117  1  0.31966159  0.81384155  0.30894052  1
  Zn  Zn118  1  0.30933091  0.81893912  0.81177881  1
  Zn  Zn119  1  0.83107726  0.31177079  0.30832957  1
  Zn  Zn120  1  0.81274435  0.30892138  0.81012554  1
  Zn  Zn121  1  0.81278736  0.80921263  0.31162900  1
  Zn  Zn122  1  0.81276039  0.81660734  0.81470459  1
  Zn  Zn123  1  0.17368151  0.46716486  0.42104786  1
  Zn  Zn124  1  0.18951927  0.43466034  0.93931923  1
  Zn  Zn125  1  0.18858221  0.93993424  0.43974344  1
  Zn  Zn126  1  0.18448438  0.93799734  0.93936309  1
  Zn  Zn127  1  0.69148738  0.44279006  0.44340193  1
  Zn  Zn128  1  0.68386877  0.43934258  0.93711172  1
  Zn  Zn129  1  0.68759010  0.94320584  0.44065491  1
  Zn  Zn130  1  0.68849395  0.93774744  0.93735432  1
  Zn  Zn131  1  0.31368044  0.06369078  0.06199558  1
  Zn  Zn132  1  0.31250081  0.06674950  0.56387971  1
  Zn  Zn133  1  0.30923407  0.55906998  0.06158330  1
  Zn  Zn134  1  0.30764576  0.56564450  0.55926202  1
  Zn  Zn135  1  0.80796158  0.06333403  0.06890954  1
  Zn  Zn136  1  0.81407683  0.05915630  0.56279779  1
  Zn  Zn137  1  0.80966423  0.55952052  0.06446379  1
  Zn  Zn138  1  0.81179577  0.55939872  0.56325738  1
  Zn  Zn139  1  0.43633226  0.42975796  0.18617164  1
  Zn  Zn140  1  0.43822536  0.43590600  0.68792623  1
  Zn  Zn141  1  0.43893305  0.93520980  0.18611759  1
  Zn  Zn142  1  0.43532481  0.94046958  0.68601642  1
  Zn  Zn143  1  0.93270404  0.43517624  0.18662754  1
  Zn  Zn144  1  0.93665774  0.43257262  0.68742478  1
  Zn  Zn145  1  0.93399840  0.93203616  0.19103051  1
  Zn  Zn146  1  0.94181860  0.93539123  0.68524153  1
  Zn  Zn147  1  0.06250159  0.06104266  0.31524132  1
  Zn  Zn148  1  0.05558726  0.06422913  0.83130982  1
  Zn  Zn149  1  0.06048150  0.55992401  0.31152129  1
  Zn  Zn150  1  0.06228839  0.56417200  0.81182237  1
  Zn  Zn151  1  0.56367848  0.06863421  0.31362391  1
  Zn  Zn152  1  0.56162328  0.06395469  0.81544461  1
  Zn  Zn153  1  0.56311948  0.56543290  0.31115874  1
  Zn  Zn154  1  0.56112733  0.56581899  0.81583798  1
  Zn  Zn155  1  0.43719089  0.18724009  0.43688940  1
  Zn  Zn156  1  0.44019323  0.18350910  0.93307215  1
  Zn  Zn157  1  0.43048299  0.69161785  0.43130725  1
  Zn  Zn158  1  0.43720993  0.68569065  0.93583762  1
  Zn  Zn159  1  0.93395782  0.19369265  0.43551509  1
  Zn  Zn160  1  0.94474594  0.18627021  0.94324613  1
  Zn  Zn161  1  0.93902322  0.68953574  0.44285459  1
  Zn  Zn162  1  0.93621316  0.68833859  0.93793281  1
  Zn  Zn163  1  0.05924208  0.30806429  0.06125246  1
  Zn  Zn164  1  0.06037139  0.30996304  0.56176304  1
  Zn  Zn165  1  0.06165396  0.81106525  0.06656870  1
  Zn  Zn166  1  0.05967386  0.81419905  0.56087220  1
  Zn  Zn167  1  0.56174794  0.30988498  0.06227196  1
  Zn  Zn168  1  0.56064555  0.31126307  0.55903729  1
  Zn  Zn169  1  0.56357089  0.81400100  0.05903179  1
  Zn  Zn170  1  0.56145712  0.81699405  0.56186146  1
  O  O171  1  0.12405797  0.11450434  0.12027669  1
  O  O172  1  0.12154379  0.14775522  0.61206735  1
  O  O173  1  0.11443429  0.61496015  0.11962451  1
  O  O174  1  0.11609575  0.61551590  0.62924656  1
  O  O175  1  0.61098031  0.13061761  0.11170892  1
  O  O176  1  0.62299911  0.11623371  0.61811350  1
  O  O177  1  0.62779736  0.61428623  0.11221146  1
  O  O178  1  0.61862870  0.62082575  0.61892505  1
  O  O179  1  0.38512838  0.37881813  0.38022707  1
  O  O180  1  0.38461383  0.38773379  0.86819378  1
  O  O181  1  0.38482848  0.88698036  0.38194491  1
  O  O182  1  0.38310289  0.87329752  0.88566141  1
  O  O183  1  0.88070829  0.37151858  0.38957779  1
  O  O184  1  0.88092359  0.37682675  0.88026113  1
  O  O185  1  0.87468803  0.87030516  0.38954235  1
  O  O186  1  0.87846722  0.86789472  0.89497911  1
  O  O187  1  0.25727767  0.00674372  0.36924861  1
  O  O188  1  0.25240543  -0.01292549  0.86734992  1
  O  O189  1  0.27198238  0.48835974  0.36587119  1
  O  O190  1  0.25722509  0.50031081  0.86579233  1
  O  O191  1  0.75263820  -0.01006634  0.35797919  1
  O  O192  1  0.74760272  0.00385507  0.86235475  1
  O  O193  1  0.74145729  0.51036677  0.36628548  1
  O  O194  1  0.75478316  0.50134883  0.86856845  1
  O  O195  1  0.23961123  0.49052012  0.12279051  1
  O  O196  1  0.24348771  0.50333184  0.63715267  1
  O  O197  1  0.24700436  0.99399541  0.13253803  1
  O  O198  1  0.24929709  0.99135483  0.62444272  1
  O  O199  1  0.73945472  0.49492390  0.13159501  1
  O  O200  1  0.74253257  0.48996863  0.63104894  1
  O  O201  1  0.75155967  0.98585375  0.13577294  1
  O  O202  1  0.74598197  0.99600520  0.63811875  1
  O  O203  1  -0.01357862  0.36637851  0.26388563  1
  O  O204  1  0.00664329  0.37255763  0.76323332  1
  O  O205  1  0.00932987  0.86430706  0.25153336  1
  O  O206  1  -0.01222111  0.86216408  0.76207177  1
  O  O207  1  0.50024619  0.36610727  0.26209455  1
  O  O208  1  0.50478413  0.36622081  0.75823328  1
  O  O209  1  0.49538026  0.86270741  0.25635844  1
  O  O210  1  0.49325704  0.87276870  0.76215991  1
  O  O211  1  0.50399487  0.13236418  0.23883420  1
  O  O212  1  0.49736214  0.13860482  0.74932192  1
  O  O213  1  0.49446250  0.64040244  0.25251352  1
  O  O214  1  0.49375314  0.63106404  0.74298287  1
  O  O215  1  0.99357154  0.13054169  0.24737054  1
  O  O216  1  1.00048099  0.13675757  0.75448655  1
  O  O217  1  0.99872142  0.62818851  0.24396167  1
  O  O218  1  0.99417467  0.63333406  0.74278277  1
  O  O219  1  0.38153817  0.25023663  0.00642966  1
  O  O220  1  0.36932076  0.25716057  0.50570815  1
  O  O221  1  0.36896101  0.75543864  -0.00108566  1
  O  O222  1  0.38306379  0.76623239  0.50839891  1
  O  O223  1  0.87976573  0.25825675  0.00899328  1
  O  O224  1  0.88006123  0.26423319  0.51070616  1
  O  O225  1  0.86051277  0.74765716  0.00370335  1
  O  O226  1  0.87328553  0.75790654  0.51105611  1
  O  O227  1  0.14098090  0.26059542  0.49401424  1
  O  O228  1  0.12562235  0.24717702  0.98793850  1
  O  O229  1  0.12104146  0.74520189  0.50139552  1
  O  O230  1  0.12913632  0.74278848  0.99568219  1
  O  O231  1  0.62275290  0.23275009  0.50795581  1
  O  O232  1  0.61923821  0.23965826  0.98948238  1
  O  O233  1  0.62448025  0.73902099  0.50245594  1
  O  O234  1  0.63296088  0.74367634  0.99573472  1
  O  O235  1  0.48942787  0.24628347  0.12867819  1
  O  O236  1  0.49042473  0.25162999  0.63328732  1
  O  O237  1  0.50050002  0.75530688  0.13570230  1
  O  O238  1  0.49122808  0.75035374  0.63041516  1
  O  O239  1  0.98890920  0.25180246  0.13321753  1
  O  O240  1  0.98968408  0.25902774  0.63668718  1
  O  O241  1  0.99930374  0.73844056  0.13416455  1
  O  O242  1  0.99363101  0.74543815  0.63538593  1
  O  O243  1  0.00312228  0.26002200  0.36662282  1
  O  O244  1  0.00645891  0.25708819  0.86891750  1
  O  O245  1  -0.00010096  0.74789428  0.36397094  1
  O  O246  1  0.00437383  0.75346485  0.86945600  1
  O  O247  1  0.49577577  0.25563937  0.36584561  1
  O  O248  1  0.50718760  0.25725767  0.86856756  1
  O  O249  1  0.50054184  0.75986989  0.36452058  1
  O  O250  1  0.50553379  0.75728733  0.87041305  1
  O  O251  1  0.25308929  0.13720880  0.49097548  1
  O  O252  1  0.23497912  0.12558392  1.00708272  1
  O  O253  1  0.24785659  0.63240061  0.49435270  1
  O  O254  1  0.24289777  0.63041030  0.99587656  1
  O  O255  1  0.74123029  0.12174992  0.50071408  1
  O  O256  1  0.73652779  0.11358272  0.99314397  1
  O  O257  1  0.74106200  0.62461241  0.49596480  1
  O  O258  1  0.74204378  0.63239011  0.99922685  1
  O  O259  1  0.25569319  0.38034363  0.01521643  1
  O  O260  1  0.26419168  0.37233078  0.49096202  1
  O  O261  1  0.25722354  0.86823702  0.00475926  1
  O  O262  1  0.25882726  0.87694416  0.50919579  1
  O  O263  1  0.75994714  0.37609518  -0.00296604  1
  O  O264  1  0.76045478  0.37659985  0.50801687  1
  O  O265  1  0.75827680  0.87081354  0.00807487  1
  O  O266  1  0.75635607  0.87717484  0.51044635  1
  O  O267  1  0.12317272  0.49694417  0.23358139  1
  O  O268  1  0.13166249  0.49384404  0.74606789  1
  O  O269  1  0.13436191  0.99240204  0.24412755  1
  O  O270  1  0.10232465  1.00530039  0.74691963  1
  O  O271  1  0.63152367  0.50591112  0.23866541  1
  O  O272  1  0.62684336  0.49485824  0.74680414  1
  O  O273  1  0.63683554  1.00282852  0.25096268  1
  O  O274  1  0.62367258  1.00299072  0.73889510  1
  O  O275  1  0.36535965  -0.00699231  0.25816663  1
  O  O276  1  0.37964878  0.01909632  0.74847709  1
  O  O277  1  0.38396105  0.50793885  0.25388722  1
  O  O278  1  0.36842695  0.50348216  0.75333645  1
  O  O279  1  0.86958978  0.00582789  0.25145746  1
  O  O280  1  0.86784600  0.00135147  0.74930997  1
  O  O281  1  0.85487582  0.49938488  0.24360388  1
  O  O282  1  0.86943838  0.50312358  0.75546006  1
  O  O283  1  0.10963934  0.37865974  0.37437453  1
  O  O284  1  0.11876832  0.36729377  0.87124429  1
  O  O285  1  0.12715652  0.87942567  0.36193154  1
  O  O286  1  0.11074929  0.86066084  0.88728865  1
  O  O287  1  0.61919680  0.37335213  0.37918458  1
  O  O288  1  0.61891030  0.36727778  0.87028381  1
  O  O289  1  0.61136724  0.87438292  0.38359238  1
  O  O290  1  0.61528097  0.86321854  0.88307265  1
  O  O291  1  0.38510564  0.13789019  0.11877399  1
  O  O292  1  0.37851763  0.13562739  0.63496133  1
  O  O293  1  0.37326598  0.62308628  0.13501289  1
  O  O294  1  0.38006267  0.63508447  0.62769726  1
  O  O295  1  0.87726786  0.13045974  0.13144733  1
  O  O296  1  0.86804555  0.14131515  0.62116254  1
  O  O297  1  0.88800591  0.62212808  0.12485326  1
  O  O298  1  0.88046533  0.62924064  0.63090642  1
  O  O299  1  0.26292549  0.25572085  0.12399397  1
  O  O300  1  0.26374588  0.25495169  0.61559158  1
  O  O301  1  0.25115678  0.75468300  0.11545707  1
  O  O302  1  0.26195689  0.75853273  0.62377988  1
  O  O303  1  0.76208937  0.25094394  0.13196846  1
  O  O304  1  0.75621364  0.26216187  0.63602820  1
  O  O305  1  0.75005902  0.75941877  0.12002679  1
  O  O306  1  0.75372531  0.75959504  0.62657333  1
  O  O307  1  0.25305050  0.24493291  0.37782802  1
  O  O308  1  0.23710198  0.25605000  0.87314492  1
  O  O309  1  0.26603164  0.74901181  0.37955318  1
  O  O310  1  0.24060735  0.75156309  0.88034881  1
  O  O311  1  0.73503538  0.25905309  0.35567075  1
  O  O312  1  0.73747995  0.24165163  0.86660600  1
  O  O313  1  0.74511356  0.74158062  0.37798190  1
  O  O314  1  0.74130453  0.75106947  0.88267867  1
  O  O315  1  0.01971383  0.13021091  0.00576002  1
  O  O316  1  -0.00138877  0.11289983  0.48904037  1
  O  O317  1  0.00333964  0.61926279  0.00711927  1
  O  O318  1  -0.00060475  0.61971484  0.51416435  1
  O  O319  1  0.50544250  0.11622397  0.00315133  1
  O  O320  1  0.49788869  0.11269605  0.50202348  1
  O  O321  1  0.50801120  0.61581970  -0.00445175  1
  O  O322  1  0.50420161  0.62198924  0.50320593  1
  O  O323  1  0.49417179  0.37971615  0.48936168  1
  O  O324  1  0.50463980  0.38288213  0.98691047  1
  O  O325  1  0.49449515  0.88746692  0.49399444  1
  O  O326  1  0.49365025  0.88052472  0.99274038  1
  O  O327  1  0.99178795  0.37577077  0.48806627  1
  O  O328  1  0.99278701  0.37757737  0.98919646  1
  O  O329  1  0.99054854  0.88462807  0.50001252  1
  O  O330  1  0.98289397  0.86519634  0.99871014  1
  O  O331  1  0.49456048  0.49253250  0.37812817  1
  O  O332  1  0.49430970  0.49361874  0.88182576  1
  O  O333  1  0.49435857  0.99627628  0.37798875  1
  O  O334  1  0.49532019  0.99305207  0.88122697  1
  O  O335  1  0.99286015  0.48600061  0.37418230  1
  O  O336  1  0.99476828  0.49225751  0.87856120  1
  O  O337  1  0.99472683  0.99393864  0.38390308  1
  O  O338  1  0.99558996  0.98327069  0.88414131  1
  O  O339  1  0.01189389  -0.00314056  0.13260173  1
  O  O340  1  -0.01066716  0.00200829  0.60558471  1
  O  O341  1  0.00428084  0.50108877  0.11924645  1
  O  O342  1  0.00673419  0.50880326  0.63230538  1
  O  O343  1  0.49319606  0.00905169  0.11618781  1
  O  O344  1  0.50824003  -0.00003885  0.61707289  1
  O  O345  1  0.50359176  0.49225379  0.11234447  1
  O  O346  1  0.50511264  0.50581423  0.61973815  1
  O  O347  1  0.25853894  0.37967494  0.22697305  1
  O  O348  1  0.24009219  0.38408688  0.75382679  1
  O  O349  1  0.24603249  0.88113632  0.24315316  1
  O  O350  1  0.25436611  0.87908737  0.73216842  1
  O  O351  1  0.73925545  0.37750953  0.25467169  1
  O  O352  1  0.74280868  0.38052107  0.74421988  1
  O  O353  1  0.75368622  0.88151410  0.23823940  1
  O  O354  1  0.75433632  0.88914246  0.74460216  1
  O  O355  1  0.24819029  0.11390726  0.25530714  1
  O  O356  1  0.25936144  0.12557663  0.74548259  1
  O  O357  1  0.25980800  0.61794839  0.25064967  1
  O  O358  1  0.25637468  0.61838093  0.75114646  1
  O  O359  1  0.75663555  0.10710167  0.24124770  1
  O  O360  1  0.74682614  0.10960732  0.75979000  1
  O  O361  1  0.75116018  0.61894776  0.25920190  1
  O  O362  1  0.75462820  0.61771049  0.75132732  1
  O  O363  1  0.36705440  0.11293698  0.37800508  1
  O  O364  1  0.37608053  0.12837373  0.85688707  1
  O  O365  1  0.37847184  0.61550870  0.36222263  1
  O  O366  1  0.37503355  0.61359885  0.86610517  1
  O  O367  1  0.87329857  0.12831047  0.36035437  1
  O  O368  1  0.86013694  0.13387723  0.88533025  1
  O  O369  1  0.86233091  0.62572299  0.38053535  1
  O  O370  1  0.87323875  0.61755196  0.86913720  1
  O  O371  1  0.13531241  0.37739997  0.11681240  1
  O  O372  1  0.11679094  0.37938775  0.64162606  1
  O  O373  1  0.13174148  0.88099446  0.13066203  1
  O  O374  1  0.13943278  0.87388718  0.62203692  1
  O  O375  1  0.62604809  0.38822887  0.11574819  1
  O  O376  1  0.63044482  0.37883448  0.62813959  1
  O  O377  1  0.64013331  0.87519175  0.11837749  1
  O  O378  1  0.63767767  0.88356313  0.62048891  1
  O  O379  1  0.11241187  0.24589340  0.24670038  1
  O  O380  1  0.11940182  0.25722712  0.76137878  1
  O  O381  1  0.11824336  0.75780173  0.24347350  1
  O  O382  1  0.11445959  0.74614959  0.75950545  1
  O  O383  1  0.61567331  0.25278270  0.24439780  1
  O  O384  1  0.61711537  0.25338793  0.75473853  1
  O  O385  1  0.61212660  0.74556620  0.24991510  1
  O  O386  1  0.61683632  0.74597202  0.76113483  1
  O  O387  1  0.38485540  0.25027970  0.24122265  1
  O  O388  1  0.37936817  0.24594832  0.74345666  1
  O  O389  1  0.38645191  0.74261862  0.24249542  1
  O  O390  1  0.37972494  0.74736580  0.74296846  1
  O  O391  1  0.88449241  0.23981476  0.24082787  1
  O  O392  1  0.88633020  0.25710256  0.74071128  1
  O  O393  1  0.88547513  0.74416640  0.24757392  1
  O  O394  1  0.87924134  0.74387377  0.74713744  1
  O  O395  1  0.38109829  0.49516718  0.49362316  1
  O  O396  1  0.38275971  0.50655316  0.98922547  1
  O  O397  1  0.38159310  0.99336167  0.49491352  1
  O  O398  1  0.38326077  0.99331937  0.99644512  1
  O  O399  1  0.87796057  0.48120779  0.51052791  1
  O  O400  1  0.87928981  0.49107039  0.99485081  1
  O  O401  1  0.87996007  0.99365687  0.49473054  1
  O  O402  1  0.87310328  0.98889957  1.00603561  1
  O  O403  1  0.12742563  0.00708690  0.01169962  1
  O  O404  1  0.10929550  0.00251268  0.49637400  1
  O  O405  1  0.11709792  0.50430582  0.00381724  1
  O  O406  1  0.11930004  0.49045460  0.52108400  1
  O  O407  1  0.61179335  0.00587845  -0.00596624  1
  O  O408  1  0.61940577  0.00767300  0.51046326  1
  O  O409  1  0.61654318  0.50835191  0.00259410  1
  O  O410  1  0.61852768  0.51052576  0.50659693  1
  O  O411  1  0.37121093  0.35965598  0.12032783  1
  O  O412  1  0.38243110  0.36870991  0.61321632  1
  O  O413  1  0.37065957  0.87283555  0.11110471  1
  O  O414  1  0.37115482  0.87180083  0.61665580  1
  O  O415  1  0.86922365  0.36739452  0.11527543  1
  O  O416  1  0.86700252  0.36873243  0.61869651  1
  O  O417  1  0.86715755  0.87051570  0.11495638  1
  O  O418  1  0.86496758  0.87139111  0.61809394  1
  O  O419  1  0.13926825  0.12884813  0.37784264  1
  O  O420  1  0.12549284  0.13831648  0.88499933  1
  O  O421  1  0.13985564  0.58057280  0.38712386  1
  O  O422  1  0.12324360  0.63531618  0.88149585  1
  O  O423  1  0.62286180  0.12129529  0.39348565  1
  O  O424  1  0.62988700  0.13136474  0.88270370  1
  O  O425  1  0.63090938  0.62753631  0.38493350  1
  O  O426  1  0.62500088  0.63600486  0.88529024  1
