# generated using pymatgen
data_V85Zn86O256
_symmetry_space_group_name_H-M   'P 1'
_cell_length_a   16.96186017
_cell_length_b   16.97376620
_cell_length_c   16.96374021
_cell_angle_alpha   89.87884053
_cell_angle_beta   89.97068195
_cell_angle_gamma   90.08888543
_symmetry_Int_Tables_number   1
_chemical_formula_structural   V85Zn86O256
_chemical_formula_sum   'V85 Zn86 O256'
_cell_volume   4883.95615177
_cell_formula_units_Z   1
loop_
 _symmetry_equiv_pos_site_id
 _symmetry_equiv_pos_as_xyz
  1  'x, y, z'
loop_
 _atom_site_type_symbol
 _atom_site_label
 _atom_site_symmetry_multiplicity
 _atom_site_fract_x
 _atom_site_fract_y
 _atom_site_fract_z
 _atom_site_occupancy
  V  V0  1  0.24285283  0.37280246  0.62422044  1
  V  V1  1  0.75196658  0.00334087  0.24941873  1
  V  V2  1  0.62377166  0.12618261  0.50159055  1
  V  V3  1  0.00495395  0.01797883  0.00319014  1
  V  V4  1  0.23968265  0.50240104  0.74325834  1
  V  V5  1  0.88887735  0.12992899  0.24796438  1
  V  V6  1  0.75146136  0.61912401  0.87112952  1
  V  V7  1  0.12320097  0.87595029  0.75301314  1
  V  V8  1  0.63236738  0.62631437  0.49979877  1
  V  V9  1  0.62721939  0.49842178  0.12536811  1
  V  V10  1  0.00139869  0.85419516  0.35021556  1
  V  V11  1  0.00043788  0.36410692  0.37077523  1
  V  V12  1  -0.00535404  0.62165857  0.13451194  1
  V  V13  1  0.62282559  0.00260957  0.62630442  1
  V  V14  1  0.24570122  0.38011406  0.12201536  1
  V  V15  1  0.87278631  0.12697063  0.75103058  1
  V  V16  1  0.37598240  0.00807005  0.87173456  1
  V  V17  1  0.74960026  0.25234702  0.49947982  1
  V  V18  1  0.50172888  0.49846564  -0.00255831  1
  V  V19  1  0.62653996  0.87704472  0.75017176  1
  V  V20  1  0.25236192  0.87545761  0.62099377  1
  V  V21  1  0.49915518  0.74936076  0.75131505  1
  V  V22  1  0.01227277  0.49514288  0.50412717  1
  V  V23  1  0.11849567  0.62077912  0.00202915  1
  V  V24  1  0.37548668  0.49861694  0.87167247  1
  V  V25  1  -0.00089443  0.26019818  0.75953116  1
  V  V26  1  0.36891488  0.37335940  -0.00217020  1
  V  V27  1  0.87142221  0.62171861  0.74895744  1
  V  V28  1  0.49233059  0.74601894  0.24923254  1
  V  V29  1  0.75090374  0.12534260  0.37427547  1
  V  V30  1  0.37491965  0.87423938  0.00002680  1
  V  V31  1  0.13253658  0.25403276  0.88520537  1
  V  V32  1  0.75817330  0.50385762  0.25173993  1
  V  V33  1  0.37502458  0.37033325  0.50818391  1
  V  V34  1  0.74896329  0.37929369  0.62765392  1
  V  V35  1  0.50237036  0.36156912  0.87538240  1
  V  V36  1  0.48368753  0.12789602  0.62550322  1
  V  V37  1  0.75597500  0.37389512  0.12269600  1
  V  V38  1  0.36864108  0.24911435  0.12346205  1
  V  V39  1  0.62530150  0.36757050  0.75282380  1
  V  V40  1  0.23723664  0.87432059  0.12693430  1
  V  V41  1  0.37219983  0.62711105  0.74794069  1
  V  V42  1  0.87583401  0.48642511  0.87505262  1
  V  V43  1  0.00921841  0.61860777  0.62916189  1
  V  V44  1  0.62646367  0.87543978  0.24772744  1
  V  V45  1  0.25620896  0.50466506  0.25431097  1
  V  V46  1  0.88475471  0.24792790  0.12467742  1
  V  V47  1  0.36631189  -0.00142298  0.37354178  1
  V  V48  1  0.62475122  0.25030557  0.37413932  1
  V  V49  1  -0.00224010  0.48753956  -0.00064688  1
  V  V50  1  0.61976880  0.13193710  -0.00187986  1
  V  V51  1  0.49337242  0.62289510  0.12803037  1
  V  V52  1  0.62683314  0.50131051  0.63288240  1
  V  V53  1  0.49956093  0.87355057  0.87660678  1
  V  V54  1  -0.00258530  0.87732090  0.89039692  1
  V  V55  1  0.12364631  0.75025414  0.87509701  1
  V  V56  1  0.74312749  0.12933009  0.87551019  1
  V  V57  1  0.24799804  0.74851018  -0.00338084  1
  V  V58  1  0.25019276  0.01145439  0.75445161  1
  V  V59  1  0.49784960  0.37691853  0.37470328  1
  V  V60  1  0.62699197  0.74904018  0.87651108  1
  V  V61  1  0.50086300  0.50133131  0.50077729  1
  V  V62  1  0.49741477  -0.00507621  0.49891592  1
  V  V63  1  0.12452003  0.02044715  0.12638082  1
  V  V64  1  0.75204811  0.25432781  -0.00166410  1
  V  V65  1  0.62808844  0.74995720  0.37293917  1
  V  V66  1  0.76282152  0.75600166  -0.00263262  1
  V  V67  1  -0.00771878  -0.00579574  0.50003286  1
  V  V68  1  0.49955426  0.24789594  0.24849492  1
  V  V69  1  -0.00279428  0.75110404  0.75310641  1
  V  V70  1  0.12259812  0.00328604  0.62359302  1
  V  V71  1  0.87450389  0.37844067  0.49614540  1
  V  V72  1  0.00014231  0.13048773  0.62403151  1
  V  V73  1  0.36460122  0.12361978  0.25415382  1
  V  V74  1  0.37762607  0.75732701  0.61322610  1
  V  V75  1  0.12409110  0.37243161  0.24707558  1
  V  V76  1  0.14586143  0.24682209  0.37957043  1
  V  V77  1  0.48678765  0.24645458  0.74589430  1
  V  V78  1  0.87375265  -0.00147474  0.88359443  1
  V  V79  1  0.24887379  0.62334948  0.87444634  1
  V  V80  1  0.87591068  0.74999957  0.14308830  1
  V  V81  1  0.75664454  0.87674510  0.61840330  1
  V  V82  1  0.49515165  0.87436660  0.37641515  1
  V  V83  1  0.62427902  0.00121795  0.12343750  1
  V  V84  1  0.62655634  0.62570085  -0.00094383  1
  Zn  Zn85  1  0.11918310  0.72724642  0.33130349  1
  Zn  Zn86  1  0.23799218  -0.00294128  0.25753500  1
  Zn  Zn87  1  0.62551643  0.37380085  0.24865084  1
  Zn  Zn88  1  0.50130388  0.62667392  0.62529323  1
  Zn  Zn89  1  0.30642544  0.20615796  0.55983775  1
  Zn  Zn90  1  0.87725552  -0.00388451  0.37858759  1
  Zn  Zn91  1  0.74853707  0.00236349  0.75249904  1
  Zn  Zn92  1  0.11737391  0.38093334  0.75017059  1
  Zn  Zn93  1  0.87499344  0.74966094  0.62162187  1
  Zn  Zn94  1  0.49797450  0.12438338  0.12392649  1
  Zn  Zn95  1  0.37360052  0.74804717  0.12446189  1
  Zn  Zn96  1  0.11879120  0.62834818  0.48558052  1
  Zn  Zn97  1  0.25846124  0.65015441  0.40126080  1
  Zn  Zn98  1  0.13688556  0.12887669  0.49686189  1
  Zn  Zn99  1  0.23488900  0.12423730  0.89620281  1
  Zn  Zn100  1  0.88770988  0.50693378  0.36668372  1
  Zn  Zn101  1  0.50069637  0.00013929  -0.00007651  1
  Zn  Zn102  1  0.76187516  0.75624001  0.49354419  1
  Zn  Zn103  1  0.75687653  0.87936806  0.11763962  1
  Zn  Zn104  1  0.76050497  0.63322875  0.36493706  1
  Zn  Zn105  1  0.87529716  0.25321888  0.62499579  1
  Zn  Zn106  1  0.37821378  0.51349792  0.36975432  1
  Zn  Zn107  1  0.18762682  0.19329870  0.19145245  1
  Zn  Zn108  1  0.18252265  0.19002044  0.69542217  1
  Zn  Zn109  1  0.19136391  0.67836104  0.17554230  1
  Zn  Zn110  1  0.19185013  0.69274736  0.60171393  1
  Zn  Zn111  1  0.68822970  0.18744430  0.18498439  1
  Zn  Zn112  1  0.68265687  0.19133079  0.68703080  1
  Zn  Zn113  1  0.68710591  0.68726650  0.18340082  1
  Zn  Zn114  1  0.68949748  0.69010133  0.68752614  1
  Zn  Zn115  1  0.31632458  0.31953717  0.31067523  1
  Zn  Zn116  1  0.30871999  0.31367697  0.80893203  1
  Zn  Zn117  1  0.30794925  0.81291436  0.30887480  1
  Zn  Zn118  1  0.31016486  0.81504486  0.80935074  1
  Zn  Zn119  1  0.81363828  0.31498312  0.30904364  1
  Zn  Zn120  1  0.80737771  0.31026934  0.81059035  1
  Zn  Zn121  1  0.81572916  0.82117360  0.31563052  1
  Zn  Zn122  1  0.81353281  0.81352178  0.81124268  1
  Zn  Zn123  1  0.18988302  0.43393245  0.43525248  1
  Zn  Zn124  1  0.18283552  0.43431635  0.93271084  1
  Zn  Zn125  1  0.17958488  0.82787568  0.45039230  1
  Zn  Zn126  1  0.18457170  0.93961838  0.94223234  1
  Zn  Zn127  1  0.68527376  0.43867531  0.43651394  1
  Zn  Zn128  1  0.68901866  0.43588188  0.93547930  1
  Zn  Zn129  1  0.68463102  0.93955850  0.43585421  1
  Zn  Zn130  1  0.68696829  0.93968235  0.93783602  1
  Zn  Zn131  1  0.31035531  0.06121984  0.06294676  1
  Zn  Zn132  1  0.30579548  0.03871566  0.55187849  1
  Zn  Zn133  1  0.31066285  0.55773640  0.06169146  1
  Zn  Zn134  1  0.31415650  0.55999430  0.56202208  1
  Zn  Zn135  1  0.81346548  0.06681495  0.06188600  1
  Zn  Zn136  1  0.81138514  0.06383176  0.56591588  1
  Zn  Zn137  1  0.81681003  0.56458226  0.05897652  1
  Zn  Zn138  1  0.81602184  0.56139789  0.55873195  1
  Zn  Zn139  1  0.43622215  0.43584851  0.18648665  1
  Zn  Zn140  1  0.43649820  0.43711964  0.68680522  1
  Zn  Zn141  1  0.43629918  0.93561839  0.18754353  1
  Zn  Zn142  1  0.43732105  0.93817834  0.68955104  1
  Zn  Zn143  1  0.94087439  0.43341020  0.18277932  1
  Zn  Zn144  1  0.93035052  0.44069624  0.68690626  1
  Zn  Zn145  1  0.93398850  0.94264893  0.17965539  1
  Zn  Zn146  1  0.93765365  0.94272666  0.69434311  1
  Zn  Zn147  1  0.06668478  0.06419247  0.31660596  1
  Zn  Zn148  1  0.06130163  0.06854762  0.81384852  1
  Zn  Zn149  1  0.07141800  0.55025140  0.31447093  1
  Zn  Zn150  1  0.05760927  0.56163063  0.81633732  1
  Zn  Zn151  1  0.56088567  0.06360676  0.31179612  1
  Zn  Zn152  1  0.55712305  0.06512305  0.81281178  1
  Zn  Zn153  1  0.56757880  0.56361439  0.31096415  1
  Zn  Zn154  1  0.56067491  0.55976936  0.81176014  1
  Zn  Zn155  1  0.43765432  0.18469106  0.43449261  1
  Zn  Zn156  1  0.40933584  0.17340185  0.95019339  1
  Zn  Zn157  1  0.44166786  0.68473728  0.43663655  1
  Zn  Zn158  1  0.43694727  0.68648283  0.93836672  1
  Zn  Zn159  1  0.93688925  0.18649361  0.43807092  1
  Zn  Zn160  1  0.93275904  0.19191599  0.93625740  1
  Zn  Zn161  1  0.93410646  0.68506879  0.43927734  1
  Zn  Zn162  1  0.93838443  0.68336006  0.93742469  1
  Zn  Zn163  1  0.06392031  0.31016269  0.06210271  1
  Zn  Zn164  1  0.06460630  0.31030345  0.56171974  1
  Zn  Zn165  1  0.06069652  0.81448265  0.16567826  1
  Zn  Zn166  1  0.05097329  0.81333727  0.57061506  1
  Zn  Zn167  1  0.56219614  0.31211436  0.06218982  1
  Zn  Zn168  1  0.56029068  0.31159321  0.56448125  1
  Zn  Zn169  1  0.56561142  0.81196613  0.06326564  1
  Zn  Zn170  1  0.56594792  0.81226562  0.56176649  1
  O  O171  1  0.13381236  0.11912265  0.12100558  1
  O  O172  1  0.11469154  0.12011958  0.63124943  1
  O  O173  1  0.11428683  0.62343972  0.10682981  1
  O  O174  1  0.10887016  0.62210973  0.63938582  1
  O  O175  1  0.62236317  0.11808474  0.11691620  1
  O  O176  1  0.62094690  0.11817230  0.61865588  1
  O  O177  1  0.61759450  0.61713001  0.11758007  1
  O  O178  1  0.62569913  0.61816152  0.62015581  1
  O  O179  1  0.38849396  0.37805174  0.38304583  1
  O  O180  1  0.38018961  0.37830129  0.88105311  1
  O  O181  1  0.39102734  0.87947156  0.36570293  1
  O  O182  1  0.37948181  0.87717595  0.88365944  1
  O  O183  1  0.88161650  0.37833539  0.37976642  1
  O  O184  1  0.86577337  0.38837544  0.87141756  1
  O  O185  1  0.89809214  0.87913773  0.37065630  1
  O  O186  1  0.88211355  0.89107654  0.86627072  1
  O  O187  1  0.26712818  -0.01220439  0.37164907  1
  O  O188  1  0.25605071  0.00423253  0.87215920  1
  O  O189  1  0.25651176  0.49203592  0.36087548  1
  O  O190  1  0.25704740  0.50461753  0.86709495  1
  O  O191  1  0.75399793  0.00496602  0.36820547  1
  O  O192  1  0.75790600  0.00768247  0.87563188  1
  O  O193  1  0.74460697  0.49652305  0.35613410  1
  O  O194  1  0.76105407  0.51003921  0.88279402  1
  O  O195  1  0.25464249  0.48603738  0.13206903  1
  O  O196  1  0.25590513  0.48945063  0.63613755  1
  O  O197  1  0.23643940  0.99497891  0.11976815  1
  O  O198  1  0.24103309  0.99275116  0.63754651  1
  O  O199  1  0.74630655  0.49410305  0.12760220  1
  O  O200  1  0.74095853  0.48776785  0.61802901  1
  O  O201  1  0.74129262  1.00087329  0.13014732  1
  O  O202  1  0.74233262  0.99292966  0.62945105  1
  O  O203  1  0.01100556  0.38120475  0.25746323  1
  O  O204  1  -0.00537260  0.36229613  0.74422022  1
  O  O205  1  0.00234646  0.87630878  0.24820174  1
  O  O206  1  0.00854512  0.87530089  0.75849034  1
  O  O207  1  0.49989286  0.36516209  0.25733570  1
  O  O208  1  0.50488858  0.36948360  0.75544324  1
  O  O209  1  0.50838749  0.86660850  0.25387043  1
  O  O210  1  0.51066798  0.86992523  0.75456767  1
  O  O211  1  0.49572954  0.13782639  0.24907698  1
  O  O212  1  0.50699388  0.13481070  0.73691079  1
  O  O213  1  0.50787005  0.63304031  0.23980252  1
  O  O214  1  0.48996714  0.62970122  0.74905413  1
  O  O215  1  0.98650956  0.12304470  0.25340065  1
  O  O216  1  0.99038272  0.13462246  0.74324240  1
  O  O217  1  1.00954886  0.60528534  0.23177956  1
  O  O218  1  0.98919090  0.62805489  0.74867183  1
  O  O219  1  0.38842356  0.26829779  0.01143243  1
  O  O220  1  0.38339752  0.26465205  0.49777964  1
  O  O221  1  0.36748126  0.75659098  -0.00149565  1
  O  O222  1  0.38391927  0.75186960  0.51497750  1
  O  O223  1  0.86178818  0.24219348  0.01030989  1
  O  O224  1  0.86820417  0.26164919  0.50071466  1
  O  O225  1  0.86329661  0.74931934  -0.00371576  1
  O  O226  1  0.87327162  0.74866572  0.50849591  1
  O  O227  1  0.12468568  0.25103142  0.48426976  1
  O  O228  1  0.12294609  0.25344067  0.98436481  1
  O  O229  1  0.12642092  0.74842270  0.51864786  1
  O  O230  1  0.13456410  0.73803734  0.98926451  1
  O  O231  1  0.62886373  0.24619199  0.49396447  1
  O  O232  1  0.63189419  0.23755238  1.00580398  1
  O  O233  1  0.62806874  0.74238291  0.49127393  1
  O  O234  1  0.63327804  0.74351101  0.99448369  1
  O  O235  1  0.49058042  0.25297405  0.13435767  1
  O  O236  1  0.50167296  0.23943217  0.63175629  1
  O  O237  1  0.50176327  0.74069532  0.13204590  1
  O  O238  1  0.49227644  0.75215051  0.63221676  1
  O  O239  1  0.98404041  0.25484772  0.12091962  1
  O  O240  1  0.99759966  0.24525893  0.63452290  1
  O  O241  1  0.98267527  0.73955107  0.12604443  1
  O  O242  1  0.99376653  0.73934691  0.63845644  1
  O  O243  1  0.00017909  0.26224381  0.37831052  1
  O  O244  1  0.00165558  0.24859340  0.86283564  1
  O  O245  1  0.00328415  0.75159071  0.36462498  1
  O  O246  1  0.00208863  0.75973746  0.87353588  1
  O  O247  1  0.50490190  0.25672930  0.36799849  1
  O  O248  1  0.49608351  0.26049887  0.86953744  1
  O  O249  1  0.51018760  0.75512739  0.36846879  1
  O  O250  1  0.50760558  0.75393694  0.87120432  1
  O  O251  1  0.24883300  0.12457329  0.51253090  1
  O  O252  1  0.30192878  0.13736348  0.98397718  1
  O  O253  1  0.23638810  0.62602521  0.51611132  1
  O  O254  1  0.24300380  0.62566466  0.99445582  1
  O  O255  1  0.74486290  0.13136780  0.49494262  1
  O  O256  1  0.74157771  0.13235179  0.99353594  1
  O  O257  1  0.73866878  0.62389480  0.49905440  1
  O  O258  1  0.74620845  0.63440068  0.99027160  1
  O  O259  1  0.25904350  0.38281661  0.00580982  1
  O  O260  1  0.25938864  0.38197027  0.51497339  1
  O  O261  1  0.25659588  0.87004648  0.00426372  1
  O  O262  1  0.24765946  0.88648585  0.52150139  1
  O  O263  1  0.74331582  0.36278317  0.00640929  1
  O  O264  1  0.75496243  0.37230798  0.50331377  1
  O  O265  1  0.74494720  0.85978911  -0.00118523  1
  O  O266  1  0.74413668  0.87881743  0.51513129  1
  O  O267  1  0.14154930  0.48044037  0.25322782  1
  O  O268  1  0.13653245  0.50011546  0.75846345  1
  O  O269  1  0.12355572  1.00835396  0.23284549  1
  O  O270  1  0.12749375  0.99623441  0.74570904  1
  O  O271  1  0.63003138  0.49665110  0.23610903  1
  O  O272  1  0.61851881  0.49190147  0.73696939  1
  O  O273  1  0.63097141  0.99811229  0.24257662  1
  O  O274  1  0.62461933  0.99250757  0.74556313  1
  O  O275  1  0.37996306  0.00962845  0.25617514  1
  O  O276  1  0.36035856  -0.01480306  0.76069022  1
  O  O277  1  0.36263846  0.49136787  0.25202974  1
  O  O278  1  0.37211102  0.50892983  0.75389196  1
  O  O279  1  0.86792739  0.01204827  0.24857356  1
  O  O280  1  0.87284661  0.01507030  0.75998428  1
  O  O281  1  0.86036973  0.49330202  0.24711914  1
  O  O282  1  0.87646727  0.50736744  0.76495495  1
  O  O283  1  0.12017025  0.36417701  0.36977900  1
  O  O284  1  0.12469422  0.36141306  0.86698018  1
  O  O285  1  0.09390781  0.87688638  0.38514407  1
  O  O286  1  0.11725025  0.87243085  0.87230181  1
  O  O287  1  0.61270068  0.36982769  0.37424308  1
  O  O288  1  0.61525957  0.38309121  0.86399483  1
  O  O289  1  0.61775668  0.86906689  0.36803442  1
  O  O290  1  0.62117812  0.87071811  0.86805601  1
  O  O291  1  0.37915922  0.13352034  0.13500485  1
  O  O292  1  0.38327052  0.12095802  0.61610404  1
  O  O293  1  0.39031356  0.62475879  0.11540517  1
  O  O294  1  0.37839616  0.63834577  0.63254514  1
  O  O295  1  0.86829647  0.13259261  0.13989770  1
  O  O296  1  0.87786925  0.13015342  0.63597505  1
  O  O297  1  0.88155285  0.63765767  0.11923689  1
  O  O298  1  0.87530953  0.62001789  0.63987342  1
  O  O299  1  0.26386032  0.25985650  0.12956622  1
  O  O300  1  0.25076703  0.26678922  0.63864551  1
  O  O301  1  0.25448960  0.75952678  0.11259820  1
  O  O302  1  0.26942474  0.76274354  0.63886633  1
  O  O303  1  0.75348498  0.25744466  0.11841281  1
  O  O304  1  0.74786967  0.26200861  0.61714960  1
  O  O305  1  0.75962200  0.74748859  0.11253386  1
  O  O306  1  0.74815660  0.76721840  0.62505138  1
  O  O307  1  0.24472830  0.25662344  0.37722313  1
  O  O308  1  0.23601843  0.24864241  0.86740460  1
  O  O309  1  0.23319614  0.76185856  0.37392420  1
  O  O310  1  0.24526996  0.74298852  0.87731545  1
  O  O311  1  0.74311857  0.24766320  0.37888955  1
  O  O312  1  0.75269876  0.24114446  0.88482004  1
  O  O313  1  0.73964535  0.75455805  0.37450403  1
  O  O314  1  0.74668352  0.74468958  0.88251203  1
  O  O315  1  -0.00274895  0.11599492  -0.00386001  1
  O  O316  1  -0.00033572  0.12451017  0.51553751  1
  O  O317  1  0.00485928  0.61763292  0.00297498  1
  O  O318  1  0.00320538  0.61319398  0.51092815  1
  O  O319  1  0.50668527  0.12323578  0.00104975  1
  O  O320  1  0.50581709  0.11826281  0.50617086  1
  O  O321  1  0.50761283  0.61792941  0.00388802  1
  O  O322  1  0.51415109  0.61791411  0.50223481  1
  O  O323  1  0.49709606  0.38288709  0.49535371  1
  O  O324  1  0.49777263  0.38104456  0.99173627  1
  O  O325  1  0.50966583  0.88335601  0.48936954  1
  O  O326  1  0.49357278  0.87322370  0.99446562  1
  O  O327  1  0.99183259  0.37787740  0.49708035  1
  O  O328  1  1.00078846  0.38916460  1.00374557  1
  O  O329  1  0.99395764  0.89566844  0.51554958  1
  O  O330  1  0.99994379  0.88945646  0.98833948  1
  O  O331  1  0.50256355  0.49384658  0.38097946  1
  O  O332  1  0.49339905  0.49205964  0.87917177  1
  O  O333  1  0.49965748  0.99156346  0.38117503  1
  O  O334  1  0.49557988  0.98759858  0.87498270  1
  O  O335  1  1.00277015  0.48516700  0.38518534  1
  O  O336  1  0.98474698  0.50090167  0.88363003  1
  O  O337  1  1.00060513  1.00726967  0.39433363  1
  O  O338  1  0.99419104  0.99999471  0.88382113  1
  O  O339  1  0.01101922  0.00075359  0.11188033  1
  O  O340  1  0.00301464  0.01108723  0.62601131  1
  O  O341  1  -0.01369702  0.50714261  0.10614097  1
  O  O342  1  -0.00672732  0.50636263  0.61741114  1
  O  O343  1  0.51348609  -0.00010667  0.12476253  1
  O  O344  1  0.50271070  0.00498323  0.61843344  1
  O  O345  1  0.50806844  0.50357596  0.12056850  1
  O  O346  1  0.50849799  0.50195266  0.61697326  1
  O  O347  1  0.24719842  0.37906554  0.23947796  1
  O  O348  1  0.25004450  0.38659439  0.73966491  1
  O  O349  1  0.26123897  0.88288320  0.22814629  1
  O  O350  1  0.23536630  0.88278328  0.74938039  1
  O  O351  1  0.74524531  0.38399594  0.24009105  1
  O  O352  1  0.73959838  0.37041369  0.73965330  1
  O  O353  1  0.74589294  0.89038147  0.24974352  1
  O  O354  1  0.73751613  0.87692446  0.74599120  1
  O  O355  1  0.26194835  0.12052182  0.24761591  1
  O  O356  1  0.24708732  0.11264393  0.75230962  1
  O  O357  1  0.24999987  0.60343314  0.23786876  1
  O  O358  1  0.26377504  0.61789430  0.75452991  1
  O  O359  1  0.74852055  0.11504889  0.25570473  1
  O  O360  1  0.75396115  0.12862152  0.75753435  1
  O  O361  1  0.74231193  0.60721643  0.24613375  1
  O  O362  1  0.75430800  0.63009496  0.76253928  1
  O  O363  1  0.38289825  0.11242124  0.36570472  1
  O  O364  1  0.39568137  0.10512493  0.85799579  1
  O  O365  1  0.36679302  0.62569774  0.38227644  1
  O  O366  1  0.37053057  0.61984635  0.86838422  1
  O  O367  1  0.86808700  0.12590241  0.36306690  1
  O  O368  1  0.86368854  0.11917558  0.87038028  1
  O  O369  1  0.87018753  0.61645028  0.37811648  1
  O  O370  1  0.86779011  0.62014235  0.86622960  1
  O  O371  1  0.13553807  0.36506558  0.13275986  1
  O  O372  1  0.13869279  0.37462697  0.62731241  1
  O  O373  1  0.13559076  0.88807775  0.11504247  1
  O  O374  1  0.12805869  0.88376400  0.63700304  1
  O  O375  1  0.63404509  0.38265420  0.12398144  1
  O  O376  1  0.62901916  0.38204868  0.63068220  1
  O  O377  1  0.63111193  0.88289571  0.12976658  1
  O  O378  1  0.63049408  0.88187830  0.63301595  1
  O  O379  1  0.13189220  0.26155011  0.26391044  1
  O  O380  1  0.10777073  0.25517553  0.75456427  1
  O  O381  1  0.13394225  0.75731584  0.22654669  1
  O  O382  1  0.11503293  0.76259756  0.75965605  1
  O  O383  1  0.61718742  0.25131082  0.25414309  1
  O  O384  1  0.61418365  0.26362241  0.74681469  1
  O  O385  1  0.62068158  0.75428183  0.25522971  1
  O  O386  1  0.61949515  0.75646663  0.75633225  1
  O  O387  1  0.38116694  0.24446682  0.24579253  1
  O  O388  1  0.38775828  0.25466128  0.75073597  1
  O  O389  1  0.38952437  0.75462711  0.24557688  1
  O  O390  1  0.38308213  0.74410920  0.74961658  1
  O  O391  1  0.86759997  0.23664234  0.24232048  1
  O  O392  1  0.88224466  0.24233525  0.75143870  1
  O  O393  1  0.86181651  0.74527109  0.24046790  1
  O  O394  1  0.87902709  0.74087593  0.74967907  1
  O  O395  1  0.39006370  0.49305198  0.50115293  1
  O  O396  1  0.38203110  0.49026500  0.99418418  1
  O  O397  1  0.39071480  0.99637710  0.48983362  1
  O  O398  1  0.37951123  0.98851684  0.99044988  1
  O  O399  1  0.88078964  0.48661880  0.49802060  1
  O  O400  1  0.88358913  0.50408633  0.98532632  1
  O  O401  1  0.88795724  1.01047628  0.50021127  1
  O  O402  1  0.88570769  1.00537161  0.99412913  1
  O  O403  1  0.11314854  0.00611440  0.00566245  1
  O  O404  1  0.11018069  0.00875251  0.51962390  1
  O  O405  1  0.10715365  0.50660830  -0.01343101  1
  O  O406  1  0.11399529  0.49465247  0.49941923  1
  O  O407  1  0.62519965  0.00977801  0.00752281  1
  O  O408  1  0.61527734  0.00594113  0.50443798  1
  O  O409  1  0.62310736  0.50428088  0.00878549  1
  O  O410  1  0.61770965  0.50478462  0.50740454  1
  O  O411  1  0.36904079  0.37001224  0.11676249  1
  O  O412  1  0.36686438  0.37788149  0.61708939  1
  O  O413  1  0.37099195  0.87583943  0.11014322  1
  O  O414  1  0.36918368  0.86534828  0.63132880  1
  O  O415  1  0.86206139  0.36533077  0.12916778  1
  O  O416  1  0.86398205  0.37415485  0.61776676  1
  O  O417  1  0.87236549  0.85742696  0.12843258  1
  O  O418  1  0.85739764  0.88009674  0.63797053  1
  O  O419  1  0.12568228  0.14293254  0.37502970  1
  O  O420  1  0.12444458  0.14413705  0.86934137  1
  O  O421  1  0.13753602  0.62290508  0.37282526  1
  O  O422  1  0.12890576  0.63045143  0.87962554  1
  O  O423  1  0.62996904  0.13030114  0.38130063  1
  O  O424  1  0.63536577  0.11853782  0.88229359  1
  O  O425  1  0.63055969  0.63414568  0.38098348  1
  O  O426  1  0.63259150  0.62691953  0.87796014  1
