# generated using pymatgen
data_V85Zn86O256
_symmetry_space_group_name_H-M   'P 1'
_cell_length_a   16.94587498
_cell_length_b   16.94882843
_cell_length_c   16.93738070
_cell_angle_alpha   89.94983552
_cell_angle_beta   89.98433910
_cell_angle_gamma   89.95755416
_symmetry_Int_Tables_number   1
_chemical_formula_structural   V85Zn86O256
_chemical_formula_sum   'V85 Zn86 O256'
_cell_volume   4864.62792839
_cell_formula_units_Z   1
loop_
 _symmetry_equiv_pos_site_id
 _symmetry_equiv_pos_as_xyz
  1  'x, y, z'
loop_
 _atom_site_type_symbol
 _atom_site_label
 _atom_site_symmetry_multiplicity
 _atom_site_fract_x
 _atom_site_fract_y
 _atom_site_fract_z
 _atom_site_occupancy
  V  V0  1  0.12208606  0.49736411  0.12955346  1
  V  V1  1  0.24870181  0.00486682  0.75651586  1
  V  V2  1  0.75109765  0.37925286  0.14076392  1
  V  V3  1  -0.00079082  0.75012800  0.25229086  1
  V  V4  1  0.50013519  0.37563534  0.87659777  1
  V  V5  1  0.62348729  0.74970952  0.87235847  1
  V  V6  1  0.00213701  0.75065799  0.75387937  1
  V  V7  1  0.00138356  -0.00154606  0.00154345  1
  V  V8  1  0.37290745  0.75562295  0.62121888  1
  V  V9  1  0.51049179  0.12410196  0.12419840  1
  V  V10  1  0.61826740  0.62524864  0.49691787  1
  V  V11  1  0.39302767  0.37948424  0.49376100  1
  V  V12  1  0.24481912  0.37897190  0.61733005  1
  V  V13  1  0.24175150  0.49922735  0.74817006  1
  V  V14  1  0.87759386  0.11914429  0.25422769  1
  V  V15  1  0.74792983  0.62722350  0.87310811  1
  V  V16  1  0.42817902  0.29895653  0.17563119  1
  V  V17  1  0.12594263  0.73539105  0.37947184  1
  V  V18  1  0.63446418  0.50631166  0.13660194  1
  V  V19  1  0.12659898  0.24887511  0.36900255  1
  V  V20  1  0.87614337  -0.00256162  0.87292025  1
  V  V21  1  0.49734637  0.75006135  0.74781220  1
  V  V22  1  0.87362231  0.12550720  0.75025155  1
  V  V23  1  0.87552890  0.75368158  0.61797959  1
  V  V24  1  0.37943926  -0.00961321  0.38488537  1
  V  V25  1  -0.01209274  -0.00166211  0.49671157  1
  V  V26  1  0.87651135  0.37976972  0.50087502  1
  V  V27  1  0.87503370  0.25101349  0.62577061  1
  V  V28  1  0.49266157  0.87606038  0.87444917  1
  V  V29  1  0.00105328  0.25291085  0.24753000  1
  V  V30  1  0.25053508  0.87858426  0.61359175  1
  V  V31  1  0.87406113  0.49982760  0.87375669  1
  V  V32  1  -0.00478652  0.62601632  0.12463357  1
  V  V33  1  0.25646756  -0.00557157  0.24673751  1
  V  V34  1  0.62770829  0.24807675  0.89016219  1
  V  V35  1  0.00094773  0.24943452  0.74940451  1
  V  V36  1  0.74756373  0.75751040  0.00260598  1
  V  V37  1  0.61435045  0.49913446  0.61925176  1
  V  V38  1  0.75284990  0.12039032  0.37596266  1
  V  V39  1  0.12697214  0.12324182  0.49914891  1
  V  V40  1  0.25559606  0.12429428  0.37529274  1
  V  V41  1  0.50213366  0.49830625  0.00446892  1
  V  V42  1  0.12142623  0.63188923  -0.00558718  1
  V  V43  1  0.50704688  0.00309166  -0.00159565  1
  V  V44  1  0.23934338  0.36791018  0.13343548  1
  V  V45  1  0.37357064  0.62366421  0.74916673  1
  V  V46  1  0.50750655  0.12167222  0.62692022  1
  V  V47  1  -0.00913153  0.87695203  0.37991524  1
  V  V48  1  0.01091234  0.62225583  0.62044886  1
  V  V49  1  0.62109920  0.87957852  0.74176390  1
  V  V50  1  0.47890718  0.62950992  0.12516724  1
  V  V51  1  0.74575208  0.12697404  0.88862293  1
  V  V52  1  0.74768193  0.50159766  0.74684435  1
  V  V53  1  0.24525045  0.73031040  0.49802426  1
  V  V54  1  0.12604099  0.87265746  0.75453706  1
  V  V55  1  0.87092762  0.75958514  0.12572838  1
  V  V56  1  0.37184335  0.12704994  0.75582615  1
  V  V57  1  0.74702501  0.75187326  0.49234938  1
  V  V58  1  0.25209651  0.75309201  0.00957515  1
  V  V59  1  0.50879694  -0.00079668  0.50325413  1
  V  V60  1  0.51150608  0.86680225  0.37740452  1
  V  V61  1  0.12994318  0.24188160  0.87356326  1
  V  V62  1  0.12542045  0.00165101  0.62349757  1
  V  V63  1  0.74572733  0.25209312  0.49738488  1
  V  V64  1  0.00379155  0.37479456  0.37340660  1
  V  V65  1  0.24991749  0.24197894  0.00022859  1
  V  V66  1  0.75117434  0.61275510  0.37166824  1
  V  V67  1  0.50173616  0.25053153  0.75201936  1
  V  V68  1  0.01446455  0.50257778  0.50258638  1
  V  V69  1  0.24487667  0.63290825  0.87361760  1
  V  V70  1  0.86447016  0.37163236  -0.00265685  1
  V  V71  1  0.12905477  0.87329215  0.25237205  1
  V  V72  1  0.74419680  0.00327724  0.74527072  1
  V  V73  1  0.87418384  0.62648436  0.74509283  1
  V  V74  1  0.37012126  0.37055711  -0.00040032  1
  V  V75  1  0.38300480  0.12464831  0.24732562  1
  V  V76  1  0.75105757  0.87795302  0.61890705  1
  V  V77  1  0.61710426  0.25809964  0.35600453  1
  V  V78  1  0.74698373  -0.00582335  0.24638051  1
  V  V79  1  0.86982371  0.24838490  0.12041179  1
  V  V80  1  0.00216495  0.37448456  0.87566353  1
  V  V81  1  0.74856097  0.37751826  0.62333354  1
  V  V82  1  0.25718517  0.50782678  0.25458227  1
  V  V83  1  0.37430081  0.87312995  0.01357029  1
  V  V84  1  0.13106154  -0.00336273  0.12524832  1
  Zn  Zn85  1  0.36962298  0.00589759  0.87962025  1
  Zn  Zn86  1  0.37299129  0.50062911  0.87590941  1
  Zn  Zn87  1  0.00014486  0.50056776  -0.00160621  1
  Zn  Zn88  1  0.63367289  -0.00507359  0.11602806  1
  Zn  Zn89  1  0.49594336  0.62150243  0.62247222  1
  Zn  Zn90  1  0.38986171  0.50845491  0.38032490  1
  Zn  Zn91  1  0.62205089  0.62595796  -0.00053963  1
  Zn  Zn92  1  0.62573047  0.12630521  0.50114817  1
  Zn  Zn93  1  0.31495855  0.81239495  0.18746826  1
  Zn  Zn94  1  0.13088328  0.11920817  -0.00275828  1
  Zn  Zn95  1  0.37614041  0.25142933  0.62258661  1
  Zn  Zn96  1  0.87365982  0.49582526  0.36563077  1
  Zn  Zn97  1  0.87218572  0.87782139  0.00246751  1
  Zn  Zn98  1  0.00273828  0.12500153  0.12420484  1
  Zn  Zn99  1  0.49212221  0.74832744  0.24725591  1
  Zn  Zn100  1  0.00001155  0.12531973  0.62328037  1
  Zn  Zn101  1  0.86416000  0.62024162  0.24470784  1
  Zn  Zn102  1  0.00245085  0.87103178  0.87666813  1
  Zn  Zn103  1  0.62388611  0.37618682  0.75192172  1
  Zn  Zn104  1  0.25582321  0.25114432  0.49888328  1
  Zn  Zn105  1  0.62862015  0.86181067  0.24471278  1
  Zn  Zn106  1  0.12482441  0.37667597  0.74661478  1
  Zn  Zn107  1  0.18908542  0.18075354  0.18758277  1
  Zn  Zn108  1  0.18975340  0.19150158  0.68470271  1
  Zn  Zn109  1  0.18029181  0.68348016  0.18508484  1
  Zn  Zn110  1  0.18706911  0.69026318  0.68615293  1
  Zn  Zn111  1  0.69179738  0.18594186  0.18545751  1
  Zn  Zn112  1  0.68536797  0.18988868  0.69205599  1
  Zn  Zn113  1  0.68019311  0.69249062  0.18848191  1
  Zn  Zn114  1  0.68561697  0.68951128  0.68197204  1
  Zn  Zn115  1  0.30948596  0.31967789  0.31701186  1
  Zn  Zn116  1  0.31254060  0.31356540  0.81308375  1
  Zn  Zn117  1  0.31965557  0.67931795  0.31438331  1
  Zn  Zn118  1  0.30896510  0.81310180  0.81225588  1
  Zn  Zn119  1  0.81464714  0.30795316  0.31529204  1
  Zn  Zn120  1  0.80964014  0.31120364  0.81290248  1
  Zn  Zn121  1  0.81470347  0.81036947  0.31214563  1
  Zn  Zn122  1  0.81212932  0.81426299  0.80805923  1
  Zn  Zn123  1  0.18678243  0.43595799  0.43461677  1
  Zn  Zn124  1  0.18610766  0.44023353  0.93847854  1
  Zn  Zn125  1  0.18567597  0.93634653  0.43289936  1
  Zn  Zn126  1  0.18871308  0.93302621  0.93677694  1
  Zn  Zn127  1  0.56896643  0.43852459  0.42230770  1
  Zn  Zn128  1  0.68518598  0.43821528  0.93908132  1
  Zn  Zn129  1  0.68876248  0.94179380  0.43641518  1
  Zn  Zn130  1  0.68503451  0.93559939  0.93023101  1
  Zn  Zn131  1  0.31965668  0.06135751  0.06547782  1
  Zn  Zn132  1  0.31684919  0.06608272  0.56690192  1
  Zn  Zn133  1  0.30548189  0.55507247  0.05970899  1
  Zn  Zn134  1  0.31624515  0.55810369  0.56098712  1
  Zn  Zn135  1  0.81737364  0.06172023  0.06568758  1
  Zn  Zn136  1  0.81142189  0.06452668  0.56433821  1
  Zn  Zn137  1  0.81184017  0.56464140  0.05801731  1
  Zn  Zn138  1  0.81275369  0.56340927  0.55783966  1
  Zn  Zn139  1  0.47357276  0.47556481  0.23290832  1
  Zn  Zn140  1  0.43042997  0.43472309  0.68699968  1
  Zn  Zn141  1  0.44884235  0.94268340  0.19136358  1
  Zn  Zn142  1  0.43336312  0.94060920  0.68550461  1
  Zn  Zn143  1  0.93545923  0.43751976  0.18709493  1
  Zn  Zn144  1  0.93958706  0.43953750  0.68724502  1
  Zn  Zn145  1  0.94017967  0.93828709  0.19100203  1
  Zn  Zn146  1  0.93749863  0.93779618  0.68364021  1
  Zn  Zn147  1  0.06292526  0.06136399  0.31355551  1
  Zn  Zn148  1  0.06198664  0.06271375  0.81210157  1
  Zn  Zn149  1  0.05633180  0.55748549  0.30720757  1
  Zn  Zn150  1  0.06164816  0.56418936  0.81073628  1
  Zn  Zn151  1  0.56652745  0.06822492  0.31541333  1
  Zn  Zn152  1  0.56281552  0.06418300  0.81607666  1
  Zn  Zn153  1  0.56753366  0.58518731  0.30944614  1
  Zn  Zn154  1  0.56086793  0.56079615  0.81145872  1
  Zn  Zn155  1  0.44052161  0.19013612  0.43692739  1
  Zn  Zn156  1  0.43783111  0.18822355  0.93955710  1
  Zn  Zn157  1  0.43456643  0.69062473  0.44300418  1
  Zn  Zn158  1  0.43366468  0.68790436  0.93900484  1
  Zn  Zn159  1  0.93736458  0.18735690  0.43824539  1
  Zn  Zn160  1  0.93893495  0.18425783  0.93807684  1
  Zn  Zn161  1  0.93623943  0.68719119  0.43825258  1
  Zn  Zn162  1  0.93282801  0.68897768  0.93726224  1
  Zn  Zn163  1  0.06053485  0.31118936  0.05825803  1
  Zn  Zn164  1  0.06535967  0.31103535  0.56020849  1
  Zn  Zn165  1  0.06328453  0.81371288  0.06372141  1
  Zn  Zn166  1  0.06442645  0.81328669  0.56340417  1
  Zn  Zn167  1  0.57088583  0.31984593  0.06701120  1
  Zn  Zn168  1  0.56391352  0.30880930  0.56578567  1
  Zn  Zn169  1  0.56500285  0.81294327  0.06621759  1
  Zn  Zn170  1  0.56155799  0.81295879  0.55954072  1
  O  O171  1  0.12279415  0.10909702  0.12394117  1
  O  O172  1  0.12433661  0.12196909  0.61546265  1
  O  O173  1  0.11173174  0.62037318  0.11604460  1
  O  O174  1  0.10975515  0.62907411  0.62889887  1
  O  O175  1  0.61409794  0.12357745  0.12578778  1
  O  O176  1  0.61177413  0.12830673  0.62749218  1
  O  O177  1  0.62844565  0.61319925  0.11735348  1
  O  O178  1  0.62551816  0.61523171  0.61553958  1
  O  O179  1  0.37231823  0.38007691  0.39150057  1
  O  O180  1  0.38114049  0.37851991  0.88312537  1
  O  O181  1  0.38653987  0.89267104  0.38064698  1
  O  O182  1  0.38487990  0.87587833  0.87592206  1
  O  O183  1  0.88661738  0.37114281  0.38453978  1
  O  O184  1  0.87987836  0.37781851  0.87911670  1
  O  O185  1  0.89169100  0.87053632  0.37306850  1
  O  O186  1  0.87588855  0.88872545  0.87161967  1
  O  O187  1  0.26336199  0.00230783  0.37052965  1
  O  O188  1  0.24928538  -0.00232514  0.86073633  1
  O  O189  1  0.24313065  0.49215421  0.35423098  1
  O  O190  1  0.25163071  0.51128581  0.86871305  1
  O  O191  1  0.75052458  0.01360957  0.36846770  1
  O  O192  1  0.75562960  0.00520795  0.86440214  1
  O  O193  1  0.75239232  0.51485875  0.37859749  1
  O  O194  1  0.75295082  0.50651027  0.86813629  1
  O  O195  1  0.24128609  0.49093298  0.13186506  1
  O  O196  1  0.25378615  0.48687952  0.63185590  1
  O  O197  1  0.24456035  1.00300016  0.13442402  1
  O  O198  1  0.24609832  0.99499753  0.63188689  1
  O  O199  1  0.74223419  0.49627902  0.12042856  1
  O  O200  1  0.74282194  0.49346481  0.62620255  1
  O  O201  1  0.75099343  1.00614800  0.14127465  1
  O  O202  1  0.75403191  0.99397240  0.63658079  1
  O  O203  1  -0.00443575  0.36084642  0.25816956  1
  O  O204  1  0.00022725  0.36978348  0.75982300  1
  O  O205  1  0.00831197  0.86990477  0.25824817  1
  O  O206  1  0.00738045  0.86756991  0.74708923  1
  O  O207  1  0.48875845  0.36155192  0.22145852  1
  O  O208  1  0.49792931  0.36718098  0.75672486  1
  O  O209  1  0.50096849  0.88006126  0.27000584  1
  O  O210  1  0.50351425  0.87286998  0.75394015  1
  O  O211  1  0.49482456  0.11984240  0.24045713  1
  O  O212  1  0.49522618  0.13103057  0.74634663  1
  O  O213  1  0.49381436  0.62253036  0.23009543  1
  O  O214  1  0.48991283  0.63114794  0.74835282  1
  O  O215  1  0.99440382  0.13334769  0.25115938  1
  O  O216  1  0.99246148  0.13183095  0.74834874  1
  O  O217  1  1.00085669  0.63441724  0.23828989  1
  O  O218  1  0.99358245  0.63166365  0.74264093  1
  O  O219  1  0.36519175  0.26198651  -0.00809745  1
  O  O220  1  0.37627721  0.26360578  0.50030708  1
  O  O221  1  0.36504226  0.76032767  -0.00323697  1
  O  O222  1  0.35860680  0.74850092  0.51327460  1
  O  O223  1  0.88280030  0.25751133  0.00884780  1
  O  O224  1  0.86792497  0.25850101  0.50523642  1
  O  O225  1  0.86734054  0.75506540  0.00624310  1
  O  O226  1  0.86678173  0.74740639  0.51253494  1
  O  O227  1  0.12437216  0.23753380  0.48886218  1
  O  O228  1  0.13116098  0.24587604  0.99130042  1
  O  O229  1  0.13704654  0.75342483  0.49417152  1
  O  O230  1  0.13141966  0.73986268  1.00358647  1
  O  O231  1  0.63954171  0.24780993  0.50286394  1
  O  O232  1  0.62246128  0.25365334  0.98954230  1
  O  O233  1  0.63529223  0.73641399  0.51171578  1
  O  O234  1  0.63085702  0.74815397  0.99080086  1
  O  O235  1  0.49267704  0.24381065  0.11422959  1
  O  O236  1  0.49883487  0.24380708  0.63608508  1
  O  O237  1  0.49816722  0.73014628  0.11285555  1
  O  O238  1  0.48831506  0.75111623  0.62987352  1
  O  O239  1  0.99390148  0.24918314  0.13252682  1
  O  O240  1  0.99472444  0.25081305  0.63215783  1
  O  O241  1  0.99308452  0.74404106  0.12914337  1
  O  O242  1  0.99215661  0.74555383  0.62956184  1
  O  O243  1  0.00617929  0.25430920  0.36886166  1
  O  O244  1  0.00571964  0.25572743  0.86909409  1
  O  O245  1  0.00674721  0.75621205  0.37341346  1
  O  O246  1  -0.00959904  0.75165258  0.85800662  1
  O  O247  1  0.51838321  0.24412832  0.37382031  1
  O  O248  1  0.50673605  0.25543906  0.87142363  1
  O  O249  1  0.49774283  0.76660613  0.38410355  1
  O  O250  1  0.50222134  0.75668255  0.86842590  1
  O  O251  1  0.24535745  0.12774924  0.49479316  1
  O  O252  1  0.25367466  0.13810228  1.00525241  1
  O  O253  1  0.24201772  0.63305662  0.51359368  1
  O  O254  1  0.24322133  0.63115841  0.99301409  1
  O  O255  1  0.75170396  0.13342064  0.49390879  1
  O  O256  1  0.75456464  0.11774031  0.98737115  1
  O  O257  1  0.74290414  0.63259068  0.49424199  1
  O  O258  1  0.75091544  0.63644911  0.98645847  1
  O  O259  1  0.25505143  0.37110364  0.00904318  1
  O  O260  1  0.25226320  0.37484779  0.50899887  1
  O  O261  1  0.25999439  0.86479246  -0.00546182  1
  O  O262  1  0.24430078  0.87461893  0.51173616  1
  O  O263  1  0.76234287  0.37804304  0.00253148  1
  O  O264  1  0.76039805  0.36739282  0.51248953  1
  O  O265  1  0.75099266  0.86192936  -0.00955966  1
  O  O266  1  0.74071076  0.87084718  0.51237731  1
  O  O267  1  0.13109252  0.50429963  0.23463463  1
  O  O268  1  0.13758536  0.49816263  0.75315263  1
  O  O269  1  0.13489927  0.99405637  0.24662516  1
  O  O270  1  0.13020430  0.99688477  0.74281523  1
  O  O271  1  0.62384668  0.50619698  0.23492688  1
  O  O272  1  0.63218749  0.49864643  0.74163772  1
  O  O273  1  0.64267402  1.00421299  0.25197457  1
  O  O274  1  0.63302429  0.99200591  0.75546671  1
  O  O275  1  0.37234647  0.00569667  0.26018466  1
  O  O276  1  0.36528092  0.00852850  0.75159183  1
  O  O277  1  0.35866173  0.49563578  0.25089381  1
  O  O278  1  0.36460556  0.50892025  0.75087065  1
  O  O279  1  0.86916396  0.01256821  0.24605073  1
  O  O280  1  0.86911061  0.00553704  0.75531354  1
  O  O281  1  0.88529971  0.50945222  0.25350614  1
  O  O282  1  0.86754933  0.50592174  0.75360758  1
  O  O283  1  0.11235584  0.36309091  0.37966493  1
  O  O284  1  0.11595280  0.36830851  0.87437622  1
  O  O285  1  0.12155084  0.86788373  0.36375779  1
  O  O286  1  0.12211829  0.87895848  0.85915290  1
  O  O287  1  0.63341997  0.35584473  0.37920709  1
  O  O288  1  0.61879593  0.36836889  0.87373208  1
  O  O289  1  0.61399116  0.88002397  0.37319034  1
  O  O290  1  0.61269675  0.86957592  0.86289826  1
  O  O291  1  0.38365253  0.12262104  0.14034461  1
  O  O292  1  0.38578430  0.12987375  0.63693815  1
  O  O293  1  0.38083877  0.62030770  0.11706966  1
  O  O294  1  0.37413424  0.63176705  0.63461959  1
  O  O295  1  0.87971804  0.13366107  0.13184892  1
  O  O296  1  0.87629987  0.13358108  0.63261709  1
  O  O297  1  0.88511469  0.63288528  0.11951982  1
  O  O298  1  0.87823660  0.63284026  0.62991935  1
  O  O299  1  0.23666939  0.25783267  0.11585453  1
  O  O300  1  0.25493402  0.26448315  0.62289624  1
  O  O301  1  0.24588569  0.75024356  0.11482817  1
  O  O302  1  0.25213539  0.75823359  0.61728490  1
  O  O303  1  0.76308312  0.25859544  0.12781536  1
  O  O304  1  0.75419450  0.25725178  0.62162760  1
  O  O305  1  0.75846025  0.74181350  0.11391559  1
  O  O306  1  0.75683521  0.75887301  0.61941912  1
  O  O307  1  0.24136439  0.24558418  0.37561559  1
  O  O308  1  0.23928995  0.25923218  0.88480668  1
  O  O309  1  0.24273881  0.74337035  0.39182559  1
  O  O310  1  0.25181465  0.73784163  0.88151702  1
  O  O311  1  0.74694490  0.24216522  0.38281704  1
  O  O312  1  0.74025219  0.23951398  0.86959495  1
  O  O313  1  0.75428190  0.75180930  0.39052062  1
  O  O314  1  0.74457950  0.74564472  0.87562365  1
  O  O315  1  0.00398639  0.11026631  0.00069619  1
  O  O316  1  0.00914798  0.11775023  0.49884155  1
  O  O317  1  0.00554033  0.62646665  0.00356783  1
  O  O318  1  -0.00649571  0.61440754  0.50828232  1
  O  O319  1  0.48953890  0.11347685  0.00913325  1
  O  O320  1  0.50116892  0.12049341  0.51061049  1
  O  O321  1  0.49623129  0.61238752  0.00450490  1
  O  O322  1  0.51479828  0.63259937  0.50463144  1
  O  O323  1  0.49711799  0.37617535  0.49932046  1
  O  O324  1  0.49184065  0.38309693  1.00042268  1
  O  O325  1  0.50456646  0.88590404  0.49087018  1
  O  O326  1  0.49133897  0.87890545  0.99110535  1
  O  O327  1  0.99443711  0.37936170  0.49542766  1
  O  O328  1  0.99154021  0.37601135  0.98679596  1
  O  O329  1  1.00918079  0.88597524  0.49232719  1
  O  O330  1  0.99950403  0.88498322  0.99609448  1
  O  O331  1  0.50331050  0.49537674  0.34768946  1
  O  O332  1  0.49801650  0.49354321  0.88455741  1
  O  O333  1  0.49391013  1.00125105  0.38371060  1
  O  O334  1  0.49607403  0.99232355  0.87990625  1
  O  O335  1  0.99957636  0.48974950  0.38244333  1
  O  O336  1  0.99338504  0.49163926  0.87305053  1
  O  O337  1  1.00709782  0.99034959  0.38471108  1
  O  O338  1  0.99210752  0.99869285  0.88056653  1
  O  O339  1  0.00797661  -0.00003332  0.11782673  1
  O  O340  1  0.00860483  0.00155840  0.61630114  1
  O  O341  1  0.00525101  0.50759189  0.12030535  1
  O  O342  1  -0.00447638  0.50985368  0.61638435  1
  O  O343  1  0.50318427  0.00925968  0.11533227  1
  O  O344  1  0.49354013  0.00805167  0.61560402  1
  O  O345  1  0.51055757  0.51077168  0.12056957  1
  O  O346  1  0.51170719  0.50008050  0.63370841  1
  O  O347  1  0.24878638  0.37952270  0.23681972  1
  O  O348  1  0.25198677  0.38336248  0.74035213  1
  O  O349  1  0.24498974  0.88677928  0.24903707  1
  O  O350  1  0.24271704  0.88157736  0.74204349  1
  O  O351  1  0.76361955  0.37674832  0.23928103  1
  O  O352  1  0.75011497  0.38017679  0.73772411  1
  O  O353  1  0.75191143  0.89173101  0.25970121  1
  O  O354  1  0.74069427  0.88257138  0.74216840  1
  O  O355  1  0.25858673  0.11371844  0.25586812  1
  O  O356  1  0.25845895  0.11731912  0.74243302  1
  O  O357  1  0.24849408  0.61291016  0.24489860  1
  O  O358  1  0.25334885  0.62103454  0.75429219  1
  O  O359  1  0.75918905  0.11916466  0.25704389  1
  O  O360  1  0.75441866  0.11786712  0.75444507  1
  O  O361  1  0.74665062  0.63358501  0.26878697  1
  O  O362  1  0.75354555  0.62259486  0.75391377  1
  O  O363  1  0.37351702  0.12174476  0.36508118  1
  O  O364  1  0.37972139  0.12457514  0.86074575  1
  O  O365  1  0.36819426  0.61778882  0.39330057  1
  O  O366  1  0.36726254  0.62477553  0.86345143  1
  O  O367  1  0.86692962  0.13317487  0.36535115  1
  O  O368  1  0.86906866  0.11552766  0.86977399  1
  O  O369  1  0.86025508  0.62550347  0.37771815  1
  O  O370  1  0.86838217  0.62028902  0.86576294  1
  O  O371  1  0.12832331  0.38504752  0.11639022  1
  O  O372  1  0.14002416  0.37085591  0.62611093  1
  O  O373  1  0.11963426  0.88488263  0.13965778  1
  O  O374  1  0.13186838  0.88221828  0.63355398  1
  O  O375  1  0.63930237  0.39137608  0.12076395  1
  O  O376  1  0.63323001  0.38210772  0.62545034  1
  O  O377  1  0.61743164  0.88346160  0.13197875  1
  O  O378  1  0.63030432  0.87118236  0.63652731  1
  O  O379  1  0.11738438  0.24018014  0.26117331  1
  O  O380  1  0.11936213  0.25283994  0.75628944  1
  O  O381  1  0.12155732  0.75697440  0.25598171  1
  O  O382  1  0.11460784  0.75991619  0.74350944  1
  O  O383  1  0.63013239  0.25103599  0.25617794  1
  O  O384  1  0.61255962  0.25325635  0.75804687  1
  O  O385  1  0.60743867  0.74912422  0.24935588  1
  O  O386  1  0.61728887  0.75697924  0.75218176  1
  O  O387  1  0.37481577  0.24596346  0.24914058  1
  O  O388  1  0.38556145  0.24539434  0.75150475  1
  O  O389  1  0.37829119  0.75220208  0.25398276  1
  O  O390  1  0.37522828  0.74334558  0.74144208  1
  O  O391  1  0.88308922  0.24081816  0.24261288  1
  O  O392  1  0.88070003  0.24550388  0.74633104  1
  O  O393  1  0.87970667  0.74436434  0.24147386  1
  O  O394  1  0.87995548  0.74640424  0.73859093  1
  O  O395  1  0.37865960  0.48422688  0.50132465  1
  O  O396  1  0.37951257  0.48591593  1.00110596  1
  O  O397  1  0.38377402  1.00942746  0.48882094  1
  O  O398  1  0.38107184  0.98988801  0.99678835  1
  O  O399  1  0.87939825  0.48690936  0.49800878  1
  O  O400  1  0.87754929  0.49239424  0.99047608  1
  O  O401  1  0.88875361  1.00449511  0.50464122  1
  O  O402  1  0.88273657  0.99714122  0.99296223  1
  O  O403  1  0.12224279  -0.00269788  0.00738403  1
  O  O404  1  0.12414703  0.01109599  0.50250412  1
  O  O405  1  0.12445620  0.51340455  0.00841512  1
  O  O406  1  0.11356141  0.49534008  0.49936737  1
  O  O407  1  0.61142574  -0.00455077  -0.00495691  1
  O  O408  1  0.61345883  0.00745986  0.49725156  1
  O  O409  1  0.61395252  0.50178006  0.00474399  1
  O  O410  1  0.62047210  0.51287922  0.50545239  1
  O  O411  1  0.36372975  0.36020549  0.11924906  1
  O  O412  1  0.36738234  0.37307445  0.61218594  1
  O  O413  1  0.38015338  0.88027190  0.11709926  1
  O  O414  1  0.36316606  0.86620539  0.63190062  1
  O  O415  1  0.87159339  0.36946553  0.11500467  1
  O  O416  1  0.87001950  0.37108880  0.62008098  1
  O  O417  1  0.87918964  0.86309370  0.12537314  1
  O  O418  1  0.86278151  0.86691519  0.63060776  1
  O  O419  1  0.13399224  0.12825724  0.38039645  1
  O  O420  1  0.12313128  0.13757182  0.87609581  1
  O  O421  1  0.11563308  0.63701778  0.36923146  1
  O  O422  1  0.13054581  0.62301487  0.88274656  1
  O  O423  1  0.63760983  0.13699782  0.37747955  1
  O  O424  1  0.63390909  0.13453771  0.87296720  1
  O  O425  1  0.63617622  0.62650741  0.38952793  1
  O  O426  1  0.63031841  0.63143620  0.87445464  1
