# generated using pymatgen
data_V85Zn86O256
_symmetry_space_group_name_H-M   'P 1'
_cell_length_a   16.92475483
_cell_length_b   16.92702267
_cell_length_c   16.92299327
_cell_angle_alpha   89.97724399
_cell_angle_beta   89.95348101
_cell_angle_gamma   89.93210094
_symmetry_Int_Tables_number   1
_chemical_formula_structural   V85Zn86O256
_chemical_formula_sum   'V85 Zn86 O256'
_cell_volume   4848.19034029
_cell_formula_units_Z   1
loop_
 _symmetry_equiv_pos_site_id
 _symmetry_equiv_pos_as_xyz
  1  'x, y, z'
loop_
 _atom_site_type_symbol
 _atom_site_label
 _atom_site_symmetry_multiplicity
 _atom_site_fract_x
 _atom_site_fract_y
 _atom_site_fract_z
 _atom_site_occupancy
  V  V0  1  0.75543760  0.12881980  0.86717145  1
  V  V1  1  0.25230774  0.24185303  -0.00419878  1
  V  V2  1  -0.00145005  0.87485215  0.37448406  1
  V  V3  1  0.62449759  0.25545340  0.37475685  1
  V  V4  1  0.87381691  0.50242540  0.86731579  1
  V  V5  1  -0.00361856  0.24253155  0.25148013  1
  V  V6  1  0.76404593  0.12414357  0.37415459  1
  V  V7  1  0.50297320  0.87985032  0.87399945  1
  V  V8  1  0.62802847  0.12630620  -0.00177392  1
  V  V9  1  0.48953046  0.12514383  0.62071984  1
  V  V10  1  0.75051936  0.51113018  0.74492013  1
  V  V11  1  0.87752554  0.00178993  0.87088801  1
  V  V12  1  0.12823895  0.50019048  0.62536242  1
  V  V13  1  -0.00859774  0.74926400  0.24766380  1
  V  V14  1  0.12839139  0.24045682  0.87676423  1
  V  V15  1  0.00194403  0.86928153  0.87563641  1
  V  V16  1  0.38150905  -0.00192115  0.37138969  1
  V  V17  1  0.49946478  0.49212395  0.49118225  1
  V  V18  1  -0.00768275  0.12250677  0.63214505  1
  V  V19  1  0.24887059  0.87821553  0.62215559  1
  V  V20  1  -0.00592435  0.74279634  0.75138643  1
  V  V21  1  0.12477377  0.00065056  0.62616339  1
  V  V22  1  0.12612433  0.37385637  0.75281151  1
  V  V23  1  0.62281468  0.62890517  -0.00990590  1
  V  V24  1  0.37124692  0.74621232  0.62870764  1
  V  V25  1  -0.00335463  0.37385667  0.88474555  1
  V  V26  1  0.37630992  0.87407029  -0.00174382  1
  V  V27  1  0.50381588  0.74365640  0.75847886  1
  V  V28  1  0.12779197  0.12776356  0.50276403  1
  V  V29  1  0.25266819  0.00500063  0.76154615  1
  V  V30  1  0.24607382  0.74727403  0.49209936  1
  V  V31  1  0.50190466  0.63160206  0.13398944  1
  V  V32  1  0.57977479  0.67915135  0.44334717  1
  V  V33  1  0.12358690  0.50007297  0.12681486  1
  V  V34  1  0.75527878  0.37829342  0.61705246  1
  V  V35  1  -0.00348527  0.37378889  0.38464374  1
  V  V36  1  0.50131649  0.26038509  0.25215815  1
  V  V37  1  0.86698386  0.49310045  0.37414560  1
  V  V38  1  0.37676474  0.87718519  0.50011319  1
  V  V39  1  0.37654625  0.25086673  0.12577647  1
  V  V40  1  0.37493262  0.37714413  0.00049859  1
  V  V41  1  0.00549816  0.00083360  0.00653153  1
  V  V42  1  0.25249139  0.12323258  0.37774567  1
  V  V43  1  0.31463312  0.67150665  0.80965108  1
  V  V44  1  -0.00535661  0.00045636  0.49587114  1
  V  V45  1  0.87635737  0.25443805  0.62038610  1
  V  V46  1  0.49817264  0.50072335  0.00390066  1
  V  V47  1  0.12395783  0.87432732  0.74997305  1
  V  V48  1  0.87500100  0.86712637  0.00310347  1
  V  V49  1  0.74862791  0.62453358  0.36657489  1
  V  V50  1  0.13804469  0.62700993  -0.00563068  1
  V  V51  1  0.49944326  0.00340294  -0.00479826  1
  V  V52  1  -0.00793305  0.62136725  0.62636750  1
  V  V53  1  0.62056480  0.86833836  0.25861724  1
  V  V54  1  0.76124548  0.00457475  0.25361011  1
  V  V55  1  0.37174649  0.36233453  0.49743002  1
  V  V56  1  0.37776346  0.75455035  0.13460526  1
  V  V57  1  0.64169616  0.37826415  0.24161783  1
  V  V58  1  0.12472444  0.88125092  0.24477152  1
  V  V59  1  0.24806160  0.87976685  0.11977802  1
  V  V60  1  0.87334743  0.87406424  0.49943669  1
  V  V61  1  0.75631104  0.24865199  0.00174436  1
  V  V62  1  0.74965983  0.74482069  0.49515566  1
  V  V63  1  0.75243776  0.00216044  0.74694322  1
  V  V64  1  0.49639493  0.25146554  0.74269238  1
  V  V65  1  0.13111515  0.24910694  0.37745322  1
  V  V66  1  -0.00029350  0.63006896  0.12287747  1
  V  V67  1  0.49988512  0.62301872  0.62763581  1
  V  V68  1  0.62741927  0.87226528  0.75265236  1
  V  V69  1  0.50294730  0.12581356  0.12830818  1
  V  V70  1  0.75132435  0.87130761  0.12892697  1
  V  V71  1  0.62791668  0.12509523  0.49926527  1
  V  V72  1  0.12496373  0.62201077  0.49124797  1
  V  V73  1  0.36534829  0.50015954  0.87357024  1
  V  V74  1  0.74254529  0.75506043  -0.00599976  1
  V  V75  1  0.81468044  0.42236865  0.05898094  1
  V  V76  1  0.25384768  0.35931229  0.62395754  1
  V  V77  1  0.62594073  0.37672869  0.74340281  1
  V  V78  1  0.12751915  0.37740200  0.25306923  1
  V  V79  1  0.35493454  0.49846556  0.37168138  1
  V  V80  1  -0.00711125  0.24684556  0.75453405  1
  V  V81  1  0.49926025  0.37643346  0.87210106  1
  V  V82  1  0.25024262  0.37365045  0.12977804  1
  V  V83  1  0.37296750  0.12483161  0.76395821  1
  V  V84  1  0.87378960  0.23762228  0.12744040  1
  Zn  Zn85  1  0.13914618  0.74383854  0.87492653  1
  Zn  Zn86  1  0.87057894  0.74364280  0.62776992  1
  Zn  Zn87  1  0.37642860  0.12541379  0.25154648  1
  Zn  Zn88  1  0.00703311  0.11684073  0.13436729  1
  Zn  Zn89  1  0.75254021  0.63444082  0.86671479  1
  Zn  Zn90  1  0.24786763  0.00379407  0.24448579  1
  Zn  Zn91  1  0.36390690  0.62911412  0.26128863  1
  Zn  Zn92  1  0.50725782  -0.00422037  0.49817838  1
  Zn  Zn93  1  0.25406276  0.50237902  0.74844969  1
  Zn  Zn94  1  0.62557767  0.00220362  0.62487316  1
  Zn  Zn95  1  0.75576520  0.25448137  0.49631870  1
  Zn  Zn96  1  0.74923508  0.87242100  0.62290630  1
  Zn  Zn97  1  0.12650629  0.74557651  0.36970601  1
  Zn  Zn98  1  0.13551033  0.11601804  0.00686357  1
  Zn  Zn99  1  -0.00505120  0.49597539  0.50255463  1
  Zn  Zn100  1  -0.00136697  0.49817716  0.00095925  1
  Zn  Zn101  1  0.62792253  0.25213893  0.87230546  1
  Zn  Zn102  1  0.50278385  0.85283788  0.37510579  1
  Zn  Zn103  1  0.87075949  0.62181134  0.24578564  1
  Zn  Zn104  1  0.62787511  0.00100698  0.12901041  1
  Zn  Zn105  1  0.63604035  0.49952946  0.12489724  1
  Zn  Zn106  1  0.62551549  0.50521725  0.61583514  1
  Zn  Zn107  1  0.18504178  0.18499216  0.18791068  1
  Zn  Zn108  1  0.18518681  0.18476745  0.69228165  1
  Zn  Zn109  1  0.18708492  0.69685634  0.18856190  1
  Zn  Zn110  1  0.17711937  0.69118434  0.67871086  1
  Zn  Zn111  1  0.68975700  0.18762660  0.18808402  1
  Zn  Zn112  1  0.68671428  0.18973498  0.68465578  1
  Zn  Zn113  1  0.68704194  0.69002999  0.18197814  1
  Zn  Zn114  1  0.68147271  0.68929908  0.67967669  1
  Zn  Zn115  1  0.31290041  0.31151518  0.31503816  1
  Zn  Zn116  1  0.31320846  0.31100502  0.81062713  1
  Zn  Zn117  1  0.31129520  0.81662266  0.31102615  1
  Zn  Zn118  1  0.31766468  0.83613890  0.81323048  1
  Zn  Zn119  1  0.81388691  0.30991505  0.31186282  1
  Zn  Zn120  1  0.81390735  0.31842210  0.80908304  1
  Zn  Zn121  1  0.81157463  0.81249597  0.31550136  1
  Zn  Zn122  1  0.81448194  0.81409281  0.81290620  1
  Zn  Zn123  1  0.18545839  0.43243851  0.44435874  1
  Zn  Zn124  1  0.18583426  0.43388186  0.94247279  1
  Zn  Zn125  1  0.18562476  0.93916991  0.43371467  1
  Zn  Zn126  1  0.18730524  0.93264024  0.93800379  1
  Zn  Zn127  1  0.68535104  0.43658006  0.43281400  1
  Zn  Zn128  1  0.68123512  0.44442730  0.92924630  1
  Zn  Zn129  1  0.68957949  0.93862308  0.43350857  1
  Zn  Zn130  1  0.68585029  0.94032703  0.93581415  1
  Zn  Zn131  1  0.31851388  0.06042417  0.06277820  1
  Zn  Zn132  1  0.31248286  0.06300182  0.56288580  1
  Zn  Zn133  1  0.29078716  0.58280914  0.10544442  1
  Zn  Zn134  1  0.31230492  0.56017616  0.56051061  1
  Zn  Zn135  1  0.81590801  0.05845913  0.06195606  1
  Zn  Zn136  1  0.81419948  0.06483159  0.56124805  1
  Zn  Zn137  1  0.81670843  0.58509284  0.05701883  1
  Zn  Zn138  1  0.81082516  0.56239500  0.55203301  1
  Zn  Zn139  1  0.43896303  0.43938151  0.18956659  1
  Zn  Zn140  1  0.43264441  0.44082169  0.68467570  1
  Zn  Zn141  1  0.44197600  0.93981602  0.18888874  1
  Zn  Zn142  1  0.43853406  0.94152291  0.68705164  1
  Zn  Zn143  1  0.94317431  0.43677885  0.19742564  1
  Zn  Zn144  1  0.93844453  0.43615446  0.69187004  1
  Zn  Zn145  1  0.93436936  0.93362304  0.18717450  1
  Zn  Zn146  1  0.93553360  0.93345169  0.68617271  1
  Zn  Zn147  1  0.06195476  0.06046148  0.31503184  1
  Zn  Zn148  1  0.06314814  0.06151119  0.81571405  1
  Zn  Zn149  1  0.05888343  0.55911707  0.31224881  1
  Zn  Zn150  1  0.06455108  0.56038845  0.81381301  1
  Zn  Zn151  1  0.56946782  0.06134110  0.31193557  1
  Zn  Zn152  1  0.56587837  0.06457380  0.81125853  1
  Zn  Zn153  1  0.55534794  0.55037468  0.30755214  1
  Zn  Zn154  1  0.56038619  0.55987528  0.81126663  1
  Zn  Zn155  1  0.44178479  0.18630554  0.43454174  1
  Zn  Zn156  1  0.44115429  0.19120681  0.93574187  1
  Zn  Zn157  1  0.41558295  0.67888292  0.44256045  1
  Zn  Zn158  1  0.44124278  0.69162228  0.94555416  1
  Zn  Zn159  1  0.94175859  0.18900514  0.44100772  1
  Zn  Zn160  1  0.93476617  0.18567248  0.94003113  1
  Zn  Zn161  1  0.93590846  0.68473106  0.43535169  1
  Zn  Zn162  1  0.93906807  0.68512268  0.94010852  1
  Zn  Zn163  1  0.06341392  0.30546275  0.06478945  1
  Zn  Zn164  1  0.06532077  0.30976906  0.56557219  1
  Zn  Zn165  1  0.06737081  0.80828923  0.06112280  1
  Zn  Zn166  1  0.06045131  0.80910369  0.56316240  1
  Zn  Zn167  1  0.56789936  0.31308270  0.06261890  1
  Zn  Zn168  1  0.56184615  0.31292293  0.56120112  1
  Zn  Zn169  1  0.56552771  0.81431582  0.06688247  1
  Zn  Zn170  1  0.55846959  0.81674672  0.57214119  1
  O  O171  1  0.11890599  0.13018381  0.11841161  1
  O  O172  1  0.11645930  0.12174874  0.61959046  1
  O  O173  1  0.11786691  0.61602514  0.11843003  1
  O  O174  1  0.11564998  0.61550628  0.61608145  1
  O  O175  1  0.61762867  0.12727509  0.11722241  1
  O  O176  1  0.61943984  0.12700040  0.61261184  1
  O  O177  1  0.61817394  0.62122398  0.11691167  1
  O  O178  1  0.60691313  0.62336641  0.62185723  1
  O  O179  1  0.36741889  0.38030310  0.39065880  1
  O  O180  1  0.38106620  0.38052858  0.87922677  1
  O  O181  1  0.38111726  0.87966029  0.38113915  1
  O  O182  1  0.39237854  0.88034538  0.88360877  1
  O  O183  1  0.88109343  0.38263417  0.37264557  1
  O  O184  1  0.88416588  0.38657554  0.87072160  1
  O  O185  1  0.88765468  0.87084113  0.38644349  1
  O  O186  1  0.88364854  0.88085788  0.88185060  1
  O  O187  1  0.26134861  0.00548631  0.37339657  1
  O  O188  1  0.24740977  -0.00551101  0.86098288  1
  O  O189  1  0.25589070  0.49269269  0.37702757  1
  O  O190  1  0.26171978  0.49321944  0.87531812  1
  O  O191  1  0.75024426  0.00853419  0.36318932  1
  O  O192  1  0.75745839  0.00640855  0.86656728  1
  O  O193  1  0.75915255  0.50542878  0.37719615  1
  O  O194  1  0.75614726  0.50108783  0.86197490  1
  O  O195  1  0.23607443  0.48074759  0.11857737  1
  O  O196  1  0.23896107  0.49342355  0.62506042  1
  O  O197  1  0.25910483  0.98648308  0.12725776  1
  O  O198  1  0.24255021  0.99692237  0.63068782  1
  O  O199  1  0.75988400  0.49170624  0.11061038  1
  O  O200  1  0.74865129  0.49635348  0.62699408  1
  O  O201  1  0.75012510  0.99595454  0.13535299  1
  O  O202  1  0.75338682  1.00087784  0.63804656  1
  O  O203  1  0.00828667  0.36337966  0.26269163  1
  O  O204  1  0.00715650  0.36579705  0.75933733  1
  O  O205  1  0.00322784  0.87025334  0.25532810  1
  O  O206  1  0.00469758  0.86957080  0.75815539  1
  O  O207  1  0.50885126  0.36317130  0.24406897  1
  O  O208  1  0.50420567  0.36930693  0.74775422  1
  O  O209  1  0.51547176  0.87819280  0.25406360  1
  O  O210  1  0.50480751  0.87090125  0.75620156  1
  O  O211  1  0.50494299  0.13374299  0.24050855  1
  O  O212  1  0.49226464  0.13048658  0.74395603  1
  O  O213  1  0.49001972  0.61567149  0.23572717  1
  O  O214  1  0.50144306  0.63245582  0.74324409  1
  O  O215  1  1.00368936  0.13743869  0.25405463  1
  O  O216  1  1.00576322  0.13270922  0.74344990  1
  O  O217  1  1.00385592  0.63416550  0.24269748  1
  O  O218  1  1.00707737  0.63202909  0.74179515  1
  O  O219  1  0.37187292  0.25707827  0.00378101  1
  O  O220  1  0.38019512  0.26348949  0.49591982  1
  O  O221  1  0.38495296  0.76902531  0.00891334  1
  O  O222  1  0.36467305  0.76085522  0.50573618  1
  O  O223  1  0.86495213  0.25077343  0.00683535  1
  O  O224  1  0.87729038  0.24944386  0.51558283  1
  O  O225  1  0.86975913  0.76254207  -0.00364423  1
  O  O226  1  0.86717948  0.75543211  0.50107149  1
  O  O227  1  0.11902690  0.23561061  0.49370240  1
  O  O228  1  0.13561676  0.25004990  0.99242180  1
  O  O229  1  0.13056778  0.74158398  0.49880942  1
  O  O230  1  0.12571414  0.73313013  0.99542014  1
  O  O231  1  0.62661154  0.24621756  0.49072270  1
  O  O232  1  0.63893115  0.24621243  0.99598569  1
  O  O233  1  0.62915745  0.75074376  0.50322275  1
  O  O234  1  0.63013838  0.74318311  1.00076070  1
  O  O235  1  0.49640627  0.24452464  0.12885727  1
  O  O236  1  0.50463804  0.24252358  0.63580258  1
  O  O237  1  0.49277914  0.74524797  0.12457532  1
  O  O238  1  0.49085059  0.74591824  0.63875698  1
  O  O239  1  0.99156064  0.25041990  0.13493675  1
  O  O240  1  0.99643351  0.24383301  0.63408139  1
  O  O241  1  1.00559915  0.74116429  0.13261419  1
  O  O242  1  0.99944890  0.73891338  0.63326651  1
  O  O243  1  0.00898476  0.25364959  0.37154593  1
  O  O244  1  0.00312656  0.25371993  0.87157553  1
  O  O245  1  0.00283840  0.75653639  0.36764070  1
  O  O246  1  -0.00077196  0.75730082  0.87014648  1
  O  O247  1  0.51143245  0.24426754  0.36357880  1
  O  O248  1  0.50317570  0.25818872  0.86250582  1
  O  O249  1  0.50617168  0.73402236  0.39030061  1
  O  O250  1  0.49561585  0.75801551  0.86410539  1
  O  O251  1  0.24097089  0.11884704  0.49000281  1
  O  O252  1  0.25604118  0.13712624  1.00267747  1
  O  O253  1  0.23885369  0.63568821  0.50871418  1
  O  O254  1  0.23629475  0.61867183  1.00790924  1
  O  O255  1  0.74454221  0.12873037  0.49390652  1
  O  O256  1  0.74954286  0.13078619  0.99051333  1
  O  O257  1  0.74473957  0.63229899  0.48636015  1
  O  O258  1  0.74025479  0.63765444  0.99619916  1
  O  O259  1  0.25566035  0.36340501  0.00789301  1
  O  O260  1  0.25888728  0.37324024  0.51267295  1
  O  O261  1  0.26369879  0.88144112  0.00469530  1
  O  O262  1  0.25405078  0.87091946  0.50383510  1
  O  O263  1  0.74935725  0.37008969  -0.00327592  1
  O  O264  1  0.74468972  0.37460539  0.51309514  1
  O  O265  1  0.75447175  0.87417014  0.00534168  1
  O  O266  1  0.75822508  0.86918687  0.49809914  1
  O  O267  1  0.11941532  0.48549241  0.24404572  1
  O  O268  1  0.12924366  0.49211623  0.74341062  1
  O  O269  1  0.12471271  0.98607152  0.25341960  1
  O  O270  1  0.13096254  0.99592433  0.74595944  1
  O  O271  1  0.62297040  0.48298611  0.24509487  1
  O  O272  1  0.63051198  0.49298687  0.74356103  1
  O  O273  1  0.63705489  0.99027305  0.24911043  1
  O  O274  1  0.63583060  0.99448269  0.74908601  1
  O  O275  1  0.37388289  0.00344018  0.25838746  1
  O  O276  1  0.36747715  0.01411132  0.74517188  1
  O  O277  1  0.37721777  0.49153797  0.27022520  1
  O  O278  1  0.37362999  0.50023403  0.76328066  1
  O  O279  1  0.86084824  -0.00378227  0.24962716  1
  O  O280  1  0.86941106  -0.00784014  0.76227292  1
  O  O281  1  0.88102430  0.50318020  0.26734444  1
  O  O282  1  0.86432277  0.49905830  0.75544022  1
  O  O283  1  0.12096650  0.36669176  0.37196082  1
  O  O284  1  0.11824224  0.36636320  0.87071720  1
  O  O285  1  0.11359949  0.87246035  0.36915837  1
  O  O286  1  0.11793034  0.86719746  0.87051825  1
  O  O287  1  0.62998957  0.36299342  0.36219587  1
  O  O288  1  0.61830124  0.37595220  0.85995930  1
  O  O289  1  0.62222258  0.87552585  0.36422368  1
  O  O290  1  0.61707180  0.87905009  0.86344302  1
  O  O291  1  0.38720465  0.13205183  0.12711265  1
  O  O292  1  0.38647236  0.12470683  0.62733942  1
  O  O293  1  0.38765761  0.64651928  0.11091643  1
  O  O294  1  0.38618144  0.63412909  0.61392760  1
  O  O295  1  0.88303200  0.13433733  0.12056490  1
  O  O296  1  0.88736358  0.13158237  0.62459935  1
  O  O297  1  0.89280254  0.62075260  0.12936503  1
  O  O298  1  0.88846946  0.62132638  0.61837464  1
  O  O299  1  0.25698426  0.25682350  0.11962313  1
  O  O300  1  0.24323748  0.26085737  0.62673545  1
  O  O301  1  0.26814434  0.76609312  0.12314348  1
  O  O302  1  0.25233493  0.75854955  0.61689789  1
  O  O303  1  0.75950932  0.24501026  0.11547954  1
  O  O304  1  0.76038457  0.25843019  0.62629372  1
  O  O305  1  0.74899875  0.75982367  0.11026170  1
  O  O306  1  0.75172883  0.74973422  0.61149530  1
  O  O307  1  0.23797716  0.24214920  0.37439644  1
  O  O308  1  0.24087738  0.25566710  0.88305713  1
  O  O309  1  0.24812600  0.75477028  0.38738673  1
  O  O310  1  0.25904393  0.74488541  0.86051916  1
  O  O311  1  0.74384140  0.24219503  0.37545915  1
  O  O312  1  0.75437348  0.24394559  0.87857918  1
  O  O313  1  0.75114646  0.74233042  0.38540775  1
  O  O314  1  0.75365527  0.75189083  0.88695748  1
  O  O315  1  -0.00260452  0.10560618  -0.00358173  1
  O  O316  1  0.00597062  0.11651737  0.50798676  1
  O  O317  1  0.00749798  0.62026447  0.00824978  1
  O  O318  1  0.00798187  0.62375777  0.50781183  1
  O  O319  1  0.50546000  0.12176283  0.00516724  1
  O  O320  1  0.50805462  0.12409541  0.50633821  1
  O  O321  1  0.50705361  0.61857828  0.00597381  1
  O  O322  1  0.50436977  0.61835394  0.50109199  1
  O  O323  1  0.48364461  0.38391000  0.50909719  1
  O  O324  1  0.49762056  0.38167337  0.99561586  1
  O  O325  1  0.49121029  0.87488288  0.49704424  1
  O  O326  1  0.50245352  0.88418911  0.99279294  1
  O  O327  1  1.00654758  0.37242265  0.48838705  1
  O  O328  1  1.00550522  0.37432749  0.98813765  1
  O  O329  1  0.99626589  0.88002088  0.49416758  1
  O  O330  1  0.99498999  0.87895166  0.99489358  1
  O  O331  1  0.48917078  0.50006037  0.38895825  1
  O  O332  1  0.49305347  0.49521232  0.88386043  1
  O  O333  1  0.48839441  1.00546797  0.37796680  1
  O  O334  1  0.50723153  0.99401176  0.88282164  1
  O  O335  1  0.99250224  0.48885984  0.37755565  1
  O  O336  1  0.99275810  0.49132049  0.87606925  1
  O  O337  1  1.00224445  0.99135398  0.38608720  1
  O  O338  1  0.99464445  0.98865578  0.87978206  1
  O  O339  1  -0.00671040  -0.00312608  0.10974976  1
  O  O340  1  0.00432159  0.00631681  0.62186817  1
  O  O341  1  0.01059445  0.50189793  0.12472113  1
  O  O342  1  0.01020162  0.50229467  0.62578240  1
  O  O343  1  0.50497503  0.01109407  0.11924819  1
  O  O344  1  0.50399342  0.01064291  0.62145860  1
  O  O345  1  0.49713985  0.50709244  0.11341352  1
  O  O346  1  0.49465037  0.50851522  0.61204212  1
  O  O347  1  0.24022677  0.36535801  0.24186249  1
  O  O348  1  0.24640274  0.37508806  0.73804922  1
  O  O349  1  0.24097946  0.87678738  0.24191060  1
  O  O350  1  0.24491406  0.88503745  0.74111157  1
  O  O351  1  0.74030466  0.37192894  0.24715346  1
  O  O352  1  0.74214935  0.38385640  0.73955683  1
  O  O353  1  0.74729823  0.88295483  0.24634743  1
  O  O354  1  0.74370383  0.88198130  0.74952201  1
  O  O355  1  0.25072841  0.12426576  0.26419054  1
  O  O356  1  0.26385832  0.12076851  0.74685751  1
  O  O357  1  0.26231547  0.61923963  0.21144402  1
  O  O358  1  0.24929315  0.62456061  0.74419859  1
  O  O359  1  0.74654588  0.11306422  0.25755544  1
  O  O360  1  0.74575175  0.11929434  0.75914512  1
  O  O361  1  0.74951037  0.63281074  0.26112707  1
  O  O362  1  0.74203420  0.61536665  0.74761727  1
  O  O363  1  0.36759928  0.11805170  0.37699930  1
  O  O364  1  0.38070386  0.12417441  0.86261138  1
  O  O365  1  0.36433309  0.60647175  0.37541773  1
  O  O366  1  0.37510177  0.61968817  0.87912465  1
  O  O367  1  0.86345420  0.13096040  0.38176140  1
  O  O368  1  0.86770282  0.11441642  0.87708828  1
  O  O369  1  0.86621913  0.61541067  0.37094316  1
  O  O370  1  0.87229445  0.60756510  0.88602502  1
  O  O371  1  0.12886506  0.37722075  0.13349149  1
  O  O372  1  0.13428377  0.37974661  0.62885707  1
  O  O373  1  0.13610085  0.87101446  0.12952959  1
  O  O374  1  0.12731387  0.88055135  0.62990794  1
  O  O375  1  0.62790054  0.37619943  0.13629528  1
  O  O376  1  0.63097998  0.37691596  0.63231581  1
  O  O377  1  0.63703008  0.87981409  0.13258022  1
  O  O378  1  0.62745454  0.88061620  0.63840244  1
  O  O379  1  0.11899892  0.25823242  0.25922174  1
  O  O380  1  0.11602648  0.25292335  0.75854558  1
  O  O381  1  0.11618431  0.76198385  0.25143111  1
  O  O382  1  0.11441781  0.75668546  0.75292768  1
  O  O383  1  0.62203282  0.25803332  0.25390462  1
  O  O384  1  0.61816124  0.25905855  0.75026046  1
  O  O385  1  0.63293523  0.76974893  0.24596093  1
  O  O386  1  0.61559820  0.75891334  0.74712817  1
  O  O387  1  0.38476173  0.24860107  0.24654032  1
  O  O388  1  0.38230532  0.23724806  0.75137590  1
  O  O389  1  0.37665398  0.75108314  0.23898002  1
  O  O390  1  0.37609482  0.74425467  0.75140000  1
  O  O391  1  0.88381673  0.25363590  0.24035231  1
  O  O392  1  0.88753298  0.25329252  0.74316065  1
  O  O393  1  0.88770591  0.74910482  0.25315652  1
  O  O394  1  0.88871924  0.75453502  0.74712787  1
  O  O395  1  0.37892821  0.49175380  0.49124714  1
  O  O396  1  0.38359214  0.49227840  0.99200779  1
  O  O397  1  0.37411720  0.98730709  0.49524599  1
  O  O398  1  0.39252257  0.99152006  1.00529675  1
  O  O399  1  0.87922725  0.50200770  0.48147328  1
  O  O400  1  0.87121448  0.48905068  0.99913776  1
  O  O401  1  0.88698466  0.99224629  0.50609949  1
  O  O402  1  0.88202671  0.98868800  0.98958856  1
  O  O403  1  0.10913343  -0.00240562  -0.00717822  1
  O  O404  1  0.11587577  0.00778641  0.50485426  1
  O  O405  1  0.12172091  0.50636409  0.00825391  1
  O  O406  1  0.12123915  0.50490033  0.50803888  1
  O  O407  1  0.61789557  0.00821919  0.00283180  1
  O  O408  1  0.62705216  0.00954429  0.50152183  1
  O  O409  1  0.61672396  0.50642356  0.00333479  1
  O  O410  1  0.60476432  0.48757077  0.49894045  1
  O  O411  1  0.36798734  0.37151386  0.12201929  1
  O  O412  1  0.36063000  0.37724850  0.61642846  1
  O  O413  1  0.37684828  0.86943774  0.12057937  1
  O  O414  1  0.37078446  0.86998781  0.61859094  1
  O  O415  1  0.87634227  0.37049279  0.12242965  1
  O  O416  1  0.86775771  0.36790425  0.63032317  1
  O  O417  1  0.86173969  0.87842558  0.11646491  1
  O  O418  1  0.87466198  0.86971648  0.61144860  1
  O  O419  1  0.13063801  0.12900632  0.38314784  1
  O  O420  1  0.12189462  0.13690896  0.88167783  1
  O  O421  1  0.12084378  0.62326731  0.38703229  1
  O  O422  1  0.12641764  0.62233198  0.88899070  1
  O  O423  1  0.63222814  0.13319842  0.38442151  1
  O  O424  1  0.63605471  0.12875793  0.88038688  1
  O  O425  1  0.62801314  0.61716715  0.37264274  1
  O  O426  1  0.62674868  0.61930139  0.88676896  1
