# generated using pymatgen
data_V85Zn86O256
_symmetry_space_group_name_H-M   'P 1'
_cell_length_a   16.92402007
_cell_length_b   16.92322905
_cell_length_c   16.90947286
_cell_angle_alpha   89.92403439
_cell_angle_beta   89.96011260
_cell_angle_gamma   90.02895313
_symmetry_Int_Tables_number   1
_chemical_formula_structural   V85Zn86O256
_chemical_formula_sum   'V85 Zn86 O256'
_cell_volume   4843.02031323
_cell_formula_units_Z   1
loop_
 _symmetry_equiv_pos_site_id
 _symmetry_equiv_pos_as_xyz
  1  'x, y, z'
loop_
 _atom_site_type_symbol
 _atom_site_label
 _atom_site_symmetry_multiplicity
 _atom_site_fract_x
 _atom_site_fract_y
 _atom_site_fract_z
 _atom_site_occupancy
  V  V0  1  0.39401061  0.62586002  0.74775000  1
  V  V1  1  0.49864535  0.50967720  0.50643325  1
  V  V2  1  0.75587927  0.86123228  0.60930901  1
  V  V3  1  -0.00103951  -0.01016090  0.50194619  1
  V  V4  1  0.24953687  0.74848633  0.50303151  1
  V  V5  1  0.00177848  0.37359072  0.37356849  1
  V  V6  1  0.24613681  0.87302859  0.63047078  1
  V  V7  1  0.62526466  -0.00686944  0.12894227  1
  V  V8  1  0.24570818  0.87207631  0.12021376  1
  V  V9  1  0.62882934  0.50682157  0.62550810  1
  V  V10  1  0.49631889  0.88290882  0.36401979  1
  V  V11  1  0.87716140  0.50272982  0.87481954  1
  V  V12  1  -0.01616079  0.24555543  0.74794042  1
  V  V13  1  0.24765344  0.13010910  0.87221080  1
  V  V14  1  0.00106280  0.62597628  0.11980402  1
  V  V15  1  0.75167403  0.25094812  0.00105876  1
  V  V16  1  0.37294130  0.86751382  -0.00084135  1
  V  V17  1  0.73624218  0.49874541  0.25118056  1
  V  V18  1  0.62309381  -0.00069631  0.62723302  1
  V  V19  1  0.12329469  0.12337992  0.50375708  1
  V  V20  1  0.37085101  0.73922568  0.12636781  1
  V  V21  1  0.87119994  0.49241128  0.37333703  1
  V  V22  1  0.76008058  0.12540115  0.87081889  1
  V  V23  1  0.37325683  0.37460117  -0.00085743  1
  V  V24  1  0.87110419  0.37479156  0.51583997  1
  V  V25  1  0.12503043  0.74999801  0.37398760  1
  V  V26  1  0.49287081  0.24819441  0.75004137  1
  V  V27  1  0.49977022  0.12279556  0.12491435  1
  V  V28  1  0.25472611  0.62437626  0.37036616  1
  V  V29  1  0.12210791  0.87968703  0.24640528  1
  V  V30  1  0.62690038  0.62292222  0.01193302  1
  V  V31  1  0.62536042  0.24927535  0.87405066  1
  V  V32  1  0.75025846  0.25436409  0.51830596  1
  V  V33  1  0.37806511  0.00270458  0.87013551  1
  V  V34  1  0.25582065  0.50133527  0.24845751  1
  V  V35  1  0.49271290  0.00282126  0.49484204  1
  V  V36  1  0.50163216  0.37540556  0.87438342  1
  V  V37  1  0.87714352  0.12611008  0.25389969  1
  V  V38  1  0.73751384  0.37791587  0.13031446  1
  V  V39  1  0.50335784  0.86091545  0.87117940  1
  V  V40  1  0.13110045  0.75689058  0.87533650  1
  V  V41  1  0.23909856  0.50855966  0.74903401  1
  V  V42  1  0.87712838  0.25126246  0.12545533  1
  V  V43  1  0.87457561  0.87700523  -0.00400595  1
  V  V44  1  0.75027053  0.12995419  0.37769564  1
  V  V45  1  0.25338248  0.00245994  0.75036879  1
  V  V46  1  -0.00238365  0.62642518  0.62706424  1
  V  V47  1  0.49696349  0.73990759  0.24839233  1
  V  V48  1  0.12589077  0.25281701  0.37532848  1
  V  V49  1  0.50787819  0.49723998  0.00726215  1
  V  V50  1  0.00645264  0.37344454  0.87625335  1
  V  V51  1  0.24522558  0.37156261  0.13212912  1
  V  V52  1  0.38876622  0.74800554  0.62851943  1
  V  V53  1  0.50069526  -0.00329978  -0.00193543  1
  V  V54  1  0.24912687  -0.00069838  0.24622616  1
  V  V55  1  0.62326454  0.86201519  0.75176536  1
  V  V56  1  0.74310488  0.62676318  0.87321015  1
  V  V57  1  0.74921069  0.87208586  0.13251969  1
  V  V58  1  0.12108834  -0.00235561  0.63432903  1
  V  V59  1  0.77051720  0.65620376  0.39224073  1
  V  V60  1  0.50715470  0.37927585  0.37399306  1
  V  V61  1  0.37666645  0.11950514  0.25437601  1
  V  V62  1  0.25239888  0.12005233  0.37553943  1
  V  V63  1  0.74472215  0.75143589  -0.00391653  1
  V  V64  1  0.12625461  0.36461486  0.75157622  1
  V  V65  1  0.37360782  0.24756368  0.12484906  1
  V  V66  1  0.12567512  0.61622350  0.50589351  1
  V  V67  1  0.50671389  0.25430735  0.25112762  1
  V  V68  1  0.87498750  -0.00549938  0.38040303  1
  V  V69  1  0.37517237  0.37629462  0.50074753  1
  V  V70  1  0.49004732  0.12456382  0.62987148  1
  V  V71  1  0.00545878  -0.00202022  0.00412823  1
  V  V72  1  0.24422159  0.37756538  0.62500727  1
  V  V73  1  0.12737908  0.12667900  0.00504355  1
  V  V74  1  0.00625057  0.25114591  0.25208654  1
  V  V75  1  0.37279483  0.87694207  0.49510071  1
  V  V76  1  0.87373956  0.63692369  0.74752471  1
  V  V77  1  0.61999887  0.75597158  0.37694263  1
  V  V78  1  0.62209040  0.12917718  0.50001473  1
  V  V79  1  0.87571135  0.62112618  0.24745217  1
  V  V80  1  0.63151587  0.37473335  0.74227506  1
  V  V81  1  0.75495701  0.00163968  0.74769196  1
  V  V82  1  0.74870347  -0.00156467  0.25149097  1
  V  V83  1  0.62618910  0.12269075  -0.00149263  1
  V  V84  1  0.12244683  0.49510424  0.12807904  1
  Zn  Zn85  1  0.37034057  0.24869971  0.62783543  1
  Zn  Zn86  1  0.75567784  0.49626571  0.74502236  1
  Zn  Zn87  1  0.37523738  0.50292371  0.87399629  1
  Zn  Zn88  1  0.00667982  0.87831122  0.86559174  1
  Zn  Zn89  1  0.14061724  0.62948964  0.00167460  1
  Zn  Zn90  1  0.00266617  0.49679202  0.50379264  1
  Zn  Zn91  1  0.00491887  0.76226926  0.74521305  1
  Zn  Zn92  1  -0.00097678  0.87270208  0.37539810  1
  Zn  Zn93  1  0.00059756  0.75043344  0.24719532  1
  Zn  Zn94  1  0.62563943  0.63358313  0.50467775  1
  Zn  Zn95  1  0.87637050  0.37674594  0.00035400  1
  Zn  Zn96  1  0.00307824  0.49997699  -0.00163415  1
  Zn  Zn97  1  0.87490909  0.74872567  0.12440269  1
  Zn  Zn98  1  -0.01534061  0.12276249  0.63853810  1
  Zn  Zn99  1  0.62978474  0.25764212  0.37328290  1
  Zn  Zn100  1  0.25366515  0.63313323  0.87886392  1
  Zn  Zn101  1  0.24360221  0.25487237  -0.00639401  1
  Zn  Zn102  1  0.50120259  0.61414708  0.13354221  1
  Zn  Zn103  1  0.88072415  0.00271926  0.86883913  1
  Zn  Zn104  1  0.00590150  0.12094969  0.12861830  1
  Zn  Zn105  1  0.25007089  0.25061245  0.50186847  1
  Zn  Zn106  1  0.37886497  0.50468064  0.37019189  1
  Zn  Zn107  1  0.18674456  0.18723057  0.18622742  1
  Zn  Zn108  1  0.18658802  0.18669509  0.68755883  1
  Zn  Zn109  1  0.18612784  0.68713066  0.18697914  1
  Zn  Zn110  1  0.18447143  0.69013277  0.69014956  1
  Zn  Zn111  1  0.68834401  0.18546799  0.18678342  1
  Zn  Zn112  1  0.68140753  0.18417963  0.69010480  1
  Zn  Zn113  1  0.68714352  0.68923390  0.19646896  1
  Zn  Zn114  1  0.68799463  0.68608498  0.68592107  1
  Zn  Zn115  1  0.31681829  0.31174217  0.31375530  1
  Zn  Zn116  1  0.31251738  0.31574695  0.81149925  1
  Zn  Zn117  1  0.31230171  0.81116212  0.31058023  1
  Zn  Zn118  1  0.31306857  0.81194613  0.81031056  1
  Zn  Zn119  1  0.81268168  0.31356107  0.31190814  1
  Zn  Zn120  1  0.81492979  0.31521391  0.81347309  1
  Zn  Zn121  1  0.82066062  0.80706138  0.32082920  1
  Zn  Zn122  1  0.80848604  0.81488797  0.81186020  1
  Zn  Zn123  1  0.18880943  0.43732670  0.43512319  1
  Zn  Zn124  1  0.18825130  0.44524033  0.93802648  1
  Zn  Zn125  1  0.18660019  0.93810280  0.43706237  1
  Zn  Zn126  1  0.18676936  0.93931031  0.93798350  1
  Zn  Zn127  1  0.68872116  0.44010287  0.44234343  1
  Zn  Zn128  1  0.69025483  0.43806109  0.93748506  1
  Zn  Zn129  1  0.68003195  0.93967014  0.43552741  1
  Zn  Zn130  1  0.68846318  0.93656119  0.93523833  1
  Zn  Zn131  1  0.31089534  0.05763136  0.06098030  1
  Zn  Zn132  1  0.31052670  0.06106544  0.56221269  1
  Zn  Zn133  1  0.31392397  0.55783092  0.06169464  1
  Zn  Zn134  1  0.31325794  0.56275403  0.56741858  1
  Zn  Zn135  1  0.81596033  0.06290790  0.06195330  1
  Zn  Zn136  1  0.81198141  0.05871251  0.56548662  1
  Zn  Zn137  1  0.81160619  0.55894646  0.06229188  1
  Zn  Zn138  1  0.81440774  0.56101054  0.56412405  1
  Zn  Zn139  1  0.43565101  0.43514081  0.18784576  1
  Zn  Zn140  1  0.43705856  0.43982568  0.68637844  1
  Zn  Zn141  1  0.43200319  0.93639209  0.18503787  1
  Zn  Zn142  1  0.43647186  0.93380992  0.68758702  1
  Zn  Zn143  1  0.93603691  0.43512174  0.18884285  1
  Zn  Zn144  1  0.94580843  0.44633056  0.69130784  1
  Zn  Zn145  1  0.93574730  0.93787282  0.18552090  1
  Zn  Zn146  1  0.93179620  0.93179882  0.68318013  1
  Zn  Zn147  1  0.06343300  0.06242348  0.31532041  1
  Zn  Zn148  1  0.06347436  0.06334916  0.81713007  1
  Zn  Zn149  1  0.06549930  0.55942712  0.30978291  1
  Zn  Zn150  1  0.06458289  0.56956234  0.81420322  1
  Zn  Zn151  1  0.56513975  0.06393158  0.31213814  1
  Zn  Zn152  1  0.56459098  0.06074187  0.81151210  1
  Zn  Zn153  1  0.56634201  0.56898160  0.32270927  1
  Zn  Zn154  1  0.56597489  0.55981338  0.81784667  1
  Zn  Zn155  1  0.43580330  0.19235148  0.43701765  1
  Zn  Zn156  1  0.43509541  0.18646027  0.93674782  1
  Zn  Zn157  1  0.43582456  0.69038079  0.43852280  1
  Zn  Zn158  1  0.43576147  0.68256582  0.93969475  1
  Zn  Zn159  1  0.91985595  0.17037032  0.47556154  1
  Zn  Zn160  1  0.94372985  0.19030065  0.93658173  1
  Zn  Zn161  1  0.94115400  0.68529117  0.43650463  1
  Zn  Zn162  1  0.93949048  0.69293729  0.93466250  1
  Zn  Zn163  1  0.06371229  0.31005278  0.05995179  1
  Zn  Zn164  1  0.06131582  0.31181497  0.56445614  1
  Zn  Zn165  1  0.06317152  0.80943057  0.05758243  1
  Zn  Zn166  1  0.06351508  0.80846692  0.56561976  1
  Zn  Zn167  1  0.56216962  0.31046287  0.06262763  1
  Zn  Zn168  1  0.56206635  0.31567326  0.56284594  1
  Zn  Zn169  1  0.56245181  0.80953439  0.06318826  1
  Zn  Zn170  1  0.56478259  0.81958484  0.55918276  1
  O  O171  1  0.12660826  0.12364563  0.11109419  1
  O  O172  1  0.12307344  0.11607825  0.61778755  1
  O  O173  1  0.11691108  0.61796330  0.12386419  1
  O  O174  1  0.11690302  0.62996600  0.61502642  1
  O  O175  1  0.62054927  0.11476921  0.11902115  1
  O  O176  1  0.61334760  0.11710686  0.61902704  1
  O  O177  1  0.62431021  0.62843894  0.11591785  1
  O  O178  1  0.62385184  0.61265466  0.62356203  1
  O  O179  1  0.38345741  0.37866819  0.38366881  1
  O  O180  1  0.38316051  0.37528379  0.88260633  1
  O  O181  1  0.37889764  0.87026088  0.38766387  1
  O  O182  1  0.38153054  0.88117850  0.88053753  1
  O  O183  1  0.88271378  0.38095306  0.37836670  1
  O  O184  1  0.88571013  0.38477427  0.87412107  1
  O  O185  1  0.87931402  0.89129492  0.36826981  1
  O  O186  1  0.86906210  0.87936472  0.88763407  1
  O  O187  1  0.24552623  0.01182574  0.36460193  1
  O  O188  1  0.25783016  0.00382959  0.86737692  1
  O  O189  1  0.25027333  0.50644296  0.36582536  1
  O  O190  1  0.25608508  0.49682481  0.85818915  1
  O  O191  1  0.75427142  0.00761825  0.37299577  1
  O  O192  1  0.74882719  0.00863113  0.86569559  1
  O  O193  1  0.75894158  0.49452550  0.36706103  1
  O  O194  1  0.75837627  0.50792896  0.87243591  1
  O  O195  1  0.24569125  0.49103786  0.13127511  1
  O  O196  1  0.25367775  0.49268811  0.63988499  1
  O  O197  1  0.25533621  0.98981411  0.13825474  1
  O  O198  1  0.24446473  0.99492904  0.63186433  1
  O  O199  1  0.75556368  0.48938073  0.13632677  1
  O  O200  1  0.73446427  0.50078187  0.62585622  1
  O  O201  1  0.74335849  0.99444580  0.12868484  1
  O  O202  1  0.73829260  0.99813304  0.62961215  1
  O  O203  1  -0.00403922  0.36587157  0.26393082  1
  O  O204  1  0.00815102  0.36892886  0.75441675  1
  O  O205  1  0.00860301  0.87411180  0.24967694  1
  O  O206  1  -0.00374467  0.87636821  0.75155878  1
  O  O207  1  0.49350105  0.36547712  0.25903014  1
  O  O208  1  0.50737700  0.36945789  0.75566327  1
  O  O209  1  0.49029923  0.87095990  0.26103472  1
  O  O210  1  0.51358596  0.87961796  0.75592056  1
  O  O211  1  0.49247986  0.12853261  0.24561357  1
  O  O212  1  0.50653576  0.13393909  0.74123485  1
  O  O213  1  0.49726575  0.63570724  0.25260146  1
  O  O214  1  0.49255828  0.62158353  0.75202974  1
  O  O215  1  0.99507464  0.13143346  0.25020751  1
  O  O216  1  1.00136523  0.14019405  0.75514821  1
  O  O217  1  0.99389922  0.62211597  0.23965170  1
  O  O218  1  0.99222410  0.62568347  0.74010613  1
  O  O219  1  0.37501253  0.26002498  0.00570315  1
  O  O220  1  0.37307462  0.26441362  0.50261997  1
  O  O221  1  0.38192273  0.76134921  0.00873468  1
  O  O222  1  0.36838741  0.75677432  0.50732931  1
  O  O223  1  0.87068535  0.24962828  0.00940622  1
  O  O224  1  0.86356983  0.26898932  0.49346046  1
  O  O225  1  0.86311557  0.75734986  0.00241944  1
  O  O226  1  0.84054791  0.73490384  0.42402838  1
  O  O227  1  0.12609388  0.24071122  0.49362945  1
  O  O228  1  0.12656576  0.23352782  0.99891120  1
  O  O229  1  0.13190823  0.74278391  0.49197203  1
  O  O230  1  0.12103105  0.74501732  0.98486747  1
  O  O231  1  0.63213041  0.24744790  0.49797429  1
  O  O232  1  0.63079658  0.24283842  0.99468451  1
  O  O233  1  0.61491671  0.75107419  0.48297021  1
  O  O234  1  0.63668163  0.74248173  1.00354747  1
  O  O235  1  0.49403750  0.24399149  0.13189273  1
  O  O236  1  0.49953152  0.24186058  0.63199303  1
  O  O237  1  0.49304902  0.74950724  0.13631757  1
  O  O238  1  0.48735841  0.75980259  0.62008412  1
  O  O239  1  0.99453064  0.24878362  0.13423897  1
  O  O240  1  1.00871217  0.24872938  0.64509045  1
  O  O241  1  0.99701978  0.74054716  0.12714983  1
  O  O242  1  1.00077201  0.73541090  0.62573724  1
  O  O243  1  0.00816581  0.25440022  0.36942923  1
  O  O244  1  -0.00407702  0.26152817  0.86200737  1
  O  O245  1  0.01463662  0.75067698  0.37212054  1
  O  O246  1  0.00955375  0.75465576  0.87064411  1
  O  O247  1  0.50190977  0.25878030  0.36758679  1
  O  O248  1  0.50516725  0.25279726  0.86889084  1
  O  O249  1  0.50133040  0.75647668  0.36523878  1
  O  O250  1  0.49698388  0.76225377  0.87927475  1
  O  O251  1  0.24180616  0.12424547  0.49249440  1
  O  O252  1  0.24194223  0.12332718  0.99447512  1
  O  O253  1  0.24287177  0.62879501  0.49713615  1
  O  O254  1  0.25535461  0.61910592  0.99227993  1
  O  O255  1  0.74230084  0.13348504  0.49377205  1
  O  O256  1  0.74487748  0.13024620  0.99367803  1
  O  O257  1  0.74822948  0.61843124  0.48672378  1
  O  O258  1  0.74470525  0.63113867  0.99636156  1
  O  O259  1  0.25774622  0.37451236  0.00621284  1
  O  O260  1  0.25633838  0.37704911  0.50752997  1
  O  O261  1  0.25958738  0.88267152  0.01065706  1
  O  O262  1  0.25682621  0.87158607  0.50520009  1
  O  O263  1  0.75322511  0.36759951  0.00773695  1
  O  O264  1  0.76156792  0.36945105  0.50026274  1
  O  O265  1  0.75231583  0.86912222  0.00740667  1
  O  O266  1  0.73812189  0.87871531  0.51128441  1
  O  O267  1  0.13660536  0.50041191  0.23703112  1
  O  O268  1  0.13636579  0.49352069  0.75236340  1
  O  O269  1  0.13227479  0.98853437  0.25331324  1
  O  O270  1  0.13120071  1.00410562  0.73914424  1
  O  O271  1  0.63715460  0.50977141  0.25415467  1
  O  O272  1  0.62400141  0.49362977  0.73968318  1
  O  O273  1  0.63382029  1.00466345  0.23984293  1
  O  O274  1  0.63007278  0.99546213  0.73865541  1
  O  O275  1  0.36843048  0.01209192  0.24843307  1
  O  O276  1  0.36889674  -0.00249730  0.75895219  1
  O  O277  1  0.36172714  0.49904628  0.24974417  1
  O  O278  1  0.37054496  0.51364609  0.74896081  1
  O  O279  1  0.86938419  0.00899908  0.25589593  1
  O  O280  1  0.85889791  0.00069251  0.74778408  1
  O  O281  1  0.86922439  0.50580608  0.25552858  1
  O  O282  1  0.87426878  0.50856180  0.76024222  1
  O  O283  1  0.11887234  0.36120278  0.38212801  1
  O  O284  1  0.11438494  0.38189177  0.86857927  1
  O  O285  1  0.12657219  0.86689135  0.36677458  1
  O  O286  1  0.12533037  0.86367245  0.88047491  1
  O  O287  1  0.61157201  0.37607486  0.38071794  1
  O  O288  1  0.61890096  0.36842959  0.87022904  1
  O  O289  1  0.60968333  0.86822362  0.37607474  1
  O  O290  1  0.61868410  0.88018253  0.86045555  1
  O  O291  1  0.37983758  0.12779018  0.13030285  1
  O  O292  1  0.38615011  0.12669714  0.62044222  1
  O  O293  1  0.38002348  0.63631882  0.12072301  1
  O  O294  1  0.37472424  0.63376737  0.63702941  1
  O  O295  1  0.87464797  0.13724897  0.13301376  1
  O  O296  1  0.88749286  0.13715841  0.58440513  1
  O  O297  1  0.88028559  0.62257854  0.13281269  1
  O  O298  1  0.88306155  0.62214618  0.63323888  1
  O  O299  1  0.25573564  0.25578496  0.12294196  1
  O  O300  1  0.25188868  0.25891716  0.62370529  1
  O  O301  1  0.25955192  0.75995348  0.13286080  1
  O  O302  1  0.25502637  0.75824400  0.62195037  1
  O  O303  1  0.75742292  0.25467162  0.12280670  1
  O  O304  1  0.74353513  0.24743626  0.61750701  1
  O  O305  1  0.74984539  0.75775884  0.12195688  1
  O  O306  1  0.74401563  0.76122769  0.62101121  1
  O  O307  1  0.24264014  0.24180577  0.37489095  1
  O  O308  1  0.26132769  0.23414437  0.87508323  1
  O  O309  1  0.24219656  0.74410144  0.37908653  1
  O  O310  1  0.23837309  0.75192378  0.87039468  1
  O  O311  1  0.74912258  0.24089744  0.37750205  1
  O  O312  1  0.74562959  0.24409724  0.87907019  1
  O  O313  1  0.72095020  0.75598077  0.34996663  1
  O  O314  1  0.75233236  0.74112125  0.88450987  1
  O  O315  1  0.01217139  0.12040910  -0.00002792  1
  O  O316  1  0.01806417  0.11037093  0.49082742  1
  O  O317  1  -0.00512426  0.62199732  0.01347478  1
  O  O318  1  0.00646471  0.62456209  0.50687937  1
  O  O319  1  0.50452329  0.11828190  0.00618256  1
  O  O320  1  0.50153408  0.12035782  0.50411971  1
  O  O321  1  0.50970610  0.61538016  0.00160039  1
  O  O322  1  0.50071333  0.61289730  0.49343336  1
  O  O323  1  0.49247864  0.38325235  0.49424237  1
  O  O324  1  0.49569942  0.37765853  0.99520387  1
  O  O325  1  0.49181979  0.88470747  0.49075906  1
  O  O326  1  0.49602695  0.87933466  0.99303457  1
  O  O327  1  0.98982719  0.37330845  0.49223769  1
  O  O328  1  0.99821721  0.37551693  0.99052550  1
  O  O329  1  1.00874175  0.88580157  0.49780216  1
  O  O330  1  0.99062514  0.88208970  0.99953970  1
  O  O331  1  0.49814787  0.49542275  0.38188572  1
  O  O332  1  0.49914695  0.49162529  0.88656865  1
  O  O333  1  0.50299083  0.99526708  0.38241274  1
  O  O334  1  0.49389528  0.99442669  0.87860851  1
  O  O335  1  0.99555016  0.48939767  0.37579511  1
  O  O336  1  0.99426437  0.49467940  0.87466401  1
  O  O337  1  0.99294865  0.99842066  0.38245633  1
  O  O338  1  0.99753819  0.99885736  0.88697185  1
  O  O339  1  -0.00757754  0.00478391  0.11037609  1
  O  O340  1  0.00602535  0.00288326  0.61946868  1
  O  O341  1  0.00736316  0.50288679  0.12612982  1
  O  O342  1  0.00193078  0.51742714  0.62060527  1
  O  O343  1  0.50716794  0.00164383  0.12110859  1
  O  O344  1  0.50360037  0.00532990  0.61955143  1
  O  O345  1  0.49714822  0.49721073  0.11317150  1
  O  O346  1  0.51070584  0.49555789  0.61600447  1
  O  O347  1  0.25516407  0.37873721  0.23918236  1
  O  O348  1  0.24483618  0.38238605  0.74450564  1
  O  O349  1  0.24560351  0.88281398  0.24502122  1
  O  O350  1  0.25622178  0.88779702  0.74037740  1
  O  O351  1  0.75199731  0.38425928  0.24312329  1
  O  O352  1  0.73530279  0.37649465  0.75722254  1
  O  O353  1  0.75913932  0.88020344  0.23744423  1
  O  O354  1  0.73800943  0.88224813  0.74363198  1
  O  O355  1  0.25528881  0.11859805  0.25412819  1
  O  O356  1  0.24698248  0.11301987  0.75702224  1
  O  O357  1  0.24483007  0.61610148  0.25880491  1
  O  O358  1  0.25200137  0.61373953  0.75001076  1
  O  O359  1  0.75570598  0.12104858  0.25947736  1
  O  O360  1  0.74113644  0.11571284  0.75934346  1
  O  O361  1  0.75957871  0.62121202  0.26354864  1
  O  O362  1  0.75530732  0.62298183  0.75720247  1
  O  O363  1  0.36483868  0.13124001  0.36704904  1
  O  O364  1  0.36741731  0.10880572  0.88419047  1
  O  O365  1  0.35880072  0.62528637  0.38140903  1
  O  O366  1  0.37514194  0.62493607  0.86004285  1
  O  O367  1  0.86592726  0.11736991  0.37624447  1
  O  O368  1  0.86271008  0.12514359  0.87996926  1
  O  O369  1  0.87645085  0.60555791  0.36764906  1
  O  O370  1  0.86765247  0.62017152  0.86991380  1
  O  O371  1  0.13498139  0.37932561  0.12117721  1
  O  O372  1  0.13633725  0.37399127  0.63153536  1
  O  O373  1  0.13563097  0.86828007  0.13189005  1
  O  O374  1  0.13838329  0.88211924  0.61936859  1
  O  O375  1  0.63826283  0.36771417  0.12491519  1
  O  O376  1  0.62068253  0.38564588  0.63400396  1
  O  O377  1  0.63199017  0.88565392  0.12052822  1
  O  O378  1  0.62768688  0.88247333  0.63397577  1
  O  O379  1  0.11396081  0.24368494  0.25757119  1
  O  O380  1  0.12738004  0.26264343  0.75412848  1
  O  O381  1  0.12619196  0.76090622  0.25724500  1
  O  O382  1  0.12131132  0.74476118  0.76594799  1
  O  O383  1  0.61026378  0.24150266  0.25138323  1
  O  O384  1  0.61536906  0.25760593  0.75396631  1
  O  O385  1  0.60345437  0.75148568  0.25424168  1
  O  O386  1  0.62622409  0.76348519  0.74830695  1
  O  O387  1  0.38317979  0.23875825  0.24520955  1
  O  O388  1  0.38908470  0.25461277  0.74865573  1
  O  O389  1  0.38600720  0.75492650  0.24115709  1
  O  O390  1  0.37277261  0.73662090  0.74233267  1
  O  O391  1  0.88529554  0.24496410  0.24695917  1
  O  O392  1  0.88489517  0.25299883  0.74671900  1
  O  O393  1  0.87871754  0.73368272  0.24903724  1
  O  O394  1  0.87494618  0.73896888  0.75537775  1
  O  O395  1  0.38148973  0.49244752  0.50112667  1
  O  O396  1  0.38404421  0.48580331  0.99889520  1
  O  O397  1  0.38443652  0.99302193  0.50357933  1
  O  O398  1  0.38183215  0.98796767  0.99477473  1
  O  O399  1  0.87566687  0.48806784  0.49194313  1
  O  O400  1  0.87679681  0.49855406  0.98695526  1
  O  O401  1  0.88588780  1.00065547  0.49148275  1
  O  O402  1  0.88021189  0.99313890  0.99654847  1
  O  O403  1  0.11731220  0.01022788  -0.00057067  1
  O  O404  1  0.12295265  0.00431699  0.51056006  1
  O  O405  1  0.12380666  0.50341241  0.01464993  1
  O  O406  1  0.12363788  0.51297076  0.49327986  1
  O  O407  1  0.62028757  0.00359534  0.00615222  1
  O  O408  1  0.61222605  0.00529572  0.50967639  1
  O  O409  1  0.61925686  0.50769715  -0.00138338  1
  O  O410  1  0.61812305  0.50122487  0.51151931  1
  O  O411  1  0.36758089  0.36747699  0.11805288  1
  O  O412  1  0.36511752  0.37462901  0.61880311  1
  O  O413  1  0.36784700  0.86739426  0.11704915  1
  O  O414  1  0.36631368  0.87058721  0.61593286  1
  O  O415  1  0.86979032  0.36211154  0.12571593  1
  O  O416  1  0.88116257  0.38290035  0.61384959  1
  O  O417  1  0.86548325  0.87429528  0.11403777  1
  O  O418  1  0.85476639  0.87816159  0.61905714  1
  O  O419  1  0.13393218  0.13322134  0.37984552  1
  O  O420  1  0.13880302  0.11835171  0.88698901  1
  O  O421  1  0.13282206  0.63161551  0.37996316  1
  O  O422  1  0.12938223  0.63396909  0.88029352  1
  O  O423  1  0.63432416  0.12652025  0.38216000  1
  O  O424  1  0.63147144  0.13038086  0.88062266  1
  O  O425  1  0.63377830  0.64219410  0.38077702  1
  O  O426  1  0.63842375  0.62014532  0.88502702  1
