# generated using pymatgen
data_V85Zn86O256
_symmetry_space_group_name_H-M   'P 1'
_cell_length_a   16.97790001
_cell_length_b   16.96517440
_cell_length_c   16.98832660
_cell_angle_alpha   89.95765282
_cell_angle_beta   90.00708678
_cell_angle_gamma   90.00441862
_symmetry_Int_Tables_number   1
_chemical_formula_structural   V85Zn86O256
_chemical_formula_sum   'V85 Zn86 O256'
_cell_volume   4893.19787192
_cell_formula_units_Z   1
loop_
 _symmetry_equiv_pos_site_id
 _symmetry_equiv_pos_as_xyz
  1  'x, y, z'
loop_
 _atom_site_type_symbol
 _atom_site_label
 _atom_site_symmetry_multiplicity
 _atom_site_fract_x
 _atom_site_fract_y
 _atom_site_fract_z
 _atom_site_occupancy
  V  V0  1  0.24340079  0.25218153  0.50351154  1
  V  V1  1  0.39577249  0.62541760  0.23963405  1
  V  V2  1  0.61850397  0.75303171  0.36989537  1
  V  V3  1  0.31539881  0.81084639  0.44834619  1
  V  V4  1  0.12293273  0.13770296  -0.00948331  1
  V  V5  1  0.37070784  0.50493403  0.37353026  1
  V  V6  1  0.49826545  -0.00503445  0.49579111  1
  V  V7  1  0.25295405  0.87865559  0.63239117  1
  V  V8  1  0.50162288  0.11116264  0.12237988  1
  V  V9  1  -0.01846652  0.62603272  0.12913715  1
  V  V10  1  0.24136144  -0.00097816  0.25086212  1
  V  V11  1  0.49824387  0.24352641  0.75055033  1
  V  V12  1  0.12425742  0.62283296  0.00341996  1
  V  V13  1  0.50730372  0.37513894  0.87281779  1
  V  V14  1  0.50019646  0.62568686  0.62539140  1
  V  V15  1  0.36901909  0.37476530  0.50053976  1
  V  V16  1  0.01025620  0.87229467  0.36712753  1
  V  V17  1  0.80485303  0.32181611  0.67287858  1
  V  V18  1  0.12785176  0.74929300  0.87752103  1
  V  V19  1  0.25071793  0.37357949  0.13024806  1
  V  V20  1  0.75022438  0.74913489  0.49740087  1
  V  V21  1  0.75148123  0.24279967  0.00800895  1
  V  V22  1  0.87566864  0.00065555  0.37204134  1
  V  V23  1  0.61931835  0.87627325  0.24046920  1
  V  V24  1  0.12013576  0.00092428  0.11853279  1
  V  V25  1  0.62571690  0.74435067  0.87364616  1
  V  V26  1  0.76197811  0.74461737  0.01179482  1
  V  V27  1  0.62851126  0.24695009  0.87722980  1
  V  V28  1  0.63064670  0.49317641  0.62108680  1
  V  V29  1  0.12450591  0.50073077  0.12548028  1
  V  V30  1  0.37588093  0.89331316  -0.00204176  1
  V  V31  1  0.75156775  0.50142293  0.24818787  1
  V  V32  1  0.00005616  0.50144428  0.49837218  1
  V  V33  1  0.75250519  0.50628784  0.74676324  1
  V  V34  1  0.87811877  -0.00228695  0.87019327  1
  V  V35  1  0.87405931  0.87708981  0.01211303  1
  V  V36  1  0.62801022  0.00284477  0.61508395  1
  V  V37  1  0.12137795  0.24583292  0.37629752  1
  V  V38  1  0.62247672  0.24410826  0.38150929  1
  V  V39  1  0.49898984  0.49734658  0.49875255  1
  V  V40  1  0.62378183  0.37245786  0.25022289  1
  V  V41  1  0.86827624  0.37066309  0.49713737  1
  V  V42  1  -0.01000800  0.25130131  0.24919983  1
  V  V43  1  0.74604140  0.12253847  0.38245093  1
  V  V44  1  0.75521804  0.62716076  0.36909927  1
  V  V45  1  -0.01107765  0.13080890  0.62466296  1
  V  V46  1  0.13054143  0.88260806  0.75195318  1
  V  V47  1  0.12795389  0.49395413  0.62207686  1
  V  V48  1  0.74612973  -0.00542272  0.23982717  1
  V  V49  1  0.00292194  0.74968441  0.75057429  1
  V  V50  1  0.62483740  0.10253271  0.00480778  1
  V  V51  1  0.24443875  0.87309199  0.12535795  1
  V  V52  1  0.87806197  0.87403729  0.49564117  1
  V  V53  1  0.12211661  0.36881810  0.75406089  1
  V  V54  1  0.37125153  0.00089245  0.38303935  1
  V  V55  1  0.36298357  0.36985985  -0.01032325  1
  V  V56  1  -0.00761735  0.74823342  0.24572883  1
  V  V57  1  0.49962536  0.24648912  0.24935457  1
  V  V58  1  0.24716545  0.51812630  0.25383567  1
  V  V59  1  -0.00082315  0.49937042  -0.00223278  1
  V  V60  1  0.87553191  0.37292962  0.00731743  1
  V  V61  1  0.62738093  0.62450466  0.49813239  1
  V  V62  1  0.49952431  0.88980331  0.87664796  1
  V  V63  1  0.75134578  0.87473517  0.62351496  1
  V  V64  1  0.75058360  0.36669027  0.12755367  1
  V  V65  1  0.13680369  0.63656211  0.49469863  1
  V  V66  1  0.57062120  0.67644983  0.05411507  1
  V  V67  1  0.00392799  0.63161715  0.62280012  1
  V  V68  1  0.37729015  0.50192548  0.87103315  1
  V  V69  1  -0.00112358  0.87715850  0.88103606  1
  V  V70  1  0.37315793  0.24927086  0.12639491  1
  V  V71  1  0.87679102  0.74986910  0.62512091  1
  V  V72  1  0.24989379  0.49581330  0.74450002  1
  V  V73  1  0.25405438  0.74785405  0.00241394  1
  V  V74  1  0.50196501  0.12533875  0.61702762  1
  V  V75  1  0.37119594  0.24877834  0.62561403  1
  V  V76  1  0.75315712  0.11940320  0.87080467  1
  V  V77  1  0.24520082  0.12607756  0.38229942  1
  V  V78  1  0.61997529  0.49658137  0.12014455  1
  V  V79  1  0.87665517  0.50373657  0.36968786  1
  V  V80  1  0.62738359  0.87619135  0.74942152  1
  V  V81  1  0.50330659  0.49763467  -0.00137173  1
  V  V82  1  0.37030284  0.75181204  0.63225378  1
  V  V83  1  -0.00489443  0.12595144  0.12445865  1
  V  V84  1  0.12433298  0.37702419  0.25319824  1
  Zn  Zn85  1  0.12624306  0.01304314  0.62022269  1
  Zn  Zn86  1  0.62878860  0.37113202  0.74293718  1
  Zn  Zn87  1  0.75057867  0.62558529  0.87776244  1
  Zn  Zn88  1  0.24906452  0.62081188  0.87485088  1
  Zn  Zn89  1  0.37290336  0.62194942  0.74690895  1
  Zn  Zn90  1  0.49821760  0.37336339  0.37336735  1
  Zn  Zn91  1  -0.00082981  0.37549612  0.37665738  1
  Zn  Zn92  1  0.87197898  0.50241020  0.87615789  1
  Zn  Zn93  1  0.86790922  0.12922242  0.24583882  1
  Zn  Zn94  1  0.37282875  0.12045571  0.24957273  1
  Zn  Zn95  1  0.00215667  0.36560196  0.88099898  1
  Zn  Zn96  1  0.87617967  0.62665474  0.75301564  1
  Zn  Zn97  1  0.39085343  0.74525672  0.11953463  1
  Zn  Zn98  1  0.75617194  0.00358637  0.74393864  1
  Zn  Zn99  1  0.00525077  0.01043474  0.49870105  1
  Zn  Zn100  1  0.49744716  0.87186129  0.37289397  1
  Zn  Zn101  1  0.27710752  0.21727325  -0.04324331  1
  Zn  Zn102  1  0.28455910  0.09055207  0.83397265  1
  Zn  Zn103  1  0.99423793  0.24313223  0.74962664  1
  Zn  Zn104  1  0.74736459  0.25057740  0.50377668  1
  Zn  Zn105  1  0.13385272  0.74789050  0.36875753  1
  Zn  Zn106  1  0.50104176  0.75012756  0.75121658  1
  Zn  Zn107  1  0.18427980  0.18601359  0.19033044  1
  Zn  Zn108  1  0.17603921  0.18476922  0.67962713  1
  Zn  Zn109  1  0.17936351  0.69183849  0.18752963  1
  Zn  Zn110  1  0.18957605  0.68711092  0.68846002  1
  Zn  Zn111  1  0.68317610  0.17967050  0.19097462  1
  Zn  Zn112  1  0.68166652  0.18151864  0.69063624  1
  Zn  Zn113  1  0.69260251  0.69199288  0.19277768  1
  Zn  Zn114  1  0.68690789  0.68685063  0.68647666  1
  Zn  Zn115  1  0.31146432  0.31543237  0.31283513  1
  Zn  Zn116  1  0.31400622  0.31101331  0.80770333  1
  Zn  Zn117  1  0.31599832  0.80640744  0.28729894  1
  Zn  Zn118  1  0.31714871  0.92454406  0.81127188  1
  Zn  Zn119  1  0.81007657  0.31320803  0.31699851  1
  Zn  Zn120  1  0.84799150  0.28476398  0.84750271  1
  Zn  Zn121  1  0.81335012  0.81345244  0.30720462  1
  Zn  Zn122  1  0.81206035  0.81107745  0.81482775  1
  Zn  Zn123  1  0.18700372  0.43930614  0.43631982  1
  Zn  Zn124  1  0.19847088  0.41755520  0.92876392  1
  Zn  Zn125  1  0.18362782  0.94360529  0.43990977  1
  Zn  Zn126  1  0.18339785  0.94195360  0.94271924  1
  Zn  Zn127  1  0.68834634  0.43514033  0.43493809  1
  Zn  Zn128  1  0.69106997  0.43660906  0.93690313  1
  Zn  Zn129  1  0.68822740  0.93603307  0.43384934  1
  Zn  Zn130  1  0.69591676  0.92999289  0.93582784  1
  Zn  Zn131  1  0.30599739  0.06621223  0.06602044  1
  Zn  Zn132  1  0.31645876  0.06154944  0.66902301  1
  Zn  Zn133  1  0.31298777  0.55821502  0.06266041  1
  Zn  Zn134  1  0.31111073  0.56366650  0.56276266  1
  Zn  Zn135  1  0.81700869  0.05732148  0.05972686  1
  Zn  Zn136  1  0.81848212  0.06291496  0.55928883  1
  Zn  Zn137  1  0.80674923  0.56002153  0.06065462  1
  Zn  Zn138  1  0.81585967  0.56243110  0.56000897  1
  Zn  Zn139  1  0.43667128  0.43638961  0.18739359  1
  Zn  Zn140  1  0.43920033  0.43210446  0.68543552  1
  Zn  Zn141  1  0.43080271  0.93385125  0.19070905  1
  Zn  Zn142  1  0.44479859  0.93285780  0.68259144  1
  Zn  Zn143  1  0.93705564  0.43854274  0.18737020  1
  Zn  Zn144  1  0.94434254  0.44331265  0.68815661  1
  Zn  Zn145  1  0.93956336  0.93897392  0.19131033  1
  Zn  Zn146  1  0.94310382  0.94029812  0.68764291  1
  Zn  Zn147  1  0.06061048  0.06352237  0.30901009  1
  Zn  Zn148  1  0.05937661  0.06283787  0.80796510  1
  Zn  Zn149  1  0.06074021  0.56973079  0.31272359  1
  Zn  Zn150  1  0.06315862  0.56043972  0.81357691  1
  Zn  Zn151  1  0.56217993  0.06125262  0.31155286  1
  Zn  Zn152  1  0.56755042  0.06418156  0.80657666  1
  Zn  Zn153  1  0.56637017  0.55848812  0.31429823  1
  Zn  Zn154  1  0.56729917  0.56198586  0.80803451  1
  Zn  Zn155  1  0.43454735  0.18214058  0.43879262  1
  Zn  Zn156  1  0.44549998  0.17874359  0.93737859  1
  Zn  Zn157  1  0.44154303  0.67759034  0.43196392  1
  Zn  Zn158  1  0.43384176  0.69521264  0.92793439  1
  Zn  Zn159  1  0.93535947  0.18603162  0.43865700  1
  Zn  Zn160  1  0.93921939  0.18112904  0.94326909  1
  Zn  Zn161  1  0.94108205  0.68927142  0.43561090  1
  Zn  Zn162  1  0.93691759  0.68598774  0.93660518  1
  Zn  Zn163  1  0.06298494  0.30965471  0.06708871  1
  Zn  Zn164  1  0.05524092  0.30957836  0.56345417  1
  Zn  Zn165  1  0.05944167  0.81138174  0.06603781  1
  Zn  Zn166  1  0.07958610  0.83846144  0.54694450  1
  Zn  Zn167  1  0.56049793  0.30779667  0.06037863  1
  Zn  Zn168  1  0.55845296  0.31317582  0.55897044  1
  Zn  Zn169  1  0.56834189  0.84400465  0.05561784  1
  Zn  Zn170  1  0.56094720  0.81273933  0.55955742  1
  O  O171  1  0.11488191  0.12039213  0.12265267  1
  O  O172  1  0.10680088  0.12482875  0.61621338  1
  O  O173  1  0.11930612  0.61965669  0.11453186  1
  O  O174  1  0.12015094  0.62110528  0.61527690  1
  O  O175  1  0.61483686  0.12570751  0.11597277  1
  O  O176  1  0.61357166  0.11616901  0.62538494  1
  O  O177  1  0.62534198  0.61969938  0.12160282  1
  O  O178  1  0.61792855  0.61879531  0.61723018  1
  O  O179  1  0.37707982  0.38708429  0.37837411  1
  O  O180  1  0.39502198  0.38931225  0.86896138  1
  O  O181  1  0.37055513  0.87118282  0.37880134  1
  O  O182  1  0.38489444  0.87190155  0.89039708  1
  O  O183  1  0.87559882  0.38579280  0.38099800  1
  O  O184  1  0.87178050  0.38545013  0.89755790  1
  O  O185  1  0.87872765  0.88150952  0.37901365  1
  O  O186  1  0.88295571  0.87632344  0.88244198  1
  O  O187  1  0.25039247  0.00587820  0.37240740  1
  O  O188  1  0.25270247  -0.00695031  0.87446721  1
  O  O189  1  0.25902437  0.49790283  0.36559071  1
  O  O190  1  0.26271478  0.49887704  0.86747831  1
  O  O191  1  0.75673219  0.00583435  0.37025609  1
  O  O192  1  0.75761724  0.00361548  0.87192635  1
  O  O193  1  0.75556303  0.50818799  0.36945919  1
  O  O194  1  0.74730999  0.50283621  0.86236867  1
  O  O195  1  0.24293411  0.49883756  0.13898727  1
  O  O196  1  0.24047072  0.50326610  0.63145814  1
  O  O197  1  0.24268904  0.99432958  0.13322273  1
  O  O198  1  0.24657905  0.98106969  0.61835063  1
  O  O199  1  0.73815283  0.49025427  0.12693692  1
  O  O200  1  0.73998234  0.50987990  0.62952894  1
  O  O201  1  0.75409594  1.00489434  0.14205686  1
  O  O202  1  0.74474350  0.99433835  0.62250005  1
  O  O203  1  0.00648405  0.36849749  0.24977954  1
  O  O204  1  0.01136503  0.37662853  0.75204746  1
  O  O205  1  -0.00363727  0.86321099  0.25596857  1
  O  O206  1  0.00925309  0.86574444  0.75783610  1
  O  O207  1  0.50434714  0.36313997  0.25018143  1
  O  O208  1  0.50696739  0.36524484  0.75523330  1
  O  O209  1  0.51412278  0.88000795  0.25293590  1
  O  O210  1  0.51435324  0.87156073  0.75400969  1
  O  O211  1  0.49795084  0.13308218  0.24333950  1
  O  O212  1  0.50493514  0.13813646  0.74195018  1
  O  O213  1  0.49383467  0.61633824  0.24535652  1
  O  O214  1  0.50105203  0.62494357  0.73453661  1
  O  O215  1  0.99620802  0.13388849  0.24202870  1
  O  O216  1  1.00219113  0.12761026  0.73637019  1
  O  O217  1  0.99861574  0.63239373  0.23996451  1
  O  O218  1  1.00196434  0.63065312  0.74124994  1
  O  O219  1  0.38019892  0.25467246  0.01830494  1
  O  O220  1  0.36756835  0.25733006  0.50133047  1
  O  O221  1  0.36443658  0.74923865  0.00282192  1
  O  O222  1  0.37569578  0.74727354  0.50189104  1
  O  O223  1  0.86018840  0.25571926  0.00253806  1
  O  O224  1  0.87068441  0.26666219  0.49072181  1
  O  O225  1  0.86727143  0.75700732  -0.00037992  1
  O  O226  1  0.86808534  0.75388998  0.50419720  1
  O  O227  1  0.13290184  0.26409204  0.48763237  1
  O  O228  1  0.12082449  0.23952892  0.99741553  1
  O  O229  1  0.12283117  0.73969085  0.49439747  1
  O  O230  1  0.12889473  0.74172015  0.99751160  1
  O  O231  1  0.62452459  0.25618367  0.48465319  1
  O  O232  1  0.63718125  0.24651411  0.99474622  1
  O  O233  1  0.63217826  0.74520330  0.49245048  1
  O  O234  1  0.62848568  0.74857298  0.99793600  1
  O  O235  1  0.49369884  0.24398991  0.13391537  1
  O  O236  1  0.49768829  0.24308877  0.62876269  1
  O  O237  1  0.51373553  0.74237799  0.10574843  1
  O  O238  1  0.49133650  0.74242903  0.62156102  1
  O  O239  1  1.00445696  0.23707205  0.13620517  1
  O  O240  1  0.99684102  0.23955623  0.62958208  1
  O  O241  1  1.00113780  0.74068402  0.13609132  1
  O  O242  1  0.99865278  0.74103652  0.62825318  1
  O  O243  1  0.00669861  0.25120172  0.36821912  1
  O  O244  1  -0.03480945  0.25630294  0.86269823  1
  O  O245  1  0.00061106  0.75628101  0.36469490  1
  O  O246  1  0.00959684  0.75666829  0.87306730  1
  O  O247  1  0.50377146  0.24652291  0.36623470  1
  O  O248  1  0.50641247  0.25640654  0.86755674  1
  O  O249  1  0.51479385  0.74944192  0.37928175  1
  O  O250  1  0.50984627  0.76144769  0.87299870  1
  O  O251  1  0.24888035  0.13805298  0.48364913  1
  O  O252  1  0.22947374  0.13024047  1.01059179  1
  O  O253  1  0.23498891  0.62422286  0.50230951  1
  O  O254  1  0.24230433  0.62956989  1.00063319  1
  O  O255  1  0.75493153  0.12841399  0.48624870  1
  O  O256  1  0.74365653  0.12781303  0.99952473  1
  O  O257  1  0.74535504  0.62895186  0.48953021  1
  O  O258  1  0.75303341  0.63915043  0.99700539  1
  O  O259  1  0.25328898  0.40074103  0.02861078  1
  O  O260  1  0.26157564  0.36838150  0.49220898  1
  O  O261  1  0.25933163  0.86829887  0.00665824  1
  O  O262  1  0.25357249  0.86766810  0.50531422  1
  O  O263  1  0.75391916  0.36658354  0.01037685  1
  O  O264  1  0.75984072  0.37419042  0.49826591  1
  O  O265  1  0.76501111  0.86120646  -0.00196300  1
  O  O266  1  0.76061830  0.86915745  0.50132400  1
  O  O267  1  0.13065620  0.49830433  0.24786760  1
  O  O268  1  0.13045208  0.49595173  0.74171972  1
  O  O269  1  0.13615760  1.00367679  0.24293969  1
  O  O270  1  0.12120200  0.98415217  0.74488319  1
  O  O271  1  0.63080943  0.49235867  0.24228741  1
  O  O272  1  0.63672999  0.49716867  0.73960451  1
  O  O273  1  0.63662860  0.98876171  0.25723709  1
  O  O274  1  0.62867341  0.99289688  0.73500223  1
  O  O275  1  0.36051576  -0.00444609  0.26231313  1
  O  O276  1  0.37437454  -0.00487336  0.74172714  1
  O  O277  1  0.36914440  0.50803454  0.25394926  1
  O  O278  1  0.36831691  0.49819600  0.75175313  1
  O  O279  1  0.86372620  -0.00188004  0.25931929  1
  O  O280  1  0.87188643  -0.01257747  0.76566047  1
  O  O281  1  0.86801301  0.49478129  0.26207658  1
  O  O282  1  0.86232014  0.50051626  0.74720899  1
  O  O283  1  0.12223005  0.36995424  0.36695146  1
  O  O284  1  0.11710464  0.38099014  0.85890513  1
  O  O285  1  0.11250263  0.87220774  0.37577702  1
  O  O286  1  0.11860063  0.86749286  0.87342757  1
  O  O287  1  0.62186244  0.36774354  0.36555682  1
  O  O288  1  0.61847234  0.36823183  0.87421470  1
  O  O289  1  0.62437333  0.86652457  0.36737449  1
  O  O290  1  0.62143382  0.86844868  0.86811092  1
  O  O291  1  0.37952617  0.13309970  0.12813390  1
  O  O292  1  0.38952763  0.14029080  0.61893122  1
  O  O293  1  0.37790059  0.62047305  0.13586942  1
  O  O294  1  0.38304906  0.63332373  0.62171524  1
  O  O295  1  0.89040912  0.11889825  0.12590476  1
  O  O296  1  0.88632011  0.12100687  0.62639219  1
  O  O297  1  0.88308577  0.61779645  0.12410097  1
  O  O298  1  0.88549534  0.63226701  0.62486433  1
  O  O299  1  0.25837198  0.26074763  0.13560485  1
  O  O300  1  0.25696036  0.24832707  0.60867209  1
  O  O301  1  0.24615170  0.75727423  0.11600149  1
  O  O302  1  0.26580549  0.75083922  0.62531391  1
  O  O303  1  0.74269863  0.25847365  0.12380089  1
  O  O304  1  0.74282352  0.25473331  0.62329314  1
  O  O305  1  0.74747275  0.74742126  0.10997564  1
  O  O306  1  0.75455491  0.75568458  0.61784875  1
  O  O307  1  0.24215799  0.24551481  0.37763147  1
  O  O308  1  0.27207961  0.32007318  0.91221657  1
  O  O309  1  0.25832979  0.75983800  0.38041512  1
  O  O310  1  0.23533451  0.74436484  0.88956385  1
  O  O311  1  0.73929969  0.24037256  0.37228559  1
  O  O312  1  0.74949837  0.23783257  0.88712983  1
  O  O313  1  0.74409970  0.74290116  0.37686963  1
  O  O314  1  0.74024107  0.75108986  0.88646554  1
  O  O315  1  0.00859533  0.12782332  0.01614266  1
  O  O316  1  -0.00679459  0.12419800  0.51124591  1
  O  O317  1  0.00486131  0.61893000  0.00835205  1
  O  O318  1  0.00659620  0.62066385  0.50716748  1
  O  O319  1  0.51337281  0.12593556  0.00921216  1
  O  O320  1  0.49825589  0.11175130  0.50589230  1
  O  O321  1  0.50528002  0.62217036  -0.00333398  1
  O  O322  1  0.50668418  0.61747446  0.50789339  1
  O  O323  1  0.48684941  0.38021154  0.49505484  1
  O  O324  1  0.49225601  0.37614118  0.98874558  1
  O  O325  1  0.50448707  0.88889253  0.49467014  1
  O  O326  1  0.48606461  0.87985855  0.99211115  1
  O  O327  1  0.98985310  0.38457517  0.49925289  1
  O  O328  1  0.99291609  0.38046668  1.00536255  1
  O  O329  1  0.98373072  0.86279866  0.48603911  1
  O  O330  1  0.98636691  0.86512227  0.99206575  1
  O  O331  1  0.49305593  0.49845039  0.38221874  1
  O  O332  1  0.50120799  0.49419997  0.87691038  1
  O  O333  1  0.49021619  0.99836245  0.37811964  1
  O  O334  1  0.50755327  0.98903626  0.86842499  1
  O  O335  1  0.99128531  0.50120882  0.37870760  1
  O  O336  1  0.99857647  0.49900252  0.89030790  1
  O  O337  1  0.99296876  0.99212805  0.37266913  1
  O  O338  1  0.99513250  0.98486326  0.87195081  1
  O  O339  1  0.00926651  0.01359481  0.13696757  1
  O  O340  1  -0.00002164  0.00995376  0.62188160  1
  O  O341  1  0.00571474  0.50625840  0.11834708  1
  O  O342  1  0.00781200  0.51371430  0.61961485  1
  O  O343  1  0.49120673  0.01279032  0.13293938  1
  O  O344  1  0.50685609  0.00593733  0.61488791  1
  O  O345  1  0.51231799  0.49149233  0.11834503  1
  O  O346  1  0.50513848  0.50686541  0.61835983  1
  O  O347  1  0.24493035  0.38606207  0.24472618  1
  O  O348  1  0.23627678  0.38671486  0.75052611  1
  O  O349  1  0.25114666  0.88059133  0.23338753  1
  O  O350  1  0.24323778  0.86616014  0.74328343  1
  O  O351  1  0.74469461  0.37894438  0.24333117  1
  O  O352  1  0.74903660  0.38121562  0.73691311  1
  O  O353  1  0.74207054  0.88806796  0.25529269  1
  O  O354  1  0.73984863  0.87474838  0.74438111  1
  O  O355  1  0.25113528  0.11656716  0.25925998  1
  O  O356  1  0.25402377  0.12952966  0.73428885  1
  O  O357  1  0.25398379  0.61947296  0.24608613  1
  O  O358  1  0.25016330  0.61110400  0.75388843  1
  O  O359  1  0.74966075  0.11283791  0.25872763  1
  O  O360  1  0.74515504  0.12270794  0.76687624  1
  O  O361  1  0.74602906  0.61822477  0.26140774  1
  O  O362  1  0.75217620  0.61860878  0.75173015  1
  O  O363  1  0.36481038  0.11569252  0.37148289  1
  O  O364  1  0.35037252  0.16524637  0.88485315  1
  O  O365  1  0.38008677  0.61355833  0.35909602  1
  O  O366  1  0.37779017  0.61280223  0.86951031  1
  O  O367  1  0.86792406  0.11602180  0.36982512  1
  O  O368  1  0.86547769  0.10931404  0.88760965  1
  O  O369  1  0.86549903  0.61670647  0.38182792  1
  O  O370  1  0.87219758  0.62075387  0.87090664  1
  O  O371  1  0.13047641  0.37993369  0.13446500  1
  O  O372  1  0.11644311  0.38981037  0.63161404  1
  O  O373  1  0.13337993  0.88544361  0.11499116  1
  O  O374  1  0.14058163  0.85563785  0.64177942  1
  O  O375  1  0.63042862  0.37879246  0.12991295  1
  O  O376  1  0.61784984  0.39003035  0.62139652  1
  O  O377  1  0.62879851  0.87760078  0.14141356  1
  O  O378  1  0.63080607  0.87955457  0.63022031  1
  O  O379  1  0.11790844  0.25737438  0.25944176  1
  O  O380  1  0.12533253  0.26801187  0.74421669  1
  O  O381  1  0.10791954  0.74342507  0.25642192  1
  O  O382  1  0.12176183  0.75005721  0.76318619  1
  O  O383  1  0.61615047  0.25281559  0.25721198  1
  O  O384  1  0.61886758  0.25177992  0.75912131  1
  O  O385  1  0.63227035  0.76582167  0.25687568  1
  O  O386  1  0.62525322  0.75806048  0.75618073  1
  O  O387  1  0.38283927  0.25002008  0.24359916  1
  O  O388  1  0.38514620  0.26078617  0.73638940  1
  O  O389  1  0.38368912  0.73225353  0.23876294  1
  O  O390  1  0.38148998  0.74283659  0.73438443  1
  O  O391  1  0.88656627  0.25117897  0.25582464  1
  O  O392  1  0.86077707  0.26565177  0.73430560  1
  O  O393  1  0.89079876  0.74853925  0.25448343  1
  O  O394  1  0.88370172  0.75158880  0.74230852  1
  O  O395  1  0.37599380  0.49559244  0.49216566  1
  O  O396  1  0.38233766  0.49395901  0.98915858  1
  O  O397  1  0.38240828  0.99583550  0.48464550  1
  O  O398  1  0.36895924  0.99137717  1.00473794  1
  O  O399  1  0.87932231  0.49408084  0.48987415  1
  O  O400  1  0.88331431  0.49269202  1.00431840  1
  O  O401  1  0.87712297  0.98960552  0.48666608  1
  O  O402  1  0.86954033  0.98266228  0.98942482  1
  O  O403  1  0.12486619  0.01125173  0.01481321  1
  O  O404  1  0.10703391  -0.04289463  0.51788533  1
  O  O405  1  0.11764475  0.50556701  0.00483501  1
  O  O406  1  0.11997370  0.50592206  0.50613586  1
  O  O407  1  0.63235296  0.00319369  -0.00033302  1
  O  O408  1  0.62130022  -0.00502786  0.50971639  1
  O  O409  1  0.61835711  0.49356689  0.00783332  1
  O  O410  1  0.62132482  0.50486122  0.50320898  1
  O  O411  1  0.36794629  0.36847299  0.12156903  1
  O  O412  1  0.38066941  0.36228885  0.61209408  1
  O  O413  1  0.36986348  0.86882680  0.11323511  1
  O  O414  1  0.37078749  0.85882886  0.62418720  1
  O  O415  1  0.86318008  0.38000498  0.11806464  1
  O  O416  1  0.87138562  0.38017793  0.61711406  1
  O  O417  1  0.88093551  0.88159304  0.11047485  1
  O  O418  1  0.87149651  0.87025061  0.61562911  1
  O  O419  1  0.12949948  0.13650507  0.37009597  1
  O  O420  1  0.11528029  0.11982603  0.89213351  1
  O  O421  1  0.12371978  0.62559919  0.39089413  1
  O  O422  1  0.12267136  0.63000257  0.88847025  1
  O  O423  1  0.63235420  0.13250827  0.37004659  1
  O  O424  1  0.63239010  0.12709482  0.88536970  1
  O  O425  1  0.63284710  0.63100094  0.37861321  1
  O  O426  1  0.62454419  0.64038998  0.86966822  1
