# generated using pymatgen
data_V85Zn86O256
_symmetry_space_group_name_H-M   'P 1'
_cell_length_a   16.95128927
_cell_length_b   16.95037006
_cell_length_c   16.95449661
_cell_angle_alpha   90.02490164
_cell_angle_beta   90.04872106
_cell_angle_gamma   89.99215166
_symmetry_Int_Tables_number   1
_chemical_formula_structural   V85Zn86O256
_chemical_formula_sum   'V85 Zn86 O256'
_cell_volume   4871.54385992
_cell_formula_units_Z   1
loop_
 _symmetry_equiv_pos_site_id
 _symmetry_equiv_pos_as_xyz
  1  'x, y, z'
loop_
 _atom_site_type_symbol
 _atom_site_label
 _atom_site_symmetry_multiplicity
 _atom_site_fract_x
 _atom_site_fract_y
 _atom_site_fract_z
 _atom_site_occupancy
  V  V0  1  0.87351363  0.25211214  0.62986750  1
  V  V1  1  0.62020556  0.38161019  0.75019191  1
  V  V2  1  0.00496619  -0.01011257  0.00096625  1
  V  V3  1  0.12875517  0.12133461  0.00093795  1
  V  V4  1  0.63509235  0.75962292  0.37159113  1
  V  V5  1  0.11682313  0.11417136  0.50190673  1
  V  V6  1  0.13313833  0.62529543  -0.00621779  1
  V  V7  1  0.74807384  -0.00201575  0.25225950  1
  V  V8  1  0.63711219  0.35817911  0.24097607  1
  V  V9  1  0.24735835  0.00087312  0.74627271  1
  V  V10  1  0.49891947  0.75286357  0.73667712  1
  V  V11  1  0.00698933  0.74979239  0.25367964  1
  V  V12  1  0.87480418  0.12174489  0.24934089  1
  V  V13  1  0.37630354  0.37589924  -0.00229116  1
  V  V14  1  0.37654061  0.11724498  0.25240143  1
  V  V15  1  0.93234701  0.33332063  -0.05897818  1
  V  V16  1  0.00043489  0.37071688  0.37924318  1
  V  V17  1  0.74388459  0.50258006  0.73691194  1
  V  V18  1  0.13011207  0.74759982  0.87303724  1
  V  V19  1  0.56784799  0.45151922  0.56682241  1
  V  V20  1  0.12978070  -0.00341356  0.13164997  1
  V  V21  1  0.25421826  0.74561381  0.48826307  1
  V  V22  1  0.14385074  0.41190446  0.28454578  1
  V  V23  1  0.87206010  0.49921260  0.87389221  1
  V  V24  1  0.50060789  0.87637786  0.87379597  1
  V  V25  1  0.75751053  0.87473924  0.61315652  1
  V  V26  1  -0.00032997  0.87194463  0.38805050  1
  V  V27  1  0.12798829  0.49944624  0.12069439  1
  V  V28  1  0.24836572  0.12817046  0.87332946  1
  V  V29  1  0.11072830  0.37036608  0.75734873  1
  V  V30  1  0.12597589  0.63226381  0.49191439  1
  V  V31  1  0.24872467  0.37776596  0.12709612  1
  V  V32  1  0.87780965  0.87219483  -0.00189715  1
  V  V33  1  0.50551873  0.74689004  0.24710103  1
  V  V34  1  0.00362941  0.49870175  0.50058568  1
  V  V35  1  0.66097565  0.02010487  0.58609781  1
  V  V36  1  0.74884103  0.49842261  0.24188429  1
  V  V37  1  0.88232988  -0.00406004  0.87555700  1
  V  V38  1  0.36912138  -0.00982646  0.37112352  1
  V  V39  1  0.87682907  0.26388783  0.12719969  1
  V  V40  1  0.11871687  0.87613826  0.75660383  1
  V  V41  1  0.25256529  0.37252971  0.62566403  1
  V  V42  1  0.50168189  0.12769549  0.12937875  1
  V  V43  1  0.87163562  0.49896214  0.37704427  1
  V  V44  1  0.00203805  0.62648167  0.12511497  1
  V  V45  1  0.25371261  0.87481516  0.12940458  1
  V  V46  1  0.38015816  0.74052733  0.12569698  1
  V  V47  1  -0.00545614  0.50152040  -0.00608733  1
  V  V48  1  -0.00590833  0.75419915  0.75648312  1
  V  V49  1  0.62216826  0.25053069  0.87277974  1
  V  V50  1  0.12592891  0.50126217  0.62854839  1
  V  V51  1  0.86414848  0.36977921  0.49960947  1
  V  V52  1  0.37420649  0.12921816  0.74464373  1
  V  V53  1  0.50510130  0.87587962  0.37064890  1
  V  V54  1  0.87665908  0.62465575  0.25119842  1
  V  V55  1  0.65302681  0.24232267  0.38688724  1
  V  V56  1  0.36767112  0.50955803  0.87677809  1
  V  V57  1  0.75069514  0.12434603  0.87818037  1
  V  V58  1  0.37546464  0.87502776  0.00078900  1
  V  V59  1  0.36789210  0.61657217  0.26265431  1
  V  V60  1  0.74504721  0.87526533  0.12830607  1
  V  V61  1  0.75131088  0.74948279  -0.00012859  1
  V  V62  1  0.74680078  0.62496983  0.87368121  1
  V  V63  1  0.62649009  0.12308642  0.00233122  1
  V  V64  1  0.25244029  0.86325706  0.62860763  1
  V  V65  1  0.74859514  0.62679988  0.37930492  1
  V  V66  1  0.25066744  0.24865318  -0.00042028  1
  V  V67  1  0.62140017  0.63862590  0.50577721  1
  V  V68  1  0.24857508  0.11499485  0.37584116  1
  V  V69  1  0.49351603  0.00304426  0.50443126  1
  V  V70  1  0.74998335  0.26566235  0.00316707  1
  V  V71  1  0.12932587  0.87161197  0.25632917  1
  V  V72  1  0.87429722  0.75327184  0.61127373  1
  V  V73  1  0.12076268  0.24058846  0.37948158  1
  V  V74  1  0.45587019  0.30866078  0.30990788  1
  V  V75  1  0.62153503  0.62723832  0.01007697  1
  V  V76  1  0.00736110  0.24861110  0.24974129  1
  V  V77  1  0.37762535  0.25033120  0.12725432  1
  V  V78  1  0.88276173  0.00019438  0.38474136  1
  V  V79  1  0.00122453  0.12502767  0.63205240  1
  V  V80  1  0.74791645  -0.00253561  0.75654708  1
  V  V81  1  0.36567102  0.63227302  0.74567906  1
  V  V82  1  0.87229184  0.62709988  0.74776297  1
  V  V83  1  0.49956880  0.50561589  0.00328713  1
  V  V84  1  0.62377794  0.75163208  0.87289714  1
  Zn  Zn85  1  0.49541836  0.37628375  0.87378639  1
  Zn  Zn86  1  0.11594382  -0.00725477  0.62077934  1
  Zn  Zn87  1  0.49737273  0.62609202  0.62172356  1
  Zn  Zn88  1  0.37998921  0.25480250  0.61851730  1
  Zn  Zn89  1  0.25208945  0.25051216  0.50226268  1
  Zn  Zn90  1  0.42065644  0.49467112  0.41019417  1
  Zn  Zn91  1  0.62251454  -0.00263479  0.13427211  1
  Zn  Zn92  1  0.37465754  0.00113491  0.87624151  1
  Zn  Zn93  1  0.73996094  0.36685955  0.61488804  1
  Zn  Zn94  1  0.50118302  -0.00006181  0.00196084  1
  Zn  Zn95  1  0.24514501  0.50185660  0.75742007  1
  Zn  Zn96  1  0.87614012  0.75068951  0.12587235  1
  Zn  Zn97  1  0.37808877  0.86534928  0.50673666  1
  Zn  Zn98  1  0.50527356  0.11920874  0.62768284  1
  Zn  Zn99  1  0.88020578  0.13072084  0.75582861  1
  Zn  Zn100  1  0.50050997  0.24893494  0.74515796  1
  Zn  Zn101  1  0.62725976  0.49435641  0.12310506  1
  Zn  Zn102  1  0.25428234  0.74652455  -0.00457762  1
  Zn  Zn103  1  0.10791946  0.25290012  0.87627864  1
  Zn  Zn104  1  0.00203801  0.12191876  0.12674604  1
  Zn  Zn105  1  0.62389958  0.88068366  0.74080504  1
  Zn  Zn106  1  -0.00150146  0.62737635  0.62563412  1
  Zn  Zn107  1  0.19188851  0.18378408  0.18958356  1
  Zn  Zn108  1  0.18051701  0.19228443  0.69055390  1
  Zn  Zn109  1  0.19273502  0.68851440  0.18777862  1
  Zn  Zn110  1  0.18375304  0.68632258  0.68688120  1
  Zn  Zn111  1  0.69751439  0.18222907  0.18284257  1
  Zn  Zn112  1  0.69272320  0.18661459  0.68883346  1
  Zn  Zn113  1  0.69039806  0.68955499  0.18982002  1
  Zn  Zn114  1  0.68785787  0.69528739  0.68663962  1
  Zn  Zn115  1  0.29584851  0.30783481  0.31657297  1
  Zn  Zn116  1  0.30829293  0.31483928  0.80830563  1
  Zn  Zn117  1  0.31498346  0.80763626  0.31058942  1
  Zn  Zn118  1  0.31248590  0.81091540  0.81279060  1
  Zn  Zn119  1  0.81406943  0.31284288  0.31054134  1
  Zn  Zn120  1  0.80190374  0.31091251  0.80276339  1
  Zn  Zn121  1  0.81931673  0.81421228  0.31266374  1
  Zn  Zn122  1  0.81134164  0.81541148  0.81214840  1
  Zn  Zn123  1  0.22716280  0.46303447  0.45218466  1
  Zn  Zn124  1  0.18746288  0.43590450  0.93690276  1
  Zn  Zn125  1  0.18608453  0.93194667  0.43994316  1
  Zn  Zn126  1  0.19138053  0.93486153  0.93619980  1
  Zn  Zn127  1  0.63223684  0.45533740  0.40203281  1
  Zn  Zn128  1  0.68525399  0.44162656  0.93211759  1
  Zn  Zn129  1  0.69391839  0.95016674  0.43461872  1
  Zn  Zn130  1  0.68836546  0.93669598  0.93916555  1
  Zn  Zn131  1  0.31382755  0.05858673  0.06445730  1
  Zn  Zn132  1  0.30762180  0.05757202  0.56092287  1
  Zn  Zn133  1  0.31251698  0.56212441  0.06619719  1
  Zn  Zn134  1  0.31487501  0.56257434  0.56447160  1
  Zn  Zn135  1  0.81414055  0.06499131  0.06698342  1
  Zn  Zn136  1  0.82666931  0.06158112  0.56246084  1
  Zn  Zn137  1  0.81498375  0.56278847  0.06112713  1
  Zn  Zn138  1  0.81117237  0.56509905  0.55854592  1
  Zn  Zn139  1  0.44191308  0.44271432  0.18450791  1
  Zn  Zn140  1  0.43126863  0.44011504  0.69474569  1
  Zn  Zn141  1  0.44080697  0.93658289  0.18893941  1
  Zn  Zn142  1  0.43105759  0.93807100  0.68931749  1
  Zn  Zn143  1  0.94891470  0.43973862  0.19371213  1
  Zn  Zn144  1  0.93469419  0.43818428  0.68556209  1
  Zn  Zn145  1  0.93846056  0.93446883  0.18691233  1
  Zn  Zn146  1  0.93634971  0.93961705  0.68697896  1
  Zn  Zn147  1  0.05959678  0.05737252  0.30999004  1
  Zn  Zn148  1  0.06229326  0.06371150  0.81278955  1
  Zn  Zn149  1  0.07014244  0.56400057  0.31839775  1
  Zn  Zn150  1  0.05930851  0.56339435  0.81159378  1
  Zn  Zn151  1  0.56246462  0.06757379  0.31711176  1
  Zn  Zn152  1  0.56115906  0.06241399  0.81386880  1
  Zn  Zn153  1  0.56150524  0.57035418  0.30395761  1
  Zn  Zn154  1  0.55611800  0.56591077  0.81431909  1
  Zn  Zn155  1  0.42871081  0.18218536  0.44462840  1
  Zn  Zn156  1  0.43767136  0.18607147  0.93659642  1
  Zn  Zn157  1  0.44071847  0.69045026  0.43487232  1
  Zn  Zn158  1  0.43911301  0.68958495  0.93313962  1
  Zn  Zn159  1  0.93292607  0.18374981  0.44233303  1
  Zn  Zn160  1  0.93601847  0.16905803  0.94843499  1
  Zn  Zn161  1  0.94263242  0.68638938  0.43506332  1
  Zn  Zn162  1  0.94010856  0.68697773  0.93417688  1
  Zn  Zn163  1  0.06907781  0.30966156  0.06690362  1
  Zn  Zn164  1  0.06252692  0.30935477  0.56582555  1
  Zn  Zn165  1  0.06591887  0.81039648  0.06364157  1
  Zn  Zn166  1  0.06377667  0.80946981  0.57060060  1
  Zn  Zn167  1  0.56141094  0.31249335  0.06291711  1
  Zn  Zn168  1  0.55258451  0.28390370  0.54402648  1
  Zn  Zn169  1  0.56313472  0.81313399  0.06223767  1
  Zn  Zn170  1  0.57205895  0.82560746  0.55747377  1
  O  O171  1  0.13015464  0.11257016  0.12043102  1
  O  O172  1  0.11486012  0.12508277  0.62050314  1
  O  O173  1  0.11998099  0.62029490  0.11768191  1
  O  O174  1  0.12060821  0.61362507  0.62364384  1
  O  O175  1  0.61804260  0.12396809  0.11938980  1
  O  O176  1  0.62654312  0.10637645  0.63292945  1
  O  O177  1  0.63069463  0.62460093  0.11232656  1
  O  O178  1  0.62803614  0.63442004  0.60876822  1
  O  O179  1  0.38777714  0.36939440  0.35509868  1
  O  O180  1  0.37392425  0.38293706  0.88078985  1
  O  O181  1  0.38206226  0.87875923  0.37542559  1
  O  O182  1  0.38097386  0.87439086  0.88353558  1
  O  O183  1  0.88192845  0.37994057  0.38036371  1
  O  O184  1  0.86852607  0.37980971  0.87090989  1
  O  O185  1  0.89254217  0.88146061  0.37260585  1
  O  O186  1  0.87200262  0.88148587  0.88927244  1
  O  O187  1  0.25790096  0.00135857  0.37807424  1
  O  O188  1  0.24901069  0.01166961  0.86830289  1
  O  O189  1  0.18098183  0.48477563  0.34951447  1
  O  O190  1  0.26286442  0.50020445  0.87815643  1
  O  O191  1  0.77398349  -0.01326492  0.36254279  1
  O  O192  1  0.76204861  0.00231861  0.87534613  1
  O  O193  1  0.74848612  0.50979841  0.36219613  1
  O  O194  1  0.75365679  0.50710296  0.86471010  1
  O  O195  1  0.24121788  0.48996922  0.12208127  1
  O  O196  1  0.23928849  0.49213744  0.63065172  1
  O  O197  1  0.24449541  0.98442944  0.12128203  1
  O  O198  1  0.24214183  0.98972922  0.63261295  1
  O  O199  1  0.75163113  0.50622641  0.13783058  1
  O  O200  1  0.75437482  0.49851448  0.63548932  1
  O  O201  1  0.75031345  0.99318165  0.13277488  1
  O  O202  1  0.76169299  0.99171805  0.64031615  1
  O  O203  1  0.02005821  0.37028354  0.26180383  1
  O  O204  1  0.01196817  0.38322248  0.75019016  1
  O  O205  1  0.00879778  0.86506058  0.25131671  1
  O  O206  1  0.00732618  0.86837231  0.74712009  1
  O  O207  1  0.51217157  0.36668462  0.24434568  1
  O  O208  1  0.50925848  0.37433558  0.75153905  1
  O  O209  1  0.49769528  0.86715216  0.26299621  1
  O  O210  1  0.50047690  0.87247493  0.75580885  1
  O  O211  1  0.48759089  0.12167320  0.24349226  1
  O  O212  1  0.48815940  0.12233465  0.74935583  1
  O  O213  1  0.49216209  0.64099341  0.24741690  1
  O  O214  1  0.49386560  0.63690040  0.74489014  1
  O  O215  1  0.99321486  0.13128279  0.24736140  1
  O  O216  1  0.99957844  0.12645801  0.73883676  1
  O  O217  1  0.99922224  0.62995169  0.24542229  1
  O  O218  1  0.98924870  0.63283633  0.74780768  1
  O  O219  1  0.36911105  0.25432850  0.00558080  1
  O  O220  1  0.36624879  0.24923309  0.50524831  1
  O  O221  1  0.37755021  0.75835408  0.00673890  1
  O  O222  1  0.35979754  0.74708487  0.49837496  1
  O  O223  1  0.87258728  0.25977708  0.00446758  1
  O  O224  1  0.87868278  0.25911283  0.51062515  1
  O  O225  1  0.87257659  0.75656872  -0.00024011  1
  O  O226  1  0.88134559  0.74438601  0.51236949  1
  O  O227  1  0.12427275  0.23461245  0.49377524  1
  O  O228  1  0.13315081  0.24207124  0.99815888  1
  O  O229  1  0.13178312  0.73737653  0.51082683  1
  O  O230  1  0.12351175  0.74207437  0.99060623  1
  O  O231  1  0.64118154  0.25065855  0.48745911  1
  O  O232  1  0.63182606  0.24200956  0.99552136  1
  O  O233  1  0.62768497  0.74501672  0.49078362  1
  O  O234  1  0.62945912  0.74393019  0.99431011  1
  O  O235  1  0.49247678  0.23606976  0.11938535  1
  O  O236  1  0.49770799  0.23680279  0.62706573  1
  O  O237  1  0.49198155  0.76132080  0.13507043  1
  O  O238  1  0.50844126  0.75891507  0.63477546  1
  O  O239  1  0.99892780  0.24764173  0.13426526  1
  O  O240  1  0.98841884  0.23861451  0.62307620  1
  O  O241  1  1.00121994  0.73847881  0.12993647  1
  O  O242  1  0.99069550  0.74956267  0.63751521  1
  O  O243  1  0.00239445  0.24860799  0.36900091  1
  O  O244  1  -0.01041880  0.25735542  0.89451023  1
  O  O245  1  -0.00108714  0.76157423  0.36692724  1
  O  O246  1  0.00848730  0.74810469  0.86292459  1
  O  O247  1  0.50166609  0.25070963  0.37844171  1
  O  O248  1  0.51309554  0.25086220  0.87466527  1
  O  O249  1  0.51023972  0.75801677  0.36797287  1
  O  O250  1  0.50420952  0.76173208  0.86586027  1
  O  O251  1  0.24195160  0.12244584  0.48871083  1
  O  O252  1  0.24808305  0.12677386  0.99308271  1
  O  O253  1  0.23849692  0.63866995  0.50850241  1
  O  O254  1  0.23683478  0.62699966  1.00528890  1
  O  O255  1  0.72610086  0.05721903  0.51030240  1
  O  O256  1  0.74491865  0.13331509  0.99668128  1
  O  O257  1  0.73965156  0.62167715  0.48640850  1
  O  O258  1  0.74412256  0.63106934  0.99423376  1
  O  O259  1  0.25531467  0.36939580  0.00856164  1
  O  O260  1  0.23034984  0.37006851  0.52295918  1
  O  O261  1  0.25932364  0.87013176  0.00594581  1
  O  O262  1  0.24546120  0.86101264  0.51214649  1
  O  O263  1  0.74322811  0.36493885  -0.00355963  1
  O  O264  1  0.76560726  0.38598910  0.50044469  1
  O  O265  1  0.75838041  0.86885343  0.00561871  1
  O  O266  1  0.75327414  0.88375600  0.51450724  1
  O  O267  1  0.10436877  0.50124368  0.22582707  1
  O  O268  1  0.12463427  0.49544202  0.74505374  1
  O  O269  1  0.12301177  0.99066794  0.23771690  1
  O  O270  1  0.13255397  0.99274623  0.75154771  1
  O  O271  1  0.63449285  0.48952577  0.24642945  1
  O  O272  1  0.63062959  0.49395290  0.75677174  1
  O  O273  1  0.64364781  1.00680171  0.25513236  1
  O  O274  1  0.64242004  0.99836997  0.76311220  1
  O  O275  1  0.37641465  0.00531747  0.25891954  1
  O  O276  1  0.35985007  0.00483405  0.75411364  1
  O  O277  1  0.38140838  0.51767259  0.24381662  1
  O  O278  1  0.37212301  0.51376847  0.76026466  1
  O  O279  1  0.87439106  0.00711987  0.25128227  1
  O  O280  1  0.86943808  -0.00029153  0.76307882  1
  O  O281  1  0.87278813  0.50424676  0.25802555  1
  O  O282  1  0.86612135  0.50610792  0.75379079  1
  O  O283  1  0.11867523  0.35028164  0.37829415  1
  O  O284  1  0.12606698  0.37437374  0.86308136  1
  O  O285  1  0.11512822  0.88131342  0.36270987  1
  O  O286  1  0.12820709  0.86835023  0.86349948  1
  O  O287  1  0.63010224  0.35215953  0.35503206  1
  O  O288  1  0.62257523  0.36814456  0.86593411  1
  O  O289  1  0.62201504  0.86709631  0.37975863  1
  O  O290  1  0.61655583  0.86860646  0.87735379  1
  O  O291  1  0.37804792  0.12915867  0.13411531  1
  O  O292  1  0.36764807  0.12012901  0.63891725  1
  O  O293  1  0.37385132  0.63834511  0.12666454  1
  O  O294  1  0.37845481  0.62132167  0.64031567  1
  O  O295  1  0.88184982  0.13511709  0.13171222  1
  O  O296  1  0.88376468  0.13384636  0.62725634  1
  O  O297  1  0.88640261  0.62590676  0.13094081  1
  O  O298  1  0.87199738  0.63455999  0.63139150  1
  O  O299  1  0.25624751  0.25657166  0.12171118  1
  O  O300  1  0.24603961  0.26331005  0.62873471  1
  O  O301  1  0.25979108  0.76000690  0.12080849  1
  O  O302  1  0.24620637  0.76096689  0.62375134  1
  O  O303  1  0.76463535  0.24722865  0.11368897  1
  O  O304  1  0.76533811  0.24936320  0.62472915  1
  O  O305  1  0.75421553  0.75720212  0.11915626  1
  O  O306  1  0.75752459  0.76743716  0.62881045  1
  O  O307  1  0.23628827  0.23582954  0.37879858  1
  O  O308  1  0.25005740  0.23827090  0.87939240  1
  O  O309  1  0.24644027  0.75628740  0.39030222  1
  O  O310  1  0.23530256  0.75227016  0.87565381  1
  O  O311  1  0.75336894  0.24218200  0.37428357  1
  O  O312  1  0.73997142  0.24603545  0.88107561  1
  O  O313  1  0.74530278  0.74259829  0.36534439  1
  O  O314  1  0.74407941  0.74598335  0.88031204  1
  O  O315  1  0.01111061  0.10789965  0.00700290  1
  O  O316  1  0.00676801  0.12656416  0.51352511  1
  O  O317  1  0.00708560  0.61977508  0.00686909  1
  O  O318  1  0.01047463  0.61906480  0.50316192  1
  O  O319  1  0.50839684  0.12275884  0.00662795  1
  O  O320  1  0.49569890  0.10631007  0.50170964  1
  O  O321  1  0.51040411  0.62018066  -0.00633135  1
  O  O322  1  0.51541005  0.63119975  0.50248949  1
  O  O323  1  0.51362191  0.38947534  0.50991781  1
  O  O324  1  0.49260414  0.38214218  0.99720750  1
  O  O325  1  0.49409545  0.87810197  0.48794895  1
  O  O326  1  0.49346088  0.87634997  0.99244243  1
  O  O327  1  0.99715617  0.38192100  0.49657240  1
  O  O328  1  1.00063216  0.38439518  1.00456171  1
  O  O329  1  1.01169526  0.86934361  0.48621209  1
  O  O330  1  0.99521233  0.88228284  1.00423741  1
  O  O331  1  0.52343020  0.49379300  0.37413565  1
  O  O332  1  0.48843061  0.49924043  0.88496731  1
  O  O333  1  0.49138523  0.99402318  0.37977123  1
  O  O334  1  0.49764158  0.98766218  0.87716162  1
  O  O335  1  0.99732081  0.49519494  0.38627185  1
  O  O336  1  0.99262706  0.50372820  0.88676979  1
  O  O337  1  0.99263533  0.98396789  0.36722459  1
  O  O338  1  0.99063688  1.00338868  0.88416005  1
  O  O339  1  0.01153797  -0.00327498  0.11817901  1
  O  O340  1  -0.00149403  0.01647597  0.62805390  1
  O  O341  1  0.00237342  0.50942824  0.11237111  1
  O  O342  1  0.00435140  0.50088152  0.61328246  1
  O  O343  1  0.50328940  0.01062493  0.12405219  1
  O  O344  1  0.49214742  -0.00359504  0.61021482  1
  O  O345  1  0.50505847  0.49890079  0.10781636  1
  O  O346  1  0.50172405  0.50383128  0.62548137  1
  O  O347  1  0.23484982  0.36846577  0.24160849  1
  O  O348  1  0.23623503  0.37930920  0.74209676  1
  O  O349  1  0.24141595  0.86636494  0.24247984  1
  O  O350  1  0.24474869  0.88009395  0.74387904  1
  O  O351  1  0.74346064  0.38134440  0.24827049  1
  O  O352  1  0.73486388  0.38299672  0.74159814  1
  O  O353  1  0.76214953  0.88323216  0.23759252  1
  O  O354  1  0.74824109  0.88325314  0.74467967  1
  O  O355  1  0.26434781  0.12998708  0.26270490  1
  O  O356  1  0.24924291  0.11948970  0.75580976  1
  O  O357  1  0.26843189  0.63127470  0.25071742  1
  O  O358  1  0.26216934  0.62623484  0.74854863  1
  O  O359  1  0.76774065  0.11504550  0.24448663  1
  O  O360  1  0.75604511  0.11701387  0.76060656  1
  O  O361  1  0.75758926  0.61960781  0.25685623  1
  O  O362  1  0.75124589  0.62056122  0.75263679  1
  O  O363  1  0.36738309  0.11265945  0.37050194  1
  O  O364  1  0.36662749  0.12374986  0.86498175  1
  O  O365  1  0.38365644  0.61888157  0.36498902  1
  O  O366  1  0.37937904  0.62052005  0.86232014  1
  O  O367  1  0.88619398  0.10833969  0.36613709  1
  O  O368  1  0.86849879  0.11444764  0.87663681  1
  O  O369  1  0.86868277  0.61894410  0.37218235  1
  O  O370  1  0.86684794  0.62099262  0.86750222  1
  O  O371  1  0.13544519  0.38448666  0.12266635  1
  O  O372  1  0.12489864  0.38361563  0.63685460  1
  O  O373  1  0.13381985  0.87733766  0.13265495  1
  O  O374  1  0.13261148  0.87487671  0.63874450  1
  O  O375  1  0.62469671  0.37451532  0.13605754  1
  O  O376  1  0.62157852  0.38154133  0.62707079  1
  O  O377  1  0.64030055  0.87975319  0.11709342  1
  O  O378  1  0.64197368  0.89835062  0.62133739  1
  O  O379  1  0.11458276  0.23703468  0.25919605  1
  O  O380  1  0.11906326  0.26478399  0.75643741  1
  O  O381  1  0.11567901  0.75575159  0.24440697  1
  O  O382  1  0.11642771  0.75481078  0.75535045  1
  O  O383  1  0.63631601  0.25642818  0.24444161  1
  O  O384  1  0.62611348  0.25760538  0.75744204  1
  O  O385  1  0.61846052  0.74729068  0.25816311  1
  O  O386  1  0.61716026  0.75719857  0.75542713  1
  O  O387  1  0.38494318  0.24742362  0.25360666  1
  O  O388  1  0.37701475  0.24256911  0.74654997  1
  O  O389  1  0.38388879  0.74295010  0.24378832  1
  O  O390  1  0.38227250  0.73971838  0.75398147  1
  O  O391  1  0.88726629  0.24430220  0.24569990  1
  O  O392  1  0.87416106  0.25094432  0.73617265  1
  O  O393  1  0.88957204  0.74307449  0.24739460  1
  O  O394  1  0.87963901  0.74633467  0.74784340  1
  O  O395  1  0.33372499  0.49623791  0.47640729  1
  O  O396  1  0.38084949  0.49891757  0.99609617  1
  O  O397  1  0.37991629  0.99226069  0.49084704  1
  O  O398  1  0.37708908  0.98708511  0.99870887  1
  O  O399  1  0.88519311  0.49581891  0.49551166  1
  O  O400  1  0.88160620  0.50115821  0.99027432  1
  O  O401  1  0.88532001  1.00169444  0.48316564  1
  O  O402  1  0.88453520  0.99387598  0.99726155  1
  O  O403  1  0.12122630  -0.00246246  0.00786780  1
  O  O404  1  0.12751104  0.00954605  0.50244018  1
  O  O405  1  0.11810015  0.50605943  0.00443037  1
  O  O406  1  0.12271501  0.51283918  0.50890007  1
  O  O407  1  0.62713457  0.01472039  0.00064023  1
  O  O408  1  0.59955905  -0.01223574  0.49527683  1
  O  O409  1  0.61881552  0.50967349  -0.00178586  1
  O  O410  1  0.62837750  0.51070700  0.50658096  1
  O  O411  1  0.36799019  0.37043314  0.12239229  1
  O  O412  1  0.35626830  0.37760343  0.63369543  1
  O  O413  1  0.37033837  0.86966687  0.12029099  1
  O  O414  1  0.35630815  0.87713117  0.62505674  1
  O  O415  1  0.88534972  0.36330821  0.13543522  1
  O  O416  1  0.87521761  0.36468777  0.61829668  1
  O  O417  1  0.86885902  0.87372053  0.11232945  1
  O  O418  1  0.86660009  0.86856339  0.62793788  1
  O  O419  1  0.12753471  0.12294203  0.38006726  1
  O  O420  1  0.13052275  0.12924984  0.88184187  1
  O  O421  1  0.12205931  0.63252721  0.39317829  1
  O  O422  1  0.11955273  0.63285937  0.88297825  1
  O  O423  1  0.62539855  0.14692225  0.36563839  1
  O  O424  1  0.62919395  0.13225893  0.88255771  1
  O  O425  1  0.63220020  0.63804708  0.38166596  1
  O  O426  1  0.62929390  0.63330795  0.88076373  1
