# generated using pymatgen
data_V85Zn86O256
_symmetry_space_group_name_H-M   'P 1'
_cell_length_a   16.97153494
_cell_length_b   16.93962161
_cell_length_c   16.96848873
_cell_angle_alpha   90.01650309
_cell_angle_beta   90.07770457
_cell_angle_gamma   90.06108403
_symmetry_Int_Tables_number   1
_chemical_formula_structural   V85Zn86O256
_chemical_formula_sum   'V85 Zn86 O256'
_cell_volume   4878.28677953
_cell_formula_units_Z   1
loop_
 _symmetry_equiv_pos_site_id
 _symmetry_equiv_pos_as_xyz
  1  'x, y, z'
loop_
 _atom_site_type_symbol
 _atom_site_label
 _atom_site_symmetry_multiplicity
 _atom_site_fract_x
 _atom_site_fract_y
 _atom_site_fract_z
 _atom_site_occupancy
  V  V0  1  0.25111441  -0.00219840  0.24838992  1
  V  V1  1  0.00390470  0.76617717  0.75704997  1
  V  V2  1  0.75132807  0.62630493  0.37943160  1
  V  V3  1  0.62132441  0.25079600  0.87561022  1
  V  V4  1  0.63161907  0.87419475  0.24992917  1
  V  V5  1  0.49537936  0.50120337  -0.00276455  1
  V  V6  1  0.00703300  0.24104839  0.25494177  1
  V  V7  1  0.88218373  0.87956741  0.00533849  1
  V  V8  1  0.87838314  0.62637866  0.75425269  1
  V  V9  1  0.62475404  0.12417908  -0.00058059  1
  V  V10  1  0.37368631  0.25067594  0.12280790  1
  V  V11  1  0.63101298  -0.00480389  0.12455342  1
  V  V12  1  0.24106003  0.12613484  0.37292344  1
  V  V13  1  0.88197246  0.12815428  0.74180757  1
  V  V14  1  0.12433701  0.12319107  0.50940744  1
  V  V15  1  0.14092971  -0.01604056  0.63380756  1
  V  V16  1  0.73969873  0.13819484  0.37147317  1
  V  V17  1  0.36965670  0.37895869  0.50049245  1
  V  V18  1  0.01355938  0.38258953  0.37358754  1
  V  V19  1  0.62530328  0.37596320  0.25458015  1
  V  V20  1  0.62713472  0.01000435  0.61057106  1
  V  V21  1  0.75781276  0.00370111  0.24690075  1
  V  V22  1  0.62118350  0.37749586  0.74777901  1
  V  V23  1  0.87668716  0.24413013  0.12748216  1
  V  V24  1  0.62269265  0.50263513  0.12416110  1
  V  V25  1  0.49575807  0.37277417  0.37448649  1
  V  V26  1  0.62886914  0.87699256  0.74894536  1
  V  V27  1  0.25345953  0.86054565  0.12361512  1
  V  V28  1  0.36963566  0.23790683  0.62856633  1
  V  V29  1  0.24546118  0.25078561  0.49458350  1
  V  V30  1  0.37400777  0.00080040  0.85608726  1
  V  V31  1  0.74529326  0.50039944  0.75447699  1
  V  V32  1  0.75026934  0.87713984  0.62431620  1
  V  V33  1  0.12772373  0.50104398  0.62875119  1
  V  V34  1  0.75187896  0.62953138  0.88027548  1
  V  V35  1  0.87536748  0.75016285  0.62506452  1
  V  V36  1  0.50457252  0.25002520  0.25163065  1
  V  V37  1  0.36822662  0.62818088  0.24319071  1
  V  V38  1  0.88578512  -0.00305618  0.87445564  1
  V  V39  1  0.24516333  0.37522170  0.63006016  1
  V  V40  1  0.11792184  0.49727841  0.12208826  1
  V  V41  1  0.88073242  0.63667526  0.25155854  1
  V  V42  1  0.75004638  0.00250186  0.74957999  1
  V  V43  1  0.00580914  0.25167879  0.74271112  1
  V  V44  1  0.75143527  0.12514650  0.87371011  1
  V  V45  1  0.11090292  0.62208411  -0.00335886  1
  V  V46  1  0.49834312  0.74862641  0.24419683  1
  V  V47  1  0.49548340  0.23746431  0.75093331  1
  V  V48  1  0.00565892  0.38122653  0.87827849  1
  V  V49  1  0.87802087  0.01676800  0.37233886  1
  V  V50  1  0.37328062  0.86975568  0.49852136  1
  V  V51  1  0.82560680  0.45077994  0.42382888  1
  V  V52  1  0.12723684  0.76321549  0.88026986  1
  V  V53  1  -0.00462101  0.87498747  0.37353661  1
  V  V54  1  0.33696966  0.77085953  0.65696213  1
  V  V55  1  -0.00033262  0.00545653  0.50851322  1
  V  V56  1  0.25147521  0.49558323  0.75889619  1
  V  V57  1  0.37556100  0.12396904  0.25183453  1
  V  V58  1  0.49976534  0.12310555  0.12547895  1
  V  V59  1  0.24906574  0.62476847  0.88407329  1
  V  V60  1  0.36993828  0.37756007  -0.00084524  1
  V  V61  1  0.75052782  0.25053290  -0.00247243  1
  V  V62  1  0.50235644  0.87708013  0.37752992  1
  V  V63  1  0.76042128  0.50062588  0.24687892  1
  V  V64  1  0.49527627  -0.00171781  0.00020756  1
  V  V65  1  0.37847717  0.00106566  0.38183888  1
  V  V66  1  0.48712836  0.37543034  0.87388655  1
  V  V67  1  0.11979534  0.23713457  0.88783342  1
  V  V68  1  0.25044537  0.75005361  0.49366369  1
  V  V69  1  0.62896697  0.75144083  0.87653979  1
  V  V70  1  0.50231254  0.87240050  0.87581391  1
  V  V71  1  0.74920428  0.74876254  0.50103452  1
  V  V72  1  0.75095952  0.37389579  0.12281048  1
  V  V73  1  0.11762108  0.74974337  0.36970236  1
  V  V74  1  0.75149741  0.75950877  0.01253326  1
  V  V75  1  0.11952081  0.62298195  0.49914999  1
  V  V76  1  0.37600218  0.86083549  0.00756909  1
  V  V77  1  0.00313627  0.12459130  0.11312535  1
  V  V78  1  0.50065708  0.50101319  0.50215421  1
  V  V79  1  0.50686609  0.74693225  0.74300926  1
  V  V80  1  0.87502058  0.38247526  -0.00525755  1
  V  V81  1  0.12960886  0.00350910  0.11634521  1
  V  V82  1  0.37387450  0.62184384  0.75467044  1
  V  V83  1  0.00308281  0.62730785  0.62786501  1
  V  V84  1  0.11886924  0.87309621  0.24633080  1
  Zn  Zn85  1  -0.00323513  0.62828631  0.12361524  1
  Zn  Zn86  1  0.49568705  0.11849166  0.61294072  1
  Zn  Zn87  1  0.88042376  0.50489116  0.88257180  1
  Zn  Zn88  1  -0.02922429  0.45600848  0.53400556  1
  Zn  Zn89  1  0.24849442  0.37609512  0.12577787  1
  Zn  Zn90  1  0.62515489  0.62695901  0.00264789  1
  Zn  Zn91  1  0.24741437  0.62186692  0.37221190  1
  Zn  Zn92  1  0.24367567  0.23759429  0.00214566  1
  Zn  Zn93  1  0.01273702  -0.00063801  -0.00959325  1
  Zn  Zn94  1  0.49448649  0.62834072  0.62105032  1
  Zn  Zn95  1  0.83451890  0.30916107  0.58560555  1
  Zn  Zn96  1  0.88211509  0.76160863  0.13271737  1
  Zn  Zn97  1  0.62443469  0.74793605  0.37556348  1
  Zn  Zn98  1  0.24874335  0.49513530  0.25008239  1
  Zn  Zn99  1  0.37037069  0.50397744  0.37336672  1
  Zn  Zn100  1  0.13036246  0.37141958  0.24902418  1
  Zn  Zn101  1  0.24796727  0.11329084  0.86813290  1
  Zn  Zn102  1  0.62505005  0.62202202  0.50168405  1
  Zn  Zn103  1  0.61936667  0.50309200  0.62837063  1
  Zn  Zn104  1  0.87263737  0.88469917  0.49972537  1
  Zn  Zn105  1  0.62206922  0.16557934  0.48647625  1
  Zn  Zn106  1  0.49444296  0.63028799  0.12052715  1
  Zn  Zn107  1  0.18731485  0.18622357  0.18470101  1
  Zn  Zn108  1  0.18330190  0.17982097  0.69189131  1
  Zn  Zn109  1  0.18069487  0.68511631  0.18516558  1
  Zn  Zn110  1  0.18731913  0.69608784  0.69480002  1
  Zn  Zn111  1  0.68786967  0.18487090  0.18824031  1
  Zn  Zn112  1  0.69365928  0.19487990  0.68046856  1
  Zn  Zn113  1  0.68846358  0.68656529  0.18930555  1
  Zn  Zn114  1  0.68682497  0.68188171  0.68394075  1
  Zn  Zn115  1  0.31119152  0.31229113  0.31151626  1
  Zn  Zn116  1  0.28826224  0.27721266  0.79420452  1
  Zn  Zn117  1  0.31071400  0.80927110  0.31039027  1
  Zn  Zn118  1  0.31395802  0.80986833  0.82733369  1
  Zn  Zn119  1  0.81837452  0.30891538  0.30435528  1
  Zn  Zn120  1  0.80027653  0.30192509  0.78131479  1
  Zn  Zn121  1  0.81189843  0.81693732  0.31715998  1
  Zn  Zn122  1  0.81624217  0.81498578  0.81571438  1
  Zn  Zn123  1  0.18557149  0.44310340  0.43760550  1
  Zn  Zn124  1  0.18598589  0.43685203  0.94120201  1
  Zn  Zn125  1  0.18744300  0.93784366  0.43849079  1
  Zn  Zn126  1  0.19943013  0.93792951  0.93934430  1
  Zn  Zn127  1  0.65877214  0.37950914  0.46711064  1
  Zn  Zn128  1  0.68412758  0.43724073  0.93378519  1
  Zn  Zn129  1  0.69401949  0.94047112  0.43401971  1
  Zn  Zn130  1  0.69221640  0.93773042  0.93759676  1
  Zn  Zn131  1  0.31051122  0.06121803  0.05716765  1
  Zn  Zn132  1  0.30857011  0.05797517  0.56080861  1
  Zn  Zn133  1  0.30850269  0.56135291  0.06633079  1
  Zn  Zn134  1  0.31144722  0.57047297  0.56640082  1
  Zn  Zn135  1  0.81507257  0.06275537  0.06204613  1
  Zn  Zn136  1  0.83203027  0.11851687  0.53782754  1
  Zn  Zn137  1  0.81251182  0.56628155  0.06529265  1
  Zn  Zn138  1  0.82968085  0.52833147  0.58710236  1
  Zn  Zn139  1  0.43466145  0.44161922  0.18561019  1
  Zn  Zn140  1  0.43253963  0.43541013  0.68686030  1
  Zn  Zn141  1  0.43843438  0.93500131  0.18963439  1
  Zn  Zn142  1  0.44726701  0.93269316  0.67995164  1
  Zn  Zn143  1  0.94180216  0.43444946  0.18697470  1
  Zn  Zn144  1  0.93794009  0.43720385  0.70287327  1
  Zn  Zn145  1  0.94018655  0.94182602  0.18446295  1
  Zn  Zn146  1  0.93640484  0.94232825  0.68366103  1
  Zn  Zn147  1  0.06223597  0.06089359  0.30841413  1
  Zn  Zn148  1  0.06370689  0.06246915  0.80451885  1
  Zn  Zn149  1  0.06323385  0.55883591  0.30973235  1
  Zn  Zn150  1  0.06581304  0.56304110  0.81131001  1
  Zn  Zn151  1  0.56373695  0.06005409  0.31408836  1
  Zn  Zn152  1  0.56170579  0.06069899  0.81167975  1
  Zn  Zn153  1  0.56161614  0.56112406  0.31384154  1
  Zn  Zn154  1  0.55984119  0.56456807  0.81881740  1
  Zn  Zn155  1  0.43665018  0.18809720  0.44045180  1
  Zn  Zn156  1  0.42948338  0.18389487  0.93717899  1
  Zn  Zn157  1  0.43753471  0.68705880  0.42916304  1
  Zn  Zn158  1  0.43992524  0.68387412  0.93286802  1
  Zn  Zn159  1  0.94201424  0.20009992  0.44100953  1
  Zn  Zn160  1  0.93482910  0.19016672  0.93524429  1
  Zn  Zn161  1  0.93493367  0.68553244  0.43806594  1
  Zn  Zn162  1  0.93902287  0.69716250  0.93876001  1
  Zn  Zn163  1  0.05803109  0.31481361  0.06064761  1
  Zn  Zn164  1  0.06741125  0.30946356  0.56072391  1
  Zn  Zn165  1  0.05980807  0.80968134  0.06261158  1
  Zn  Zn166  1  0.06007094  0.81415714  0.55852288  1
  Zn  Zn167  1  0.56041825  0.31497132  0.06324257  1
  Zn  Zn168  1  0.55310093  0.30976283  0.57051048  1
  Zn  Zn169  1  0.56512677  0.81373470  0.06436923  1
  Zn  Zn170  1  0.56481517  0.81568489  0.56017959  1
  O  O171  1  0.11829240  0.11425171  0.12729983  1
  O  O172  1  0.13148035  0.11502898  0.61341388  1
  O  O173  1  0.12181621  0.61772517  0.11394192  1
  O  O174  1  0.12171605  0.62242339  0.62013848  1
  O  O175  1  0.61879927  0.11580421  0.11951288  1
  O  O176  1  0.63389599  0.11572525  0.62247339  1
  O  O177  1  0.62385259  0.61264749  0.12499864  1
  O  O178  1  0.61657197  0.62070187  0.61981390  1
  O  O179  1  0.37770475  0.37662255  0.38622219  1
  O  O180  1  0.38479918  0.36835221  0.88411019  1
  O  O181  1  0.38186733  0.88062838  0.37763592  1
  O  O182  1  0.38297780  0.88153486  0.88466939  1
  O  O183  1  0.88104839  0.38256253  0.36989460  1
  O  O184  1  0.88110764  0.37539194  0.88466302  1
  O  O185  1  0.88160994  0.88735450  0.37732975  1
  O  O186  1  0.87047475  0.88816955  0.88573307  1
  O  O187  1  0.25792590  0.00537142  0.36857301  1
  O  O188  1  0.26895519  -0.00535921  0.86822997  1
  O  O189  1  0.25132673  0.50407904  0.36938080  1
  O  O190  1  0.24266977  0.50366990  0.86342971  1
  O  O191  1  0.75908235  0.00745257  0.36494535  1
  O  O192  1  0.75641849  0.00782665  0.86826944  1
  O  O193  1  0.75515432  0.50513043  0.36657870  1
  O  O194  1  0.74794788  0.51799108  0.87476832  1
  O  O195  1  0.23491798  0.49830978  0.12784522  1
  O  O196  1  0.24643142  0.49534150  0.63236521  1
  O  O197  1  0.24566535  0.99512759  0.13132474  1
  O  O198  1  0.24102414  0.99255775  0.62288599  1
  O  O199  1  0.74228417  0.49422656  0.13033012  1
  O  O200  1  0.73950443  0.50656076  0.64980366  1
  O  O201  1  0.74111716  1.00753561  0.13222676  1
  O  O202  1  0.73937087  0.99193121  0.63398567  1
  O  O203  1  0.00358931  0.36575191  0.25925190  1
  O  O204  1  -0.00886832  0.36064694  0.76777434  1
  O  O205  1  0.01203750  0.88260429  0.25621435  1
  O  O206  1  -0.00675680  0.86380027  0.74838340  1
  O  O207  1  0.50317422  0.37128444  0.25489476  1
  O  O208  1  0.50251557  0.37299485  0.75999420  1
  O  O209  1  0.50931673  0.86987793  0.25727326  1
  O  O210  1  0.51010762  0.86561115  0.75543864  1
  O  O211  1  0.49643613  0.13244023  0.24662472  1
  O  O212  1  0.50445431  0.13578567  0.74477619  1
  O  O213  1  0.49259982  0.63250520  0.24921351  1
  O  O214  1  0.49193365  0.63034906  0.75154166  1
  O  O215  1  1.00296542  0.13648374  0.24169489  1
  O  O216  1  0.99073792  0.13564750  0.75176013  1
  O  O217  1  0.98115618  0.62200188  0.25708992  1
  O  O218  1  0.99082786  0.63154692  0.74932641  1
  O  O219  1  0.37857977  0.25812207  0.00903956  1
  O  O220  1  0.36315309  0.25817336  0.50755645  1
  O  O221  1  0.38567780  0.76183016  -0.00307445  1
  O  O222  1  0.36470836  0.75472966  0.49253485  1
  O  O223  1  0.86797172  0.25805577  0.00726727  1
  O  O224  1  0.86827662  0.22691264  0.51723582  1
  O  O225  1  0.86883524  0.76591677  -0.00108520  1
  O  O226  1  0.86456776  0.75021726  0.50795602  1
  O  O227  1  0.13814829  0.24004937  0.50260502  1
  O  O228  1  0.12002122  0.24549390  0.99234496  1
  O  O229  1  0.12802069  0.74758887  0.48698606  1
  O  O230  1  0.11868365  0.74168915  0.98548334  1
  O  O231  1  0.63660344  0.27693369  0.50717873  1
  O  O232  1  0.62923812  0.24532983  0.99684058  1
  O  O233  1  0.63812360  0.74991208  0.49847281  1
  O  O234  1  0.63496452  0.75235676  0.99555638  1
  O  O235  1  0.49106079  0.24478250  0.13006433  1
  O  O236  1  0.48638791  0.24747690  0.63506934  1
  O  O237  1  0.50761654  0.74953742  0.13940224  1
  O  O238  1  0.50667384  0.75046594  0.63843623  1
  O  O239  1  0.99491232  0.24320084  0.12965135  1
  O  O240  1  1.00460318  0.26109146  0.64339369  1
  O  O241  1  0.99390411  0.74280008  0.12172649  1
  O  O242  1  0.99619012  0.74671722  0.63615266  1
  O  O243  1  -0.00530863  0.25641234  0.35791388  1
  O  O244  1  0.00828153  0.25647795  0.87380570  1
  O  O245  1  0.00266788  0.76607821  0.38080051  1
  O  O246  1  0.00968356  0.75238670  0.86484946  1
  O  O247  1  0.49101291  0.26383145  0.36476364  1
  O  O248  1  0.50009875  0.25395099  0.86872050  1
  O  O249  1  0.50466022  0.75864235  0.36302686  1
  O  O250  1  0.51065922  0.75361375  0.86721412  1
  O  O251  1  0.24490448  0.13075680  0.49183834  1
  O  O252  1  0.26648810  0.12832356  0.98140539  1
  O  O253  1  0.23679411  0.63009772  0.49464095  1
  O  O254  1  0.24419621  0.61753600  0.98684772  1
  O  O255  1  0.73564771  0.12055837  0.47600231  1
  O  O256  1  0.74413992  0.12994944  0.99375764  1
  O  O257  1  0.74920568  0.63170300  0.49153702  1
  O  O258  1  0.75082147  0.63681492  0.99481553  1
  O  O259  1  0.26288859  0.37503628  0.00324375  1
  O  O260  1  0.25267775  0.36904136  0.50355490  1
  O  O261  1  0.26476132  0.87685214  0.01151760  1
  O  O262  1  0.26422437  0.86638851  0.49034732  1
  O  O263  1  0.75301565  0.36857745  0.00344091  1
  O  O264  1  0.77077760  0.39638658  0.48854722  1
  O  O265  1  0.76089879  0.86821950  -0.00277754  1
  O  O266  1  0.75300973  0.86804755  0.50497064  1
  O  O267  1  0.12691161  0.49977228  0.23598513  1
  O  O268  1  0.13621453  0.50634843  0.73703532  1
  O  O269  1  0.13183721  0.99174007  0.24109057  1
  O  O270  1  0.12409381  1.00136052  0.73251285  1
  O  O271  1  0.63197220  0.49398720  0.24302324  1
  O  O272  1  0.62735535  0.49552196  0.75720717  1
  O  O273  1  0.63208114  0.99420168  0.24190546  1
  O  O274  1  0.63437282  0.99516843  0.74897314  1
  O  O275  1  0.37086425  0.00421500  0.25911289  1
  O  O276  1  0.38410483  -0.01278501  0.75842546  1
  O  O277  1  0.37362821  0.51409988  0.24956037  1
  O  O278  1  0.36467968  0.51084848  0.74381684  1
  O  O279  1  0.86499881  -0.00452904  0.25481710  1
  O  O280  1  0.87210341  0.00759559  0.75779724  1
  O  O281  1  0.86334797  0.50443388  0.24333841  1
  O  O282  1  0.86449850  0.51079486  0.76001331  1
  O  O283  1  0.11675359  0.37468519  0.37108747  1
  O  O284  1  0.10741079  0.37137553  0.88359783  1
  O  O285  1  0.11715597  0.87098970  0.36768519  1
  O  O286  1  0.13416678  0.86194628  0.88006596  1
  O  O287  1  0.61369432  0.37756969  0.35965895  1
  O  O288  1  0.60899455  0.36715798  0.87450480  1
  O  O289  1  0.61784471  0.87787025  0.36803478  1
  O  O290  1  0.62268440  0.87043185  0.86956217  1
  O  O291  1  0.38176110  0.12943459  0.13139409  1
  O  O292  1  0.37343758  0.13458441  0.61812875  1
  O  O293  1  0.37673368  0.62465809  0.13758328  1
  O  O294  1  0.36878226  0.64773514  0.64137860  1
  O  O295  1  0.88444416  0.13432102  0.12075253  1
  O  O296  1  0.87250370  0.11466966  0.64475855  1
  O  O297  1  0.87324386  0.62642347  0.14134551  1
  O  O298  1  0.88150950  0.62678933  0.63696346  1
  O  O299  1  0.26256342  0.24868691  0.12172719  1
  O  O300  1  0.25279939  0.25854779  0.61878379  1
  O  O301  1  0.24447460  0.76188156  0.12831014  1
  O  O302  1  0.24428347  0.73925304  0.60048210  1
  O  O303  1  0.75732195  0.25371844  0.12116615  1
  O  O304  1  0.76592299  0.27759434  0.67000034  1
  O  O305  1  0.75372826  0.74779522  0.11461167  1
  O  O306  1  0.75545276  0.75538793  0.62043812  1
  O  O307  1  0.25731120  0.23854351  0.38338035  1
  O  O308  1  0.22097386  0.26950928  0.88578451  1
  O  O309  1  0.23777422  0.74770986  0.38009103  1
  O  O310  1  0.23432607  0.73925151  0.87463550  1
  O  O311  1  0.75353720  0.23677298  0.36177473  1
  O  O312  1  0.74258904  0.24247802  0.87674386  1
  O  O313  1  0.74843711  0.74443565  0.38414829  1
  O  O314  1  0.74804663  0.74408615  0.88204478  1
  O  O315  1  -0.00431995  0.12222201  0.01015089  1
  O  O316  1  0.01624501  0.11829927  0.48713511  1
  O  O317  1  0.00788039  0.62232373  -0.00606649  1
  O  O318  1  0.01169650  0.63418311  0.50886284  1
  O  O319  1  0.50486584  0.11645697  0.00453786  1
  O  O320  1  0.51293748  0.13724989  0.50151586  1
  O  O321  1  0.50301107  0.61649252  0.00126774  1
  O  O322  1  0.50066430  0.61571140  0.49689762  1
  O  O323  1  0.48692507  0.37843444  0.49363244  1
  O  O324  1  0.49086859  0.38043984  0.99547118  1
  O  O325  1  0.48976162  0.86596611  0.48594773  1
  O  O326  1  0.49816135  0.88121669  0.99671455  1
  O  O327  1  1.00257332  0.36126529  0.47990828  1
  O  O328  1  0.98833082  0.37170860  0.98780847  1
  O  O329  1  0.99605609  0.88692596  0.49015318  1
  O  O330  1  0.98622879  0.88014808  0.99937307  1
  O  O331  1  0.49490504  0.48796824  0.38014240  1
  O  O332  1  0.50259309  0.49125015  0.88916763  1
  O  O333  1  0.49035271  0.98975381  0.36823360  1
  O  O334  1  0.49750998  0.99035145  0.88202773  1
  O  O335  1  1.00397705  0.48273245  0.37458872  1
  O  O336  1  0.99817408  0.48539237  0.86623092  1
  O  O337  1  0.99422490  0.99431921  0.37764307  1
  O  O338  1  0.99015276  1.00610657  0.87454391  1
  O  O339  1  0.01092672  0.00890917  0.12246878  1
  O  O340  1  0.00467484  -0.00120578  0.61063912  1
  O  O341  1  0.01231342  0.50621113  0.12889082  1
  O  O342  1  0.01140950  0.50819967  0.63147295  1
  O  O343  1  0.50697685  0.00377000  0.11913189  1
  O  O344  1  0.52187267  0.00315883  0.63022962  1
  O  O345  1  0.50788341  0.50025417  0.11511979  1
  O  O346  1  0.49331732  0.50481026  0.61600645  1
  O  O347  1  0.24764470  0.37420212  0.24384149  1
  O  O348  1  0.25588318  0.38136477  0.73893680  1
  O  O349  1  0.24050967  0.87878784  0.24546143  1
  O  O350  1  0.26497433  0.80830321  0.72418950  1
  O  O351  1  0.74321369  0.38086693  0.24449644  1
  O  O352  1  0.73166394  0.39318324  0.77898130  1
  O  O353  1  0.73782888  0.88451943  0.25648157  1
  O  O354  1  0.74781303  0.88057975  0.74536601  1
  O  O355  1  0.25618212  0.12109841  0.25626833  1
  O  O356  1  0.26118006  0.16526707  0.76803491  1
  O  O357  1  0.26031003  0.62911076  0.24932336  1
  O  O358  1  0.25547147  0.61879006  0.75963039  1
  O  O359  1  0.74625415  0.11371028  0.25712656  1
  O  O360  1  0.76035070  0.12151530  0.75689156  1
  O  O361  1  0.75547421  0.61728859  0.25692696  1
  O  O362  1  0.75937138  0.62557736  0.76055802  1
  O  O363  1  0.36890347  0.11700171  0.37148552  1
  O  O364  1  0.38804258  0.10148482  0.86994889  1
  O  O365  1  0.37184339  0.62372644  0.35952440  1
  O  O366  1  0.36482797  0.62993497  0.86399064  1
  O  O367  1  0.86793742  0.11877846  0.37167578  1
  O  O368  1  0.86919161  0.11642867  0.87060039  1
  O  O369  1  0.86243339  0.63080351  0.36374491  1
  O  O370  1  0.86984186  0.62796382  0.87124589  1
  O  O371  1  0.12336664  0.38587261  0.12246993  1
  O  O372  1  0.13676807  0.38533590  0.61806714  1
  O  O373  1  0.13065117  0.87982203  0.13120321  1
  O  O374  1  0.12325358  0.88547815  0.62010584  1
  O  O375  1  0.62843113  0.38377767  0.13370938  1
  O  O376  1  0.61397289  0.38221587  0.64576284  1
  O  O377  1  0.62247921  0.88786662  0.13368725  1
  O  O378  1  0.63176145  0.88197168  0.63043775  1
  O  O379  1  0.11028296  0.25162030  0.24182962  1
  O  O380  1  0.10886329  0.24649250  0.76238015  1
  O  O381  1  0.12578979  0.75677193  0.26187606  1
  O  O382  1  0.11018012  0.74683133  0.76330358  1
  O  O383  1  0.61096808  0.25881805  0.23851671  1
  O  O384  1  0.61314275  0.25846258  0.75663101  1
  O  O385  1  0.62247872  0.75903026  0.25230870  1
  O  O386  1  0.62430434  0.75430090  0.75653742  1
  O  O387  1  0.38540663  0.24547726  0.24210604  1
  O  O388  1  0.38618532  0.26270323  0.73698988  1
  O  O389  1  0.38369122  0.73952605  0.25271176  1
  O  O390  1  0.39296734  0.74556151  0.75610410  1
  O  O391  1  0.88946632  0.25462792  0.23401827  1
  O  O392  1  0.89121571  0.23434634  0.76341169  1
  O  O393  1  0.86597534  0.74046342  0.24964708  1
  O  O394  1  0.88434019  0.74459568  0.74835042  1
  O  O395  1  0.37970460  0.49477423  0.50103167  1
  O  O396  1  0.38381188  0.49119941  1.00746643  1
  O  O397  1  0.37154138  0.99054684  0.48838274  1
  O  O398  1  0.38959295  0.99112368  0.99896451  1
  O  O399  1  0.88067930  0.51653875  0.48214740  1
  O  O400  1  0.86651621  0.48748139  1.00076217  1
  O  O401  1  0.88494596  1.01199081  0.49096780  1
  O  O402  1  0.87506164  0.99197854  0.99232276  1
  O  O403  1  0.12872559  -0.00665132  0.01152204  1
  O  O404  1  0.12051115  0.00496884  0.50607769  1
  O  O405  1  0.12592215  0.50779883  0.01112448  1
  O  O406  1  0.12464301  0.51048875  0.51289341  1
  O  O407  1  0.61761219  0.00150501  0.00628743  1
  O  O408  1  0.62874800  -0.00536208  0.51269745  1
  O  O409  1  0.61829885  0.49930609  0.00908548  1
  O  O410  1  0.60744006  0.48687465  0.50272700  1
  O  O411  1  0.37695407  0.36565107  0.11765331  1
  O  O412  1  0.36495107  0.36946890  0.61340568  1
  O  O413  1  0.36715048  0.87746990  0.11985998  1
  O  O414  1  0.38331404  0.86094865  0.61367242  1
  O  O415  1  0.87046576  0.36812900  0.11716128  1
  O  O416  1  0.88333122  0.41409968  0.60716288  1
  O  O417  1  0.87440354  0.88054139  0.11063596  1
  O  O418  1  0.86677428  0.87083025  0.62219959  1
  O  O419  1  0.13848062  0.11580839  0.37951169  1
  O  O420  1  0.12375856  0.13440118  0.87536892  1
  O  O421  1  0.11920316  0.63294326  0.38108693  1
  O  O422  1  0.13049640  0.62872025  0.88115818  1
  O  O423  1  0.63482446  0.13022705  0.36733191  1
  O  O424  1  0.62887252  0.12984622  0.88120568  1
  O  O425  1  0.63807855  0.62389284  0.37671245  1
  O  O426  1  0.63364657  0.63499225  0.87923252  1
