# generated using pymatgen
data_V85Zn86O256
_symmetry_space_group_name_H-M   'P 1'
_cell_length_a   16.94357120
_cell_length_b   16.94048599
_cell_length_c   16.94769982
_cell_angle_alpha   89.96926353
_cell_angle_beta   89.99107164
_cell_angle_gamma   90.07375338
_symmetry_Int_Tables_number   1
_chemical_formula_structural   V85Zn86O256
_chemical_formula_sum   'V85 Zn86 O256'
_cell_volume   4864.53298625
_cell_formula_units_Z   1
loop_
 _symmetry_equiv_pos_site_id
 _symmetry_equiv_pos_as_xyz
  1  'x, y, z'
loop_
 _atom_site_type_symbol
 _atom_site_label
 _atom_site_symmetry_multiplicity
 _atom_site_fract_x
 _atom_site_fract_y
 _atom_site_fract_z
 _atom_site_occupancy
  V  V0  1  0.12397994  0.86941119  0.76035022  1
  V  V1  1  0.75244604  0.86932241  0.62286436  1
  V  V2  1  0.00870970  0.00755319  -0.00669710  1
  V  V3  1  0.37471364  0.75004314  0.12188207  1
  V  V4  1  0.49588922  0.49759095  0.49264559  1
  V  V5  1  0.76080846  0.75394210  0.01336666  1
  V  V6  1  0.76014041  -0.00062643  0.75317511  1
  V  V7  1  0.87372808  0.00962896  0.36960826  1
  V  V8  1  0.64186740  0.13594736  0.49352405  1
  V  V9  1  0.12008897  0.63318945  -0.00064636  1
  V  V10  1  0.74610777  0.62542082  0.88439864  1
  V  V11  1  -0.01405805  0.62501080  0.13089556  1
  V  V12  1  0.25657548  0.49935304  0.24938219  1
  V  V13  1  0.25501582  0.62728960  0.37318592  1
  V  V14  1  0.87312209  0.62424204  0.74953269  1
  V  V15  1  0.12428073  -0.00118524  0.62469005  1
  V  V16  1  0.00185667  0.74652469  0.75993417  1
  V  V17  1  0.37120052  0.49963322  0.87900435  1
  V  V18  1  -0.00159787  0.62500820  0.62350333  1
  V  V19  1  0.62746945  0.74904323  0.88204806  1
  V  V20  1  0.12470212  0.49986222  0.12858451  1
  V  V21  1  0.87401254  0.74755638  0.62243362  1
  V  V22  1  0.37498659  0.00135137  0.87567677  1
  V  V23  1  0.00423577  0.00240352  0.49967212  1
  V  V24  1  0.50004468  0.36026959  0.37234982  1
  V  V25  1  0.62389381  0.37420745  0.75098573  1
  V  V26  1  0.63558712  0.75284607  0.37856598  1
  V  V27  1  -0.00386791  0.24472610  0.26192222  1
  V  V28  1  0.24953829  0.13901288  0.37773558  1
  V  V29  1  0.12006449  0.36931000  0.75050197  1
  V  V30  1  -0.01983047  0.74802838  0.24548764  1
  V  V31  1  0.37333660  0.12595702  0.74892716  1
  V  V32  1  0.12566377  0.50020966  0.62414943  1
  V  V33  1  0.37910034  0.87598303  0.50010795  1
  V  V34  1  0.51212586  0.50654808  -0.00120524  1
  V  V35  1  0.37112274  0.25352909  0.61377452  1
  V  V36  1  0.63459424  0.00023190  0.11762317  1
  V  V37  1  0.00929798  0.37592040  0.38050561  1
  V  V38  1  0.82443614  0.33000698  0.44872874  1
  V  V39  1  0.37875879  0.12551001  0.25047562  1
  V  V40  1  0.49809707  0.24975133  0.74862864  1
  V  V41  1  0.62283178  0.50233652  0.62605125  1
  V  V42  1  0.37706784  0.75097166  0.62636989  1
  V  V43  1  0.12358628  0.62562335  0.49805258  1
  V  V44  1  0.38268675  0.62470930  0.24935396  1
  V  V45  1  0.87584406  0.87061839  0.49897591  1
  V  V46  1  0.00382373  0.12788030  0.12622573  1
  V  V47  1  0.00596363  0.87504197  0.36888118  1
  V  V48  1  0.24891480  0.25363686  0.00422451  1
  V  V49  1  0.24827334  0.49805255  0.75058875  1
  V  V50  1  0.50385862  0.75420485  0.24746965  1
  V  V51  1  0.51179732  0.62736029  0.11669628  1
  V  V52  1  0.13123531  0.13510477  0.50024184  1
  V  V53  1  0.62270803  0.24202375  0.87948109  1
  V  V54  1  0.88268284  0.25659803  0.62999424  1
  V  V55  1  0.62961916  -0.00009065  0.62453413  1
  V  V56  1  0.63187586  0.63223094  0.50030309  1
  V  V57  1  0.25041474  0.75090362  0.49850902  1
  V  V58  1  0.75057228  0.12205640  0.88054497  1
  V  V59  1  0.24552262  0.12536816  0.88458850  1
  V  V60  1  0.50313841  0.12377806  0.11527746  1
  V  V61  1  0.87333561  0.89074858  0.00707702  1
  V  V62  1  0.24209714  -0.00549085  0.25391513  1
  V  V63  1  0.86792996  0.50305694  0.37001905  1
  V  V64  1  0.24784577  0.00069024  0.75211645  1
  V  V65  1  0.86927930  0.36673702  0.00979229  1
  V  V66  1  0.87353914  0.49656331  0.87764842  1
  V  V67  1  -0.00063823  0.49525646  0.00199589  1
  V  V68  1  0.50242834  0.12513653  0.62242469  1
  V  V69  1  0.37265760  0.87700482  0.00129824  1
  V  V70  1  0.11935651  0.24737810  0.87637665  1
  V  V71  1  0.67234165  0.44177496  0.17666624  1
  V  V72  1  0.37625662  0.62688876  0.75122206  1
  V  V73  1  0.24908995  0.87464250  0.62571680  1
  V  V74  1  0.24208908  0.63268217  0.87611162  1
  V  V75  1  0.25231084  0.37205853  0.61250860  1
  V  V76  1  0.74881871  0.50037466  0.75191920  1
  V  V77  1  0.63800374  0.88022973  0.24578744  1
  V  V78  1  0.49730622  0.37503533  0.87416954  1
  V  V79  1  0.88180176  0.12871642  0.75178824  1
  V  V80  1  0.12664631  0.75103836  0.36030621  1
  V  V81  1  0.75147746  0.36833871  0.62517249  1
  V  V82  1  0.50233028  0.87591831  0.87353971  1
  V  V83  1  0.13029404  0.36363785  0.25175391  1
  V  V84  1  0.50422132  0.87887663  0.37317917  1
  Zn  Zn85  1  0.50093288  0.62694899  0.62568343  1
  Zn  Zn86  1  -0.00580771  0.87626306  0.87754343  1
  Zn  Zn87  1  0.86764706  0.24475451  0.14009502  1
  Zn  Zn88  1  0.37587061  0.00022518  0.37516551  1
  Zn  Zn89  1  0.50517144  0.00286702  -0.00357016  1
  Zn  Zn90  1  -0.00897794  0.49668848  0.49992161  1
  Zn  Zn91  1  0.76003590  0.62908633  0.36575773  1
  Zn  Zn92  1  0.63047464  0.87381741  0.75182209  1
  Zn  Zn93  1  0.51383596  0.24538326  0.24803060  1
  Zn  Zn94  1  0.75859354  0.01026869  0.24875131  1
  Zn  Zn95  1  0.25891370  0.37528436  0.12790869  1
  Zn  Zn96  1  0.37714542  0.49639917  0.37853539  1
  Zn  Zn97  1  0.00382995  0.13273237  0.62793756  1
  Zn  Zn98  1  0.24516277  0.87192797  0.13311354  1
  Zn  Zn99  1  0.37772726  0.25407158  0.12878651  1
  Zn  Zn100  1  0.37606415  0.37810544  0.00868762  1
  Zn  Zn101  1  0.50569290  0.00121630  0.49801471  1
  Zn  Zn102  1  0.73468228  0.25164705  0.00798501  1
  Zn  Zn103  1  0.12493859  -0.00313306  0.12520748  1
  Zn  Zn104  1  0.50478216  0.74998561  0.75075812  1
  Zn  Zn105  1  -0.00328695  0.36884690  0.87242553  1
  Zn  Zn106  1  0.24133403  0.75430069  -0.00012100  1
  Zn  Zn107  1  0.18826699  0.18092709  0.18538915  1
  Zn  Zn108  1  0.18853358  0.18846858  0.68904338  1
  Zn  Zn109  1  0.18905986  0.68356491  0.18318019  1
  Zn  Zn110  1  0.18765753  0.68784189  0.68756883  1
  Zn  Zn111  1  0.69039200  0.18271515  0.18871543  1
  Zn  Zn112  1  0.68982746  0.18629423  0.68889849  1
  Zn  Zn113  1  0.69400133  0.68418229  0.18890370  1
  Zn  Zn114  1  0.68763639  0.68902371  0.69283667  1
  Zn  Zn115  1  0.32391824  0.31552104  0.31543487  1
  Zn  Zn116  1  0.30872480  0.31177972  0.80957578  1
  Zn  Zn117  1  0.31754342  0.81299652  0.31261507  1
  Zn  Zn118  1  0.31221931  0.81234696  0.81471265  1
  Zn  Zn119  1  0.67930101  0.31732089  0.31351520  1
  Zn  Zn120  1  0.81149262  0.30954879  0.81589190  1
  Zn  Zn121  1  0.81408360  0.81959881  0.31413215  1
  Zn  Zn122  1  0.81723475  0.81431911  0.81830297  1
  Zn  Zn123  1  0.18849706  0.44036746  0.43429047  1
  Zn  Zn124  1  0.18624180  0.43593601  0.93962778  1
  Zn  Zn125  1  0.18935043  0.93878314  0.43411679  1
  Zn  Zn126  1  0.18565270  0.93636888  0.94078688  1
  Zn  Zn127  1  0.68035866  0.44653060  0.43732805  1
  Zn  Zn128  1  0.68700513  0.43221051  0.94133370  1
  Zn  Zn129  1  0.69156953  0.94075127  0.44094783  1
  Zn  Zn130  1  0.69297950  0.93530819  0.93855615  1
  Zn  Zn131  1  0.31362496  0.06231421  0.06625197  1
  Zn  Zn132  1  0.31361223  0.06232725  0.56094878  1
  Zn  Zn133  1  0.31288282  0.56636430  0.06261783  1
  Zn  Zn134  1  0.31204221  0.56267599  0.56384340  1
  Zn  Zn135  1  0.81580730  0.07537433  0.07000576  1
  Zn  Zn136  1  0.81888388  0.06362784  0.56208377  1
  Zn  Zn137  1  0.80729451  0.55745861  0.06428905  1
  Zn  Zn138  1  0.81155282  0.55409489  0.55396602  1
  Zn  Zn139  1  0.45506316  0.43965402  0.18981410  1
  Zn  Zn140  1  0.43594768  0.43803531  0.68619066  1
  Zn  Zn141  1  0.43785534  0.94256218  0.18766150  1
  Zn  Zn142  1  0.43957270  0.93889801  0.68897758  1
  Zn  Zn143  1  0.93653815  0.43164259  0.19251478  1
  Zn  Zn144  1  0.93868340  0.43894951  0.68760454  1
  Zn  Zn145  1  0.94077182  0.93757240  0.18326883  1
  Zn  Zn146  1  0.93907414  0.93613727  0.68882076  1
  Zn  Zn147  1  0.06544960  0.06737758  0.31735202  1
  Zn  Zn148  1  0.06221226  0.06254516  0.81376828  1
  Zn  Zn149  1  0.06027285  0.56097856  0.31162149  1
  Zn  Zn150  1  0.06086329  0.55888057  0.81395404  1
  Zn  Zn151  1  0.56977287  0.06749963  0.30960859  1
  Zn  Zn152  1  0.56605806  0.05962918  0.80820516  1
  Zn  Zn153  1  0.59862348  0.57405925  0.29205523  1
  Zn  Zn154  1  0.56236665  0.56547470  0.81569630  1
  Zn  Zn155  1  0.43577988  0.18243867  0.44037155  1
  Zn  Zn156  1  0.43246992  0.18946257  0.93847747  1
  Zn  Zn157  1  0.44730629  0.68660623  0.43702113  1
  Zn  Zn158  1  0.43591897  0.68962232  0.93629334  1
  Zn  Zn159  1  0.82052785  0.18358668  0.32430142  1
  Zn  Zn160  1  0.93685507  0.18253249  0.93648430  1
  Zn  Zn161  1  0.93811952  0.68636403  0.43429008  1
  Zn  Zn162  1  0.93256813  0.68515859  0.94106010  1
  Zn  Zn163  1  0.06422903  0.31036138  0.06596510  1
  Zn  Zn164  1  0.06393366  0.31249346  0.56491011  1
  Zn  Zn165  1  0.05622278  0.81967915  0.07077844  1
  Zn  Zn166  1  0.06151076  0.81087739  0.56304878  1
  Zn  Zn167  1  0.55539033  0.31321550  0.06170990  1
  Zn  Zn168  1  0.56269890  0.31354805  0.55892328  1
  Zn  Zn169  1  0.56569516  0.81601058  0.06005445  1
  Zn  Zn170  1  0.56344451  0.81268614  0.56379139  1
  O  O171  1  0.11188940  0.11787254  0.12947835  1
  O  O172  1  0.12647767  0.11467899  0.62253712  1
  O  O173  1  0.11838932  0.61445483  0.11843268  1
  O  O174  1  0.12124412  0.62168503  0.61697054  1
  O  O175  1  0.61120079  0.11101635  0.12590053  1
  O  O176  1  0.61987402  0.11786520  0.62228816  1
  O  O177  1  0.60958329  0.64087125  0.11729735  1
  O  O178  1  0.62608839  0.61923114  0.62135032  1
  O  O179  1  0.39222845  0.38001596  0.38172358  1
  O  O180  1  0.37937341  0.38563667  0.87103482  1
  O  O181  1  0.38571164  0.87473064  0.38427959  1
  O  O182  1  0.38129822  0.88043297  0.87991806  1
  O  O183  1  0.88970426  0.38097657  0.38325794  1
  O  O184  1  0.87803743  0.38093517  0.88147398  1
  O  O185  1  0.88906696  0.87753409  0.38369207  1
  O  O186  1  0.87968048  0.86875900  0.89535761  1
  O  O187  1  0.25461560  0.00483609  0.36588338  1
  O  O188  1  0.25273467  0.00770648  0.87212814  1
  O  O189  1  0.25509942  0.50761138  0.36408208  1
  O  O190  1  0.25495647  0.50782655  0.87089948  1
  O  O191  1  0.77167175  -0.00675268  0.37812203  1
  O  O192  1  0.74293851  0.00618813  0.86156916  1
  O  O193  1  0.76464036  0.49637163  0.37818361  1
  O  O194  1  0.75290110  0.50679846  0.87387801  1
  O  O195  1  0.24473074  0.50313716  0.13596675  1
  O  O196  1  0.24533297  0.49486946  0.63143497  1
  O  O197  1  0.25000358  1.00438717  0.14256458  1
  O  O198  1  0.24176437  0.99462407  0.63018812  1
  O  O199  1  0.72906524  0.50906517  0.12460488  1
  O  O200  1  0.73894121  0.49209268  0.62948590  1
  O  O201  1  0.73722747  1.00804564  0.12553617  1
  O  O202  1  0.74784487  0.99045152  0.63083019  1
  O  O203  1  0.01193265  0.36636678  0.25582136  1
  O  O204  1  0.01576462  0.38272152  0.75279884  1
  O  O205  1  -0.00327869  0.85954751  0.25664114  1
  O  O206  1  0.00590560  0.86537582  0.75304266  1
  O  O207  1  0.49458121  0.36273785  0.26782229  1
  O  O208  1  0.50428304  0.37130120  0.75518589  1
  O  O209  1  0.50590539  0.87300417  0.25723789  1
  O  O210  1  0.50056822  0.87366425  0.76310192  1
  O  O211  1  0.49295042  0.12294387  0.24189738  1
  O  O212  1  0.49536337  0.12735365  0.73899600  1
  O  O213  1  0.49972053  0.63553660  0.23840398  1
  O  O214  1  0.48756137  0.62663820  0.74997949  1
  O  O215  1  1.00951711  0.13974422  0.24903889  1
  O  O216  1  0.98639016  0.11712667  0.74599716  1
  O  O217  1  1.00514938  0.63889532  0.24435640  1
  O  O218  1  0.99519392  0.62837670  0.74365407  1
  O  O219  1  0.36191984  0.25523694  -0.00045120  1
  O  O220  1  0.37606931  0.24578650  0.51518636  1
  O  O221  1  0.37244934  0.75764284  0.00612729  1
  O  O222  1  0.37362059  0.75915326  0.50518492  1
  O  O223  1  0.88252191  0.26534789  -0.00314833  1
  O  O224  1  0.87323296  0.26852581  0.50999182  1
  O  O225  1  0.86418308  0.75388376  0.00191346  1
  O  O226  1  0.88424604  0.76216592  0.50529354  1
  O  O227  1  0.12669773  0.23355199  0.51171803  1
  O  O228  1  0.13846423  0.25713062  0.99155513  1
  O  O229  1  0.12914125  0.74072952  0.49315592  1
  O  O230  1  0.11955545  0.73589838  1.00601129  1
  O  O231  1  0.62569692  0.23484532  0.50830296  1
  O  O232  1  0.61760260  0.25199005  0.98279094  1
  O  O233  1  0.62242503  0.74463962  0.49298132  1
  O  O234  1  0.63927788  0.76057204  0.98861357  1
  O  O235  1  0.49935762  0.23621362  0.12562720  1
  O  O236  1  0.49415461  0.24377707  0.63018256  1
  O  O237  1  0.49041801  0.74889586  0.12387080  1
  O  O238  1  0.49166186  0.74989696  0.63034924  1
  O  O239  1  1.00187505  0.24457719  0.13721961  1
  O  O240  1  0.98734783  0.25275774  0.62561756  1
  O  O241  1  1.00026076  0.74215098  0.13936594  1
  O  O242  1  0.99372273  0.74308638  0.63312847  1
  O  O243  1  0.00814786  0.26049067  0.36201668  1
  O  O244  1  0.01554032  0.24873350  0.88087164  1
  O  O245  1  0.00705986  0.75353506  0.36366947  1
  O  O246  1  -0.00306837  0.74404873  0.86246405  1
  O  O247  1  0.49807205  0.25895756  0.38276094  1
  O  O248  1  0.50255823  0.25259564  0.86758758  1
  O  O249  1  0.50814246  0.76386616  0.37012799  1
  O  O250  1  0.50867231  0.75736241  0.87604124  1
  O  O251  1  0.24632423  0.11822799  0.48668912  1
  O  O252  1  0.25586384  0.13095409  0.98938066  1
  O  O253  1  0.24563506  0.63189476  0.49415723  1
  O  O254  1  0.23870681  0.62568574  0.99294992  1
  O  O255  1  0.74142154  0.12346903  0.50498917  1
  O  O256  1  0.75529641  0.12026554  0.98213361  1
  O  O257  1  0.73465626  0.61905480  0.49278265  1
  O  O258  1  0.75789878  0.63676122  0.99030720  1
  O  O259  1  0.25404279  0.36899644  0.00447741  1
  O  O260  1  0.24576852  0.38187260  0.51332744  1
  O  O261  1  0.26276999  0.87212314  -0.00420021  1
  O  O262  1  0.25827237  0.86945087  0.50364786  1
  O  O263  1  0.76567387  0.36931125  -0.00540281  1
  O  O264  1  0.75094172  0.37977977  0.50772920  1
  O  O265  1  0.76263588  0.86579688  -0.00081023  1
  O  O266  1  0.76344055  0.87894352  0.51058811  1
  O  O267  1  0.13496915  0.49776444  0.24288220  1
  O  O268  1  0.13057016  0.49589652  0.74341554  1
  O  O269  1  0.13967210  1.00093893  0.25581273  1
  O  O270  1  0.12780730  0.99123326  0.74332651  1
  O  O271  1  0.58876774  0.48311948  0.22621920  1
  O  O272  1  0.62851923  0.49725749  0.74451503  1
  O  O273  1  0.62702313  0.99424894  0.23953677  1
  O  O274  1  0.63663032  0.99735164  0.73750766  1
  O  O275  1  0.36786136  0.01071837  0.25282469  1
  O  O276  1  0.36771325  0.00452157  0.75544633  1
  O  O277  1  0.37197342  0.50720866  0.25094733  1
  O  O278  1  0.37007216  0.50862791  0.75839997  1
  O  O279  1  0.88045148  -0.00715841  0.26611798  1
  O  O280  1  0.86625218  0.00834267  0.74156745  1
  O  O281  1  0.88328560  0.49368016  0.27028165  1
  O  O282  1  0.86873404  0.50525817  0.75655572  1
  O  O283  1  0.12223308  0.38423251  0.36103008  1
  O  O284  1  0.12478465  0.36752971  0.86741523  1
  O  O285  1  0.11383500  0.86482607  0.38206706  1
  O  O286  1  0.12157605  0.87610748  0.86329349  1
  O  O287  1  0.60702954  0.37812308  0.38341696  1
  O  O288  1  0.61763598  0.36790583  0.86833903  1
  O  O289  1  0.62210149  0.87305776  0.37082119  1
  O  O290  1  0.61764100  0.87090539  0.87414676  1
  O  O291  1  0.38682772  0.12489041  0.13266803  1
  O  O292  1  0.38135711  0.12912102  0.63012013  1
  O  O293  1  0.38233481  0.63441469  0.12848943  1
  O  O294  1  0.37355688  0.63117315  0.63640595  1
  O  O295  1  0.89696377  0.12605203  0.13027153  1
  O  O296  1  0.87652143  0.13795730  0.63077478  1
  O  O297  1  0.88733533  0.61660454  0.12245285  1
  O  O298  1  0.87665340  0.62707445  0.62746527  1
  O  O299  1  0.25244780  0.24942789  0.11690652  1
  O  O300  1  0.25909321  0.25997274  0.63147077  1
  O  O301  1  0.26281158  0.74974000  0.12262396  1
  O  O302  1  0.25673482  0.75525042  0.61873831  1
  O  O303  1  0.76082875  0.22341383  0.11162923  1
  O  O304  1  0.75505699  0.26412762  0.63088434  1
  O  O305  1  0.74666119  0.74695306  0.11107207  1
  O  O306  1  0.75647861  0.76197776  0.63177950  1
  O  O307  1  0.25541908  0.23740112  0.37304307  1
  O  O308  1  0.24375440  0.24277758  0.88053530  1
  O  O309  1  0.24434623  0.74819761  0.37918301  1
  O  O310  1  0.25039078  0.73644152  0.87692551  1
  O  O311  1  0.76898262  0.27177135  0.38436138  1
  O  O312  1  0.73849302  0.24138892  0.87718586  1
  O  O313  1  0.73922129  0.75121494  0.37252747  1
  O  O314  1  0.74557636  0.74278735  0.88100675  1
  O  O315  1  -0.00316369  0.11390617  0.00683905  1
  O  O316  1  0.01466148  0.10737498  0.50685886  1
  O  O317  1  0.00273257  0.61412430  0.00679274  1
  O  O318  1  0.00941678  0.62513407  0.50515153  1
  O  O319  1  0.49363534  0.12260872  0.01162656  1
  O  O320  1  0.50269502  0.12067719  0.51391386  1
  O  O321  1  0.49517587  0.61528746  0.00066400  1
  O  O322  1  0.50932527  0.61693872  0.50700115  1
  O  O323  1  0.50379918  0.39191580  0.49828161  1
  O  O324  1  0.49527415  0.38902335  0.99123196  1
  O  O325  1  0.49490240  0.87704075  0.49376917  1
  O  O326  1  0.48925690  0.87604058  0.98868273  1
  O  O327  1  1.01936030  0.37798189  0.48429532  1
  O  O328  1  0.99564248  0.38514417  1.00045911  1
  O  O329  1  0.99756617  0.88272332  0.49426694  1
  O  O330  1  0.99261054  0.88893563  0.99846272  1
  O  O331  1  0.50128383  0.50188153  0.39003365  1
  O  O332  1  0.49045090  0.49924487  0.88143907  1
  O  O333  1  0.50076210  0.98901127  0.37610003  1
  O  O334  1  0.49603545  0.99393651  0.87512736  1
  O  O335  1  0.99660587  0.49171782  0.37717872  1
  O  O336  1  0.99194552  0.49874104  0.88631706  1
  O  O337  1  0.99922594  0.99142286  0.38102717  1
  O  O338  1  0.99975531  1.00132410  0.88915349  1
  O  O339  1  0.00369773  0.00737008  0.11592379  1
  O  O340  1  0.01333233  -0.00507962  0.61918066  1
  O  O341  1  0.00715173  0.50383444  0.12285382  1
  O  O342  1  0.00732597  0.50651874  0.62090239  1
  O  O343  1  0.50583425  0.00908165  0.12078245  1
  O  O344  1  0.51099600  0.00674821  0.62663964  1
  O  O345  1  0.49159295  0.51216887  0.10420720  1
  O  O346  1  0.51149992  0.50075680  0.62209164  1
  O  O347  1  0.24791298  0.38334921  0.25151238  1
  O  O348  1  0.24009328  0.38292567  0.74560959  1
  O  O349  1  0.25863571  0.89068208  0.25252402  1
  O  O350  1  0.24253468  0.87911159  0.74693415  1
  O  O351  1  0.73064384  0.39130277  0.24298933  1
  O  O352  1  0.74290290  0.38188711  0.74582646  1
  O  O353  1  0.74071958  0.88280896  0.25230174  1
  O  O354  1  0.75519273  0.88272600  0.74398223  1
  O  O355  1  0.25526005  0.11815184  0.26197713  1
  O  O356  1  0.25511374  0.11795645  0.75766502  1
  O  O357  1  0.25913877  0.61888014  0.25380600  1
  O  O358  1  0.25465684  0.61951973  0.75684900  1
  O  O359  1  0.75639328  0.12174613  0.25942991  1
  O  O360  1  0.75934462  0.11668713  0.75329062  1
  O  O361  1  0.70721635  0.61100507  0.26777289  1
  O  O362  1  0.75497115  0.61905450  0.75989066  1
  O  O363  1  0.36665006  0.12086827  0.37166415  1
  O  O364  1  0.36775859  0.11953507  0.86860944  1
  O  O365  1  0.37187914  0.62802821  0.36769058  1
  O  O366  1  0.36631508  0.62053572  0.86754802  1
  O  O367  1  0.88634298  0.10732922  0.38385863  1
  O  O368  1  0.86484583  0.13266282  0.86259078  1
  O  O369  1  0.87454284  0.61058762  0.37906752  1
  O  O370  1  0.86708324  0.61660231  0.87040190  1
  O  O371  1  0.12892392  0.38741876  0.13276461  1
  O  O372  1  0.13209367  0.37959106  0.63246521  1
  O  O373  1  0.13477349  0.88232495  0.11664866  1
  O  O374  1  0.13135115  0.87953183  0.63166003  1
  O  O375  1  0.63473016  0.37499752  0.10911037  1
  O  O376  1  0.63039318  0.38219596  0.63063667  1
  O  O377  1  0.61814240  0.88939257  0.13406291  1
  O  O378  1  0.63507757  0.88069623  0.62679457  1
  O  O379  1  0.12463435  0.26144226  0.24463473  1
  O  O380  1  0.13101105  0.25944024  0.76008499  1
  O  O381  1  0.12767633  0.74637027  0.25927100  1
  O  O382  1  0.11536662  0.75829012  0.74301954  1
  O  O383  1  0.62467123  0.23769425  0.25985808  1
  O  O384  1  0.61737327  0.25468870  0.75550954  1
  O  O385  1  0.62051892  0.76363874  0.25596651  1
  O  O386  1  0.62499563  0.75432454  0.76448610  1
  O  O387  1  0.37701745  0.23474948  0.25030224  1
  O  O388  1  0.38033641  0.24280525  0.74528862  1
  O  O389  1  0.38327745  0.74713200  0.24126061  1
  O  O390  1  0.37438223  0.74188769  0.74605556  1
  O  O391  1  0.89323820  0.25268553  0.25636526  1
  O  O392  1  0.87055241  0.24189142  0.74212759  1
  O  O393  1  0.88177266  0.74627577  0.25541943  1
  O  O394  1  0.88222266  0.74279424  0.74424527  1
  O  O395  1  0.39210518  0.50939249  0.50218854  1
  O  O396  1  0.37535368  0.50263370  0.98646975  1
  O  O397  1  0.37867712  0.98620935  0.50115040  1
  O  O398  1  0.37628294  0.99286524  0.99341544  1
  O  O399  1  0.87735413  0.49176497  0.48747275  1
  O  O400  1  0.88020374  0.48898779  0.99827123  1
  O  O401  1  0.88722933  0.99045158  0.49639945  1
  O  O402  1  0.88105895  0.99462806  1.00476196  1
  O  O403  1  0.11177426  0.00225579  -0.00224231  1
  O  O404  1  0.12369281  0.00098945  0.50849273  1
  O  O405  1  0.11666804  0.50425851  0.00832057  1
  O  O406  1  0.12809949  0.51485284  0.50403199  1
  O  O407  1  0.62369670  -0.00866408  0.01348751  1
  O  O408  1  0.62702122  0.00486441  0.51378254  1
  O  O409  1  0.61036412  0.50338767  -0.01189007  1
  O  O410  1  0.61568949  0.50998056  0.50976483  1
  O  O411  1  0.37856727  0.37340369  0.12732800  1
  O  O412  1  0.36479478  0.36638893  0.63186380  1
  O  O413  1  0.37334187  0.86966975  0.11681835  1
  O  O414  1  0.37009412  0.87108786  0.62042293  1
  O  O415  1  0.87970960  0.36954618  0.11298814  1
  O  O416  1  0.86477225  0.36972933  0.63546529  1
  O  O417  1  0.88156710  0.87345553  0.10707763  1
  O  O418  1  0.87153295  0.86937662  0.61850099  1
  O  O419  1  0.14070066  0.12334202  0.38527301  1
  O  O420  1  0.13608091  0.13337801  0.86734431  1
  O  O421  1  0.13212408  0.63182118  0.38058616  1
  O  O422  1  0.13149839  0.61680063  0.88551812  1
  O  O423  1  0.62195907  0.11749660  0.39644432  1
  O  O424  1  0.63426790  0.13252767  0.86438376  1
  O  O425  1  0.61070692  0.64206594  0.38765377  1
  O  O426  1  0.63546767  0.63412342  0.87286745  1
