# generated using pymatgen
data_V85Zn86O256
_symmetry_space_group_name_H-M   'P 1'
_cell_length_a   16.92767691
_cell_length_b   16.93435376
_cell_length_c   16.94126882
_cell_angle_alpha   90.01905909
_cell_angle_beta   89.97377031
_cell_angle_gamma   89.99950293
_symmetry_Int_Tables_number   1
_chemical_formula_structural   V85Zn86O256
_chemical_formula_sum   'V85 Zn86 O256'
_cell_volume   4856.37096171
_cell_formula_units_Z   1
loop_
 _symmetry_equiv_pos_site_id
 _symmetry_equiv_pos_as_xyz
  1  'x, y, z'
loop_
 _atom_site_type_symbol
 _atom_site_label
 _atom_site_symmetry_multiplicity
 _atom_site_fract_x
 _atom_site_fract_y
 _atom_site_fract_z
 _atom_site_occupancy
  V  V0  1  0.87490184  0.74944978  0.62506470  1
  V  V1  1  0.87403354  0.00022669  0.87539593  1
  V  V2  1  0.88045098  0.74464657  0.12642761  1
  V  V3  1  0.49398211  0.62416109  0.62259360  1
  V  V4  1  0.74513193  0.61612517  0.88235942  1
  V  V5  1  0.62429030  0.75022918  0.37361068  1
  V  V6  1  -0.00239037  0.48447117  0.49653374  1
  V  V7  1  0.12373552  0.37140921  0.74859375  1
  V  V8  1  0.12653757  0.87656318  0.25110293  1
  V  V9  1  0.88308729  0.62305595  0.25201389  1
  V  V10  1  0.87361896  0.48874340  0.37638579  1
  V  V11  1  0.12213180  0.62518669  0.49865818  1
  V  V12  1  0.87410031  0.61721362  0.75448201  1
  V  V13  1  0.75591020  0.37557367  0.12848192  1
  V  V14  1  0.12775310  0.12414940  0.49683149  1
  V  V15  1  0.49917086  0.87289694  0.87914034  1
  V  V16  1  0.24649443  0.48967600  0.24815650  1
  V  V17  1  0.10847344  0.24090443  0.86858172  1
  V  V18  1  0.49475999  0.74854387  0.74517343  1
  V  V19  1  0.75277996  0.24534228  0.00338058  1
  V  V20  1  0.37276335  0.25994822  0.12729858  1
  V  V21  1  0.62455059  0.12641395  0.50087346  1
  V  V22  1  0.49478070  0.00236282  0.49502231  1
  V  V23  1  -0.00065449  0.87296961  0.37519920  1
  V  V24  1  0.74997332  0.12584001  0.37460578  1
  V  V25  1  0.50014984  0.25174732  0.74946203  1
  V  V26  1  0.11210857  0.50909320  0.12791266  1
  V  V27  1  0.37634088  0.74869981  0.12256643  1
  V  V28  1  0.11514107  0.26055312  0.37707273  1
  V  V29  1  0.88292061  0.13727160  0.24703588  1
  V  V30  1  0.38253952  0.49076059  0.37316890  1
  V  V31  1  0.25630789  0.74784099  0.50185058  1
  V  V32  1  0.49627634  0.25305036  0.25344733  1
  V  V33  1  0.43979375  0.04919030  -0.05802344  1
  V  V34  1  0.62095827  0.25747924  0.37575902  1
  V  V35  1  0.12877821  0.74230830  0.87506558  1
  V  V36  1  0.24943128  0.74010301  -0.00189334  1
  V  V37  1  0.37599705  0.87555380  0.49843333  1
  V  V38  1  0.62456256  0.87861555  0.24870660  1
  V  V39  1  0.75640343  0.25295360  0.50062355  1
  V  V40  1  0.50069304  0.74964375  0.24785320  1
  V  V41  1  0.37106226  0.87467821  -0.00628018  1
  V  V42  1  0.50515647  0.62102762  0.11045734  1
  V  V43  1  0.12660450  0.87258824  0.75022857  1
  V  V44  1  0.62625775  0.38544869  0.25284365  1
  V  V45  1  0.36513109  0.25656796  0.62874029  1
  V  V46  1  0.49940422  0.38345001  0.88682134  1
  V  V47  1  0.62220816  0.00776659  0.10967072  1
  V  V48  1  0.87264960  0.87195083  0.00170491  1
  V  V49  1  0.12593215  0.00369643  0.12807174  1
  V  V50  1  0.75655044  0.37533863  0.62351703  1
  V  V51  1  0.13248801  0.49582228  0.62201173  1
  V  V52  1  0.88051435  0.12900835  0.75160147  1
  V  V53  1  0.74871268  0.75042754  0.50026050  1
  V  V54  1  0.75071885  -0.00002948  0.74828387  1
  V  V55  1  0.26216064  0.12474805  0.37362048  1
  V  V56  1  0.37040488  0.50020599  0.88782497  1
  V  V57  1  0.62713730  0.50247451  0.10872277  1
  V  V58  1  0.06629160  0.31787331  0.20222479  1
  V  V59  1  0.62505515  0.87145631  0.74897285  1
  V  V60  1  -0.00132573  0.87225456  0.87620321  1
  V  V61  1  0.12851770  -0.00131193  0.62565299  1
  V  V62  1  0.74938724  0.00429143  0.24958672  1
  V  V63  1  0.62712890  0.37401011  0.75109692  1
  V  V64  1  0.49604705  0.87932826  0.37304479  1
  V  V65  1  0.62607070  0.50105849  0.62333493  1
  V  V66  1  0.25274451  0.49447285  0.75026176  1
  V  V67  1  0.88259826  0.25082270  0.62610299  1
  V  V68  1  0.26492968  0.00072265  0.25486439  1
  V  V69  1  -0.00112058  -0.00058280  0.50203432  1
  V  V70  1  -0.00590591  0.39603580  0.87158769  1
  V  V71  1  0.49696627  0.12356961  0.62822220  1
  V  V72  1  -0.00151646  0.00485525  0.00514930  1
  V  V73  1  0.25636754  0.87081538  0.62621072  1
  V  V74  1  0.10958997  0.62147130  0.00169982  1
  V  V75  1  -0.00024046  0.74892602  0.74905454  1
  V  V76  1  0.25473317  0.25102637  -0.01581653  1
  V  V77  1  0.49703694  0.12521788  0.13066119  1
  V  V78  1  0.25705459  0.00157219  0.76434806  1
  V  V79  1  0.74828772  0.87463950  0.12492688  1
  V  V80  1  0.87698116  0.38688991  -0.00157671  1
  V  V81  1  0.36854036  0.62487556  0.75049001  1
  V  V82  1  0.37565840  0.62456019  0.24772187  1
  V  V83  1  0.25117820  0.62407559  0.37256006  1
  V  V84  1  0.75165050  0.62358832  0.36953429  1
  Zn  Zn85  1  0.37353129  0.12128637  0.76203305  1
  Zn  Zn86  1  0.24994506  0.37599850  0.12007292  1
  Zn  Zn87  1  0.12854934  0.12268672  -0.00515894  1
  Zn  Zn88  1  0.62242064  0.62475715  0.49889283  1
  Zn  Zn89  1  0.62512439  0.24636468  0.88307028  1
  Zn  Zn90  1  -0.00001848  0.14089412  0.12701327  1
  Zn  Zn91  1  0.87412297  -0.00036063  0.37521794  1
  Zn  Zn92  1  0.74393649  0.74161496  0.00217908  1
  Zn  Zn93  1  0.87328026  0.87585763  0.49931355  1
  Zn  Zn94  1  0.62285081  0.74074242  0.88162448  1
  Zn  Zn95  1  0.50367146  0.49267001  0.49448562  1
  Zn  Zn96  1  -0.00101871  0.62247070  0.62373382  1
  Zn  Zn97  1  0.00501518  0.74704929  0.24650121  1
  Zn  Zn98  1  0.75742628  0.49646451  0.75242843  1
  Zn  Zn99  1  0.62464759  -0.00116056  0.62358529  1
  Zn  Zn100  1  0.74482492  0.12525550  0.87968751  1
  Zn  Zn101  1  0.12630064  0.74935396  0.37323454  1
  Zn  Zn102  1  0.74891116  0.87388006  0.62437637  1
  Zn  Zn103  1  0.00420200  0.12915481  0.62868221  1
  Zn  Zn104  1  0.24856737  0.25844354  0.50211296  1
  Zn  Zn105  1  0.25190793  0.87637241  0.12508723  1
  Zn  Zn106  1  0.37565557  0.37613480  0.50372253  1
  Zn  Zn107  1  0.19511587  0.18258005  0.18860084  1
  Zn  Zn108  1  0.18710207  0.18108886  0.69388481  1
  Zn  Zn109  1  0.18898134  0.68657349  0.18543731  1
  Zn  Zn110  1  0.18986936  0.68441482  0.68497312  1
  Zn  Zn111  1  0.68485378  0.19069518  0.18489624  1
  Zn  Zn112  1  0.68912865  0.18672435  0.68984923  1
  Zn  Zn113  1  0.69082288  0.68508442  0.18638782  1
  Zn  Zn114  1  0.68688140  0.68526845  0.69156847  1
  Zn  Zn115  1  0.30919494  0.30781213  0.31314463  1
  Zn  Zn116  1  0.31514377  0.31718891  0.81108770  1
  Zn  Zn117  1  0.31259373  0.81269752  0.31393296  1
  Zn  Zn118  1  0.31298138  0.81077628  0.81366143  1
  Zn  Zn119  1  0.80965019  0.31265244  0.31123958  1
  Zn  Zn120  1  0.81547748  0.31116707  0.81545462  1
  Zn  Zn121  1  0.81403674  0.81253787  0.31146772  1
  Zn  Zn122  1  0.80887287  0.80592179  0.81441420  1
  Zn  Zn123  1  0.19627812  0.43524604  0.43976833  1
  Zn  Zn124  1  0.18547243  0.43680814  0.93792208  1
  Zn  Zn125  1  0.18918452  0.93940982  0.43552636  1
  Zn  Zn126  1  0.18455946  0.93192081  0.94107106  1
  Zn  Zn127  1  0.69073517  0.43713850  0.44008795  1
  Zn  Zn128  1  0.69176941  0.43522979  0.93649476  1
  Zn  Zn129  1  0.68415826  0.93782332  0.43746276  1
  Zn  Zn130  1  0.68711851  0.93329651  0.93333308  1
  Zn  Zn131  1  0.30802404  0.07430172  0.07078725  1
  Zn  Zn132  1  0.31388173  0.06278455  0.56444843  1
  Zn  Zn133  1  0.30614063  0.56296153  0.06599140  1
  Zn  Zn134  1  0.31294742  0.55948181  0.56157039  1
  Zn  Zn135  1  0.81580684  0.06436117  0.06882972  1
  Zn  Zn136  1  0.81382753  0.06419596  0.56504472  1
  Zn  Zn137  1  0.81272928  0.55967871  0.06678704  1
  Zn  Zn138  1  0.81331180  0.56470495  0.56021005  1
  Zn  Zn139  1  0.44264569  0.43674258  0.18740417  1
  Zn  Zn140  1  0.44056119  0.43862496  0.68893017  1
  Zn  Zn141  1  0.44033376  0.93679578  0.17966764  1
  Zn  Zn142  1  0.43593052  0.93707674  0.68600963  1
  Zn  Zn143  1  0.92992445  0.44153915  0.18974364  1
  Zn  Zn144  1  0.94337231  0.43550692  0.68365623  1
  Zn  Zn145  1  0.93592386  0.93912021  0.18906279  1
  Zn  Zn146  1  0.93698578  0.93615374  0.68572877  1
  Zn  Zn147  1  0.06503939  0.06307955  0.31555498  1
  Zn  Zn148  1  0.06168062  0.05763974  0.81174016  1
  Zn  Zn149  1  0.06149395  0.55695620  0.31468933  1
  Zn  Zn150  1  0.06669471  0.56665185  0.80825222  1
  Zn  Zn151  1  0.56170782  0.06676152  0.31114393  1
  Zn  Zn152  1  0.57080493  0.06578062  0.80954936  1
  Zn  Zn153  1  0.56236730  0.56637494  0.30817380  1
  Zn  Zn154  1  0.56191594  0.55958841  0.81124193  1
  Zn  Zn155  1  0.43895226  0.19413498  0.44147006  1
  Zn  Zn156  1  0.44084666  0.21061956  0.94273534  1
  Zn  Zn157  1  0.43694981  0.68528799  0.43674773  1
  Zn  Zn158  1  0.43609654  0.68580206  0.93187665  1
  Zn  Zn159  1  0.93731267  0.18518642  0.43610370  1
  Zn  Zn160  1  0.93033631  0.19007822  0.94309344  1
  Zn  Zn161  1  0.93830095  0.68776978  0.43639005  1
  Zn  Zn162  1  0.93187661  0.68496899  0.93492056  1
  Zn  Zn163  1  0.06986934  0.32063530  0.03986405  1
  Zn  Zn164  1  0.06718412  0.31169687  0.56246489  1
  Zn  Zn165  1  0.06225700  0.81385986  0.06380245  1
  Zn  Zn166  1  0.06471484  0.81110065  0.56192259  1
  Zn  Zn167  1  0.56879991  0.31169387  0.06703357  1
  Zn  Zn168  1  0.56009695  0.31626300  0.56160639  1
  Zn  Zn169  1  0.56280004  0.81346050  0.06075344  1
  Zn  Zn170  1  0.56104523  0.81055139  0.56399669  1
  O  O171  1  0.12027324  0.11302590  0.12899754  1
  O  O172  1  0.12410911  0.11904466  0.61743234  1
  O  O173  1  0.12385472  0.61699351  0.11842103  1
  O  O174  1  0.12415094  0.61541486  0.61631355  1
  O  O175  1  0.61212428  0.12053216  0.12501060  1
  O  O176  1  0.61285683  0.12619607  0.62113087  1
  O  O177  1  0.62118351  0.61100534  0.13013145  1
  O  O178  1  0.61637742  0.61643705  0.62663746  1
  O  O179  1  0.37295380  0.38957299  0.36936644  1
  O  O180  1  0.38824296  0.38742204  0.87090478  1
  O  O181  1  0.38018032  0.87113919  0.38891195  1
  O  O182  1  0.38079712  0.87331827  0.88548286  1
  O  O183  1  0.86642526  0.39003862  0.37523880  1
  O  O184  1  0.88833842  0.37746175  0.87643882  1
  O  O185  1  0.88476591  0.87865112  0.37661453  1
  O  O186  1  0.87861552  0.87814914  0.88233497  1
  O  O187  1  0.24767647  0.01285619  0.36848507  1
  O  O188  1  0.24501717  -0.00937335  0.86238905  1
  O  O189  1  0.25716760  0.50667736  0.36622142  1
  O  O190  1  0.26233014  0.49426215  0.86811612  1
  O  O191  1  0.74788268  0.00730592  0.36771927  1
  O  O192  1  0.75650804  -0.00131085  0.86381357  1
  O  O193  1  0.76496549  0.51041076  0.38845997  1
  O  O194  1  0.74935067  0.51025752  0.86999894  1
  O  O195  1  0.24064705  0.49589532  0.13243415  1
  O  O196  1  0.23922585  0.50143338  0.63092743  1
  O  O197  1  0.24285989  1.00124309  0.13493623  1
  O  O198  1  0.24646250  0.98799764  0.62922885  1
  O  O199  1  0.73565685  0.49279256  0.12479439  1
  O  O200  1  0.74536202  0.49267160  0.62443698  1
  O  O201  1  0.74319878  0.99672044  0.13179242  1
  O  O202  1  0.74991561  0.99559071  0.63571528  1
  O  O203  1  0.00059390  0.37178549  0.25277274  1
  O  O204  1  0.00838320  0.37930720  0.76153991  1
  O  O205  1  0.00820406  0.87724218  0.25831892  1
  O  O206  1  0.00631681  0.86963574  0.75509190  1
  O  O207  1  0.51198286  0.36269514  0.24586286  1
  O  O208  1  0.50816048  0.36876425  0.75458691  1
  O  O209  1  0.50420633  0.86987521  0.25267083  1
  O  O210  1  0.50146772  0.86850237  0.75672816  1
  O  O211  1  0.50417886  0.13955924  0.24246361  1
  O  O212  1  0.49713698  0.13232864  0.74409736  1
  O  O213  1  0.49403985  0.63366965  0.24207031  1
  O  O214  1  0.49187892  0.63032721  0.74456818  1
  O  O215  1  0.98648171  0.11778370  0.25077285  1
  O  O216  1  0.98534982  0.11446053  0.74660808  1
  O  O217  1  0.98784233  0.62899725  0.25918735  1
  O  O218  1  0.99324701  0.63252106  0.74748827  1
  O  O219  1  0.36029536  0.25508831  0.00674201  1
  O  O220  1  0.37415808  0.24759273  0.51964240  1
  O  O221  1  0.36713962  0.75507979  -0.00026056  1
  O  O222  1  0.36309859  0.75452312  0.49814321  1
  O  O223  1  0.86333494  0.26537113  -0.00157006  1
  O  O224  1  0.86343848  0.24141310  0.50736039  1
  O  O225  1  0.87116285  0.75671528  0.00711419  1
  O  O226  1  0.86762116  0.75045600  0.50708631  1
  O  O227  1  0.12815849  0.24171146  0.49346024  1
  O  O228  1  0.13115493  0.24549153  0.98024379  1
  O  O229  1  0.13629965  0.74166686  0.49953722  1
  O  O230  1  0.12939928  0.74570827  0.99488593  1
  O  O231  1  0.63160264  0.24595298  0.49469574  1
  O  O232  1  0.64543491  0.25991278  0.99980319  1
  O  O233  1  0.63138386  0.74885092  0.49335442  1
  O  O234  1  0.63251198  0.76125568  0.99354466  1
  O  O235  1  0.49635419  0.24568572  0.13038244  1
  O  O236  1  0.49374068  0.24455837  0.63621709  1
  O  O237  1  0.49551385  0.74449820  0.12966664  1
  O  O238  1  0.50203990  0.74144638  0.63696725  1
  O  O239  1  1.01800604  0.25974656  0.13185209  1
  O  O240  1  0.98652148  0.25043572  0.61841126  1
  O  O241  1  0.98487090  0.75671835  0.12729312  1
  O  O242  1  0.99316133  0.74820503  0.63011820  1
  O  O243  1  0.01587155  0.24637997  0.37942705  1
  O  O244  1  0.00838569  0.25142089  0.87458283  1
  O  O245  1  0.00445718  0.76227461  0.37454085  1
  O  O246  1  0.00529485  0.75453792  0.86903429  1
  O  O247  1  0.51037664  0.24616405  0.36853020  1
  O  O248  1  0.50156950  0.26409563  0.86390870  1
  O  O249  1  0.50459703  0.75617783  0.36891512  1
  O  O250  1  0.50055927  0.75671775  0.86384276  1
  O  O251  1  0.24131864  0.12308954  0.49231219  1
  O  O252  1  0.24442852  0.14523403  1.00541868  1
  O  O253  1  0.24309750  0.63073763  0.49690495  1
  O  O254  1  0.23996647  0.63726834  1.00398682  1
  O  O255  1  0.74302048  0.13036653  0.49682344  1
  O  O256  1  0.76123298  0.14133971  1.00333277  1
  O  O257  1  0.74856612  0.63683167  0.49138797  1
  O  O258  1  0.75653046  0.62184255  0.98567430  1
  O  O259  1  0.23623429  0.35616107  0.00378052  1
  O  O260  1  0.26136920  0.37135555  0.50222986  1
  O  O261  1  0.25600224  0.86520025  0.00295981  1
  O  O262  1  0.25608926  0.86932175  0.50423469  1
  O  O263  1  0.75827391  0.37168171  0.00692618  1
  O  O264  1  0.74722470  0.36362803  0.51077373  1
  O  O265  1  0.76328062  0.87875401  0.00407271  1
  O  O266  1  0.74988203  0.86349447  0.50033879  1
  O  O267  1  0.13317669  0.50837850  0.23897491  1
  O  O268  1  0.13249363  0.49572607  0.74213427  1
  O  O269  1  0.13092922  0.99183596  0.24576900  1
  O  O270  1  0.13386890  0.99186198  0.74534106  1
  O  O271  1  0.62402996  0.48743009  0.25342321  1
  O  O272  1  0.62566694  0.48897524  0.73848951  1
  O  O273  1  0.63557299  0.99922208  0.24491287  1
  O  O274  1  0.63362077  0.99152447  0.74563134  1
  O  O275  1  0.36388173  -0.00886614  0.24618159  1
  O  O276  1  0.36160584  -0.00198258  0.75034407  1
  O  O277  1  0.37009670  0.50462914  0.25604193  1
  O  O278  1  0.36745461  0.50370101  0.75456496  1
  O  O279  1  0.86112236  0.00502984  0.25087451  1
  O  O280  1  0.86842966  0.00209745  0.75433827  1
  O  O281  1  0.87703226  0.50782634  0.26767333  1
  O  O282  1  0.87802634  0.51434898  0.73835401  1
  O  O283  1  0.12919590  0.35942825  0.37985266  1
  O  O284  1  0.11304724  0.36901116  0.86762887  1
  O  O285  1  0.11966403  0.87435168  0.36740180  1
  O  O286  1  0.11789174  0.86364726  0.87094697  1
  O  O287  1  0.63427244  0.36499497  0.36912635  1
  O  O288  1  0.61548703  0.37729555  0.86659555  1
  O  O289  1  0.61786173  0.86977722  0.36771393  1
  O  O290  1  0.61498927  0.87638982  0.86253244  1
  O  O291  1  0.38895226  0.13931095  0.12157128  1
  O  O292  1  0.38607206  0.13111490  0.62861859  1
  O  O293  1  0.38258794  0.62799861  0.12929155  1
  O  O294  1  0.38591707  0.61690136  0.63361867  1
  O  O295  1  0.88084608  0.12522290  0.14141129  1
  O  O296  1  0.87799245  0.13343956  0.63251659  1
  O  O297  1  0.86711839  0.63220488  0.13796301  1
  O  O298  1  0.87610405  0.63614941  0.62967192  1
  O  O299  1  0.25832437  0.25366869  0.12516750  1
  O  O300  1  0.26348023  0.24017080  0.62926405  1
  O  O301  1  0.25877277  0.75283418  0.11730689  1
  O  O302  1  0.24643596  0.76229768  0.61821832  1
  O  O303  1  0.74613368  0.26219090  0.11548906  1
  O  O304  1  0.75729365  0.25554972  0.61899136  1
  O  O305  1  0.75954988  0.75792122  0.12494385  1
  O  O306  1  0.75519072  0.74913998  0.61749769  1
  O  O307  1  0.24135651  0.23728440  0.37609410  1
  O  O308  1  0.24799444  0.25273932  0.88127903  1
  O  O309  1  0.24831656  0.74262061  0.38305547  1
  O  O310  1  0.23943544  0.75510245  0.88384802  1
  O  O311  1  0.74491058  0.24531423  0.38424562  1
  O  O312  1  0.74957711  0.25201330  0.88917593  1
  O  O313  1  0.74574313  0.74521775  0.38137332  1
  O  O314  1  0.74689386  0.73347204  0.87604811  1
  O  O315  1  0.00105357  0.11852420  0.00589023  1
  O  O316  1  0.01059985  0.11570622  0.50070231  1
  O  O317  1  0.01026917  0.63014285  -0.00257279  1
  O  O318  1  0.01343320  0.62292220  0.49943268  1
  O  O319  1  0.49117559  0.11598391  0.00108381  1
  O  O320  1  0.50359501  0.11911809  0.50617629  1
  O  O321  1  0.49768814  0.63088300  0.01153492  1
  O  O322  1  0.50154274  0.62312648  0.50982055  1
  O  O323  1  0.48993367  0.37977262  0.50477184  1
  O  O324  1  0.50443737  0.36813598  0.98453242  1
  O  O325  1  0.49381954  0.88105392  0.49692762  1
  O  O326  1  0.49101555  0.87291321  0.98586908  1
  O  O327  1  1.00218602  0.38633172  0.50055780  1
  O  O328  1  0.99296738  0.37643575  0.98101533  1
  O  O329  1  1.00098220  0.88089869  0.49303824  1
  O  O330  1  0.98938460  0.88076304  0.99729608  1
  O  O331  1  0.48566610  0.50699746  0.37240279  1
  O  O332  1  0.49053774  0.49038702  0.87202121  1
  O  O333  1  0.50539670  0.99397381  0.38324031  1
  O  O334  1  0.49970764  0.99424422  0.87640912  1
  O  O335  1  0.98982997  0.50144842  0.38776309  1
  O  O336  1  1.00379833  0.49409425  0.87240895  1
  O  O337  1  1.00205260  0.99066018  0.38650125  1
  O  O338  1  0.99618781  0.99327540  0.88740159  1
  O  O339  1  0.00588047  -0.00265816  0.11503290  1
  O  O340  1  0.00777452  -0.00267309  0.61458324  1
  O  O341  1  0.01339189  0.49940897  0.13242039  1
  O  O342  1  0.00990724  0.50163443  0.61160243  1
  O  O343  1  0.50998910  0.01151317  0.12982675  1
  O  O344  1  0.50057887  0.00829274  0.61882270  1
  O  O345  1  0.51538731  0.50800612  0.13029693  1
  O  O346  1  0.50863890  0.50765528  0.62513992  1
  O  O347  1  0.25165845  0.38731734  0.24861850  1
  O  O348  1  0.24042897  0.38639303  0.75378474  1
  O  O349  1  0.24316185  0.88205990  0.25007682  1
  O  O350  1  0.24828658  0.87917507  0.74249131  1
  O  O351  1  0.74049739  0.36790129  0.23859884  1
  O  O352  1  0.74360984  0.37566853  0.74461278  1
  O  O353  1  0.74516430  0.88389659  0.24573415  1
  O  O354  1  0.74133104  0.87916467  0.75043977  1
  O  O355  1  0.25024395  0.11607202  0.26475158  1
  O  O356  1  0.25329397  0.10600899  0.75097280  1
  O  O357  1  0.25783935  0.61869406  0.25233814  1
  O  O358  1  0.26086953  0.61474293  0.74487946  1
  O  O359  1  0.75585003  0.12104769  0.25283203  1
  O  O360  1  0.76053731  0.11494671  0.74858969  1
  O  O361  1  0.75947723  0.63054671  0.26472201  1
  O  O362  1  0.75870281  0.62103866  0.75598349  1
  O  O363  1  0.36069707  0.13006120  0.38369623  1
  O  O364  1  0.38887842  0.11604420  0.88372508  1
  O  O365  1  0.36969306  0.61949094  0.36582525  1
  O  O366  1  0.38074019  0.60866699  0.86491051  1
  O  O367  1  0.86820286  0.12056695  0.36611680  1
  O  O368  1  0.87120736  0.11789311  0.86882584  1
  O  O369  1  0.86929126  0.62066824  0.37105143  1
  O  O370  1  0.86354453  0.62748039  0.86385959  1
  O  O371  1  0.12048493  0.38005616  0.13310833  1
  O  O372  1  0.11922870  0.38093237  0.63854142  1
  O  O373  1  0.12672926  0.88626897  0.13199029  1
  O  O374  1  0.13357455  0.87808611  0.63134525  1
  O  O375  1  0.63038317  0.38725448  0.13227932  1
  O  O376  1  0.63556193  0.37989717  0.63122219  1
  O  O377  1  0.62813347  0.88511556  0.13191581  1
  O  O378  1  0.62422590  0.87519397  0.63738586  1
  O  O379  1  0.12620086  0.25219504  0.25886544  1
  O  O380  1  0.13143944  0.25702032  0.76135984  1
  O  O381  1  0.12542193  0.76297968  0.24811699  1
  O  O382  1  0.12294413  0.75153818  0.75694092  1
  O  O383  1  0.62019146  0.25797856  0.25896217  1
  O  O384  1  0.61857935  0.26142228  0.74757489  1
  O  O385  1  0.62087360  0.75658736  0.25345438  1
  O  O386  1  0.61566881  0.75630107  0.75342448  1
  O  O387  1  0.38494280  0.25484391  0.24366236  1
  O  O388  1  0.38096487  0.24385550  0.74568784  1
  O  O389  1  0.37959376  0.74636501  0.24268737  1
  O  O390  1  0.38075092  0.73765380  0.75549982  1
  O  O391  1  0.87482463  0.23587063  0.25642512  1
  O  O392  1  0.86883001  0.23957547  0.74065347  1
  O  O393  1  0.87770015  0.74292700  0.24380693  1
  O  O394  1  0.87899862  0.74279937  0.74239949  1
  O  O395  1  0.37492064  0.50446190  0.48189057  1
  O  O396  1  0.36715489  0.50476834  0.98658621  1
  O  O397  1  0.38682417  0.99295500  0.50308838  1
  O  O398  1  0.37092659  0.99635471  1.00054539  1
  O  O399  1  0.89026401  0.50576183  0.49358425  1
  O  O400  1  0.87340347  0.48741577  1.00216137  1
  O  O401  1  0.88475623  0.99821127  0.49974427  1
  O  O402  1  0.88147268  0.99429840  0.99815880  1
  O  O403  1  0.11860822  0.00144358  0.00815882  1
  O  O404  1  0.12042093  0.00508419  0.50528594  1
  O  O405  1  0.13045544  0.50861913  0.01460932  1
  O  O406  1  0.11842556  0.50401379  0.50294972  1
  O  O407  1  0.63041904  -0.00416522  0.01118200  1
  O  O408  1  0.61453294  0.00597897  0.50311691  1
  O  O409  1  0.62455282  0.49693086  0.01053950  1
  O  O410  1  0.62498929  0.50217036  0.51138788  1
  O  O411  1  0.37636285  0.36480114  0.12580870  1
  O  O412  1  0.37617756  0.35833726  0.63576724  1
  O  O413  1  0.37785047  0.86824006  0.10906414  1
  O  O414  1  0.36875366  0.87577473  0.61196170  1
  O  O415  1  0.86365061  0.38152793  0.11935943  1
  O  O416  1  0.86436395  0.36775771  0.63187902  1
  O  O417  1  0.86882023  0.87033705  0.11925815  1
  O  O418  1  0.87232887  0.86143898  0.62366958  1
  O  O419  1  0.13210917  0.13090589  0.38267112  1
  O  O420  1  0.12002213  0.13707065  0.87113512  1
  O  O421  1  0.13243258  0.62479877  0.38232213  1
  O  O422  1  0.12370655  0.63557838  0.88179542  1
  O  O423  1  0.63145642  0.13621970  0.37972448  1
  O  O424  1  0.63155491  0.13311093  0.87086402  1
  O  O425  1  0.63309627  0.63085957  0.37508602  1
  O  O426  1  0.63963042  0.62212744  0.86731677  1
