# generated using pymatgen
data_V85Zn86O256
_symmetry_space_group_name_H-M   'P 1'
_cell_length_a   16.93421933
_cell_length_b   16.94285767
_cell_length_c   16.93793874
_cell_angle_alpha   90.01169976
_cell_angle_beta   89.95634939
_cell_angle_gamma   90.00429229
_symmetry_Int_Tables_number   1
_chemical_formula_structural   V85Zn86O256
_chemical_formula_sum   'V85 Zn86 O256'
_cell_volume   4859.73137758
_cell_formula_units_Z   1
loop_
 _symmetry_equiv_pos_site_id
 _symmetry_equiv_pos_as_xyz
  1  'x, y, z'
loop_
 _atom_site_type_symbol
 _atom_site_label
 _atom_site_symmetry_multiplicity
 _atom_site_fract_x
 _atom_site_fract_y
 _atom_site_fract_z
 _atom_site_occupancy
  V  V0  1  0.49617254  0.13023288  0.12429126  1
  V  V1  1  0.62143202  0.12622614  0.49929156  1
  V  V2  1  -0.00804966  0.25124081  0.25580312  1
  V  V3  1  0.93240368  0.06765627  0.69089738  1
  V  V4  1  0.49034766  0.25023628  0.24864564  1
  V  V5  1  0.24746852  0.74857938  0.50264918  1
  V  V6  1  0.74868050  0.25798342  0.50593950  1
  V  V7  1  -0.00010652  0.74924461  0.25390883  1
  V  V8  1  0.36650400  0.12294201  0.24551711  1
  V  V9  1  0.12312694  0.62036508  0.50087097  1
  V  V10  1  0.74684283  0.74737827  0.48148790  1
  V  V11  1  0.25326843  0.24633903  0.51045918  1
  V  V12  1  0.25383000  0.36635258  0.12612187  1
  V  V13  1  0.76549636  0.61881540  0.87543892  1
  V  V14  1  0.76389696  0.50332722  0.74233755  1
  V  V15  1  0.63105560  0.87416432  0.24994935  1
  V  V16  1  0.36647263  0.13004824  0.74990054  1
  V  V17  1  0.62471134  0.50432419  0.12796069  1
  V  V18  1  0.12696820  0.62292111  -0.00090705  1
  V  V19  1  -0.00517369  0.62213078  0.63072365  1
  V  V20  1  0.12695254  0.49930664  0.12555775  1
  V  V21  1  0.24291890  -0.00600547  0.74277984  1
  V  V22  1  -0.00009639  0.88013923  0.37816909  1
  V  V23  1  0.37896357  0.50072554  0.86849941  1
  V  V24  1  0.12217393  0.25107314  0.37927206  1
  V  V25  1  0.49238445  0.74602244  0.75108146  1
  V  V26  1  0.50119223  0.62116955  0.63030846  1
  V  V27  1  0.74738014  0.37732152  0.12326154  1
  V  V28  1  0.81377142  0.06843553  0.20676963  1
  V  V29  1  0.62661042  0.62625707  -0.00101634  1
  V  V30  1  0.25079774  0.87878836  0.13528140  1
  V  V31  1  0.62673468  0.75047443  0.87506343  1
  V  V32  1  0.13394606  0.24835887  0.88067239  1
  V  V33  1  0.74868674  0.87099732  0.62235380  1
  V  V34  1  0.50222071  -0.00036322  0.00223849  1
  V  V35  1  0.87398279  0.87639503  0.50048442  1
  V  V36  1  0.00248640  0.49100310  0.49648728  1
  V  V37  1  0.24853878  0.61903564  0.37127566  1
  V  V38  1  0.37548354  0.87640035  0.00368336  1
  V  V39  1  0.86997074  0.74412455  0.63107434  1
  V  V40  1  0.62844743  0.62724833  0.48641463  1
  V  V41  1  0.87673898  0.00644216  0.37931404  1
  V  V42  1  -0.00167587  0.62420716  0.13165313  1
  V  V43  1  0.25556630  0.62512110  0.86992940  1
  V  V44  1  0.37613001  0.37059428  0.00147805  1
  V  V45  1  0.50689529  0.37187375  0.87376161  1
  V  V46  1  0.88011685  0.36862665  0.49582857  1
  V  V47  1  0.36421830  0.00638017  0.87666995  1
  V  V48  1  0.25342854  0.50205025  0.74614205  1
  V  V49  1  0.49926788  0.49659392  0.49408947  1
  V  V50  1  0.87627822  0.87720972  -0.00344323  1
  V  V51  1  0.87292099  0.25166588  0.12856138  1
  V  V52  1  0.49306100  0.12914856  0.62366960  1
  V  V53  1  0.87632653  0.25467412  0.63516009  1
  V  V54  1  0.12115791  0.37532942  0.25366167  1
  V  V55  1  0.62525215  0.37538462  0.25133488  1
  V  V56  1  -0.00313400  0.37933291  0.87279101  1
  V  V57  1  0.37509874  0.87675757  0.50420999  1
  V  V58  1  0.62312181  0.00055922  0.62323784  1
  V  V59  1  0.50430010  0.24870472  0.75177569  1
  V  V60  1  0.62153808  0.12993067  -0.00659383  1
  V  V61  1  0.50064669  0.87673930  0.87590394  1
  V  V62  1  0.62361281  0.87431684  0.74820071  1
  V  V63  1  0.12646494  0.75779862  0.86660431  1
  V  V64  1  0.11117239  0.11604329  0.51492684  1
  V  V65  1  0.43210955  0.68036335  0.30093414  1
  V  V66  1  0.62905154  0.37872988  0.74284545  1
  V  V67  1  0.74907031  0.12865840  0.86575732  1
  V  V68  1  0.12852229  0.00139210  0.13209830  1
  V  V69  1  0.62180888  0.25015322  0.37506316  1
  V  V70  1  0.74882668  0.12434219  0.37365445  1
  V  V71  1  0.12605967  0.37360992  0.74932702  1
  V  V72  1  0.24562275  0.11889312  0.37562929  1
  V  V73  1  0.37650676  -0.00043290  0.37145857  1
  V  V74  1  0.37401172  0.37457868  0.50066052  1
  V  V75  1  0.87655105  0.75771396  0.12703798  1
  V  V76  1  0.75115383  0.75565922  0.00185241  1
  V  V77  1  0.00091006  0.12549937  0.12613314  1
  V  V78  1  -0.01054490  0.50226871  -0.00212956  1
  V  V79  1  0.74486649  0.25482516  -0.00998163  1
  V  V80  1  0.25067371  0.74966691  0.00442794  1
  V  V81  1  0.87418749  0.37989973  -0.00206752  1
  V  V82  1  0.87829156  0.00701930  0.87264896  1
  V  V83  1  0.26256236  0.50109225  0.25185670  1
  V  V84  1  0.49120162  0.62946767  0.12104232  1
  Zn  Zn85  1  0.12571108  0.49522908  0.62572206  1
  Zn  Zn86  1  0.49963081  -0.00472747  0.49844999  1
  Zn  Zn87  1  0.50001440  0.50030979  -0.00275825  1
  Zn  Zn88  1  0.25793020  0.36829747  0.62993347  1
  Zn  Zn89  1  0.63324398  0.50015673  0.62147810  1
  Zn  Zn90  1  0.50459700  0.85833056  0.36938290  1
  Zn  Zn91  1  0.79513701  0.57972696  0.30128652  1
  Zn  Zn92  1  0.75059143  0.00340386  0.74670550  1
  Zn  Zn93  1  0.12773065  0.88048004  0.25682556  1
  Zn  Zn94  1  0.23615638  0.87184669  0.62661018  1
  Zn  Zn95  1  0.25895977  0.24133347  0.00174167  1
  Zn  Zn96  1  0.49100827  0.37878567  0.37095833  1
  Zn  Zn97  1  -0.00059154  0.75177656  0.74763343  1
  Zn  Zn98  1  0.64083555  -0.00033693  0.12951812  1
  Zn  Zn99  1  0.00315386  0.00138457  0.00047579  1
  Zn  Zn100  1  0.00542033  0.88141791  0.86929082  1
  Zn  Zn101  1  0.13625593  0.12138392  0.00004947  1
  Zn  Zn102  1  0.12260508  0.75076356  0.37528471  1
  Zn  Zn103  1  0.37098755  0.74728125  0.63263674  1
  Zn  Zn104  1  -0.00100450  0.24399633  0.75204205  1
  Zn  Zn105  1  0.88235382  0.49095141  0.36920467  1
  Zn  Zn106  1  0.37573587  0.74947874  0.13017584  1
  Zn  Zn107  1  0.18440801  0.18792164  0.18969930  1
  Zn  Zn108  1  0.18462922  0.18419561  0.69141488  1
  Zn  Zn109  1  0.18494968  0.68911342  0.19009050  1
  Zn  Zn110  1  0.18739335  0.68328884  0.68540621  1
  Zn  Zn111  1  0.67707790  0.19457454  0.17991770  1
  Zn  Zn112  1  0.68341740  0.19274252  0.68491166  1
  Zn  Zn113  1  0.68307080  0.70182332  0.19253045  1
  Zn  Zn114  1  0.68551930  0.68349194  0.68746702  1
  Zn  Zn115  1  0.30901619  0.31113492  0.31905494  1
  Zn  Zn116  1  0.31696415  0.31377153  0.81105132  1
  Zn  Zn117  1  0.30686115  0.81593274  0.32121460  1
  Zn  Zn118  1  0.31247755  0.81710133  0.81599649  1
  Zn  Zn119  1  0.80670981  0.32294656  0.31652531  1
  Zn  Zn120  1  0.81178522  0.32071303  0.81241476  1
  Zn  Zn121  1  0.81341145  0.81857747  0.30688190  1
  Zn  Zn122  1  0.81405538  0.81658058  0.81081296  1
  Zn  Zn123  1  0.19039914  0.43468482  0.43771819  1
  Zn  Zn124  1  0.18816338  0.43586974  0.93753607  1
  Zn  Zn125  1  0.18506234  0.93850017  0.44538142  1
  Zn  Zn126  1  0.18940112  0.93996639  0.94557992  1
  Zn  Zn127  1  0.69150773  0.44435678  0.43181604  1
  Zn  Zn128  1  0.68627548  0.44305061  0.93425611  1
  Zn  Zn129  1  0.68617352  0.93751117  0.43018514  1
  Zn  Zn130  1  0.68938167  0.94087411  0.93764558  1
  Zn  Zn131  1  0.31127961  0.06336342  0.06489847  1
  Zn  Zn132  1  0.31009106  0.06336477  0.56224790  1
  Zn  Zn133  1  0.31300338  0.55596703  0.05979410  1
  Zn  Zn134  1  0.31734690  0.56004123  0.56274373  1
  Zn  Zn135  1  0.81747518  0.07187938  0.04187767  1
  Zn  Zn136  1  0.80660561  0.06237858  0.55693749  1
  Zn  Zn137  1  0.79819543  0.58157447  0.10844276  1
  Zn  Zn138  1  0.81742746  0.56461629  0.54431551  1
  Zn  Zn139  1  0.43965763  0.43960628  0.18389752  1
  Zn  Zn140  1  0.43884854  0.43571199  0.68198092  1
  Zn  Zn141  1  0.44239820  0.93779223  0.19075747  1
  Zn  Zn142  1  0.43435418  0.93951937  0.68751430  1
  Zn  Zn143  1  0.93448546  0.43879129  0.19050782  1
  Zn  Zn144  1  0.93751216  0.43428644  0.68213540  1
  Zn  Zn145  1  0.94323515  0.93426671  0.18755905  1
  Zn  Zn146  1  1.06356021  0.92721651  0.69043002  1
  Zn  Zn147  1  0.05890793  0.06610228  0.31289329  1
  Zn  Zn148  1  0.06808077  0.06518114  0.81916575  1
  Zn  Zn149  1  0.05965246  0.55933635  0.31286733  1
  Zn  Zn150  1  0.06540324  0.56309137  0.81259276  1
  Zn  Zn151  1  0.56146025  0.05440197  0.30825502  1
  Zn  Zn152  1  0.56082201  0.06274410  0.81191716  1
  Zn  Zn153  1  0.56921110  0.55785772  0.31304617  1
  Zn  Zn154  1  0.56755043  0.56179116  0.81091146  1
  Zn  Zn155  1  0.43389506  0.18836181  0.43563332  1
  Zn  Zn156  1  0.43650346  0.18910352  0.93241958  1
  Zn  Zn157  1  0.43171565  0.68017269  0.46217411  1
  Zn  Zn158  1  0.43684421  0.68787017  0.93814087  1
  Zn  Zn159  1  0.93621279  0.18802479  0.43822894  1
  Zn  Zn160  1  0.93904536  0.19310487  0.93851910  1
  Zn  Zn161  1  0.92972204  0.68230506  0.43362552  1
  Zn  Zn162  1  0.94142335  0.68917779  0.94066618  1
  Zn  Zn163  1  0.06202971  0.31393129  0.06426916  1
  Zn  Zn164  1  0.06190088  0.30421851  0.56712023  1
  Zn  Zn165  1  0.06396791  0.81539694  0.05988320  1
  Zn  Zn166  1  0.05781518  0.80755229  0.55944028  1
  Zn  Zn167  1  0.56001053  0.31195689  0.06106302  1
  Zn  Zn168  1  0.55959658  0.31296409  0.56532114  1
  Zn  Zn169  1  0.56524473  0.81488115  0.07430862  1
  Zn  Zn170  1  0.56067346  0.80847114  0.55930150  1
  O  O171  1  0.11782119  0.12001637  0.12414403  1
  O  O172  1  0.12197581  0.12872040  0.61479463  1
  O  O173  1  0.11690525  0.62174050  0.11879802  1
  O  O174  1  0.11907953  0.62184480  0.61337065  1
  O  O175  1  0.61532833  0.12236074  0.11220875  1
  O  O176  1  0.61822665  0.11726521  0.62036931  1
  O  O177  1  0.61586021  0.62015797  0.11398968  1
  O  O178  1  0.61369817  0.62374626  0.61793686  1
  O  O179  1  0.37512112  0.37019399  0.39092266  1
  O  O180  1  0.38616181  0.38235786  0.87791361  1
  O  O181  1  0.37456938  0.88419808  0.38363645  1
  O  O182  1  0.38226552  0.88410036  0.88345114  1
  O  O183  1  0.88147258  0.36473812  0.39184998  1
  O  O184  1  0.88585244  0.37363621  0.88373327  1
  O  O185  1  0.87766476  0.88517697  0.38071693  1
  O  O186  1  0.87302744  0.89053694  0.87842984  1
  O  O187  1  0.25732608  0.01243962  0.38043002  1
  O  O188  1  0.26030896  -0.00608976  0.86854388  1
  O  O189  1  0.24667030  0.51081999  0.36883256  1
  O  O190  1  0.25606858  0.50599851  0.86659186  1
  O  O191  1  0.75615374  0.01707035  0.37788801  1
  O  O192  1  0.75704354  0.01104508  0.87208780  1
  O  O193  1  0.76392196  0.47948323  0.35724825  1
  O  O194  1  0.75033296  0.51460012  0.87012939  1
  O  O195  1  0.24449511  0.49287686  0.13250208  1
  O  O196  1  0.25106816  0.49946617  0.63722082  1
  O  O197  1  0.24225694  0.98978814  0.12393282  1
  O  O198  1  0.25444300  0.99769191  0.64048914  1
  O  O199  1  0.73944344  0.48342215  0.11423689  1
  O  O200  1  0.75272013  0.51235148  0.63941974  1
  O  O201  1  0.76088116  1.02061266  0.13041598  1
  O  O202  1  0.74045136  0.99212682  0.62492414  1
  O  O203  1  0.01439616  0.36650482  0.24149390  1
  O  O204  1  0.00741534  0.37551975  0.75733658  1
  O  O205  1  0.00093996  0.86824871  0.26353465  1
  O  O206  1  0.00050584  0.86499406  0.75849664  1
  O  O207  1  0.50632489  0.36790235  0.24762531  1
  O  O208  1  0.50497845  0.36811489  0.75404076  1
  O  O209  1  0.50947354  0.88149160  0.25733108  1
  O  O210  1  0.50469896  0.87011622  0.75545318  1
  O  O211  1  0.49244373  0.13131726  0.24145542  1
  O  O212  1  0.49446572  0.13134197  0.74442518  1
  O  O213  1  0.49692910  0.62148220  0.24318498  1
  O  O214  1  0.50556986  0.63386112  0.74403005  1
  O  O215  1  1.00250259  0.13885741  0.23852914  1
  O  O216  1  0.99479809  0.12484258  0.75136458  1
  O  O217  1  1.00966055  0.63473110  0.24048806  1
  O  O218  1  1.00822244  0.62770204  0.73492581  1
  O  O219  1  0.37568098  0.26578693  -0.00755011  1
  O  O220  1  0.36236105  0.25402137  0.49716086  1
  O  O221  1  0.36282344  0.75602730  -0.00122474  1
  O  O222  1  0.36143584  0.75767479  0.50246217  1
  O  O223  1  0.86557231  0.25788577  0.00818935  1
  O  O224  1  0.86799059  0.25071293  0.50989124  1
  O  O225  1  0.87070428  0.75903004  0.00142117  1
  O  O226  1  0.86314954  0.75796558  0.50679677  1
  O  O227  1  0.13123197  0.24384673  0.49384002  1
  O  O228  1  0.12729087  0.25709343  0.98784835  1
  O  O229  1  0.13350454  0.73840678  0.49711615  1
  O  O230  1  0.13660926  0.74458770  0.99410583  1
  O  O231  1  0.63059047  0.24709892  0.49703747  1
  O  O232  1  0.63261861  0.24325888  1.00122008  1
  O  O233  1  0.63005519  0.73690100  0.49889439  1
  O  O234  1  0.63347564  0.74670956  0.99726266  1
  O  O235  1  0.50141563  0.23856998  0.13080586  1
  O  O236  1  0.50395108  0.23637176  0.63313121  1
  O  O237  1  0.49404273  0.73656746  0.11748941  1
  O  O238  1  0.49931876  0.74329929  0.63545862  1
  O  O239  1  0.99266083  0.24610287  0.13176539  1
  O  O240  1  0.98161745  0.24763941  0.63056922  1
  O  O241  1  0.99793648  0.74649885  0.13139766  1
  O  O242  1  0.98750260  0.73971479  0.62200691  1
  O  O243  1  0.00759004  0.24502478  0.36539106  1
  O  O244  1  0.00768344  0.26350297  0.87413940  1
  O  O245  1  -0.00360321  0.75457822  0.36869469  1
  O  O246  1  0.01990163  0.74293167  0.87541063  1
  O  O247  1  0.50559350  0.25025350  0.36576818  1
  O  O248  1  0.50011496  0.26001434  0.86573532  1
  O  O249  1  0.48548838  0.73501585  0.36808663  1
  O  O250  1  0.50619132  0.75523355  0.87057018  1
  O  O251  1  0.24325981  0.13114300  0.49425485  1
  O  O252  1  0.25030617  0.12925789  1.00102076  1
  O  O253  1  0.24550240  0.62760691  0.49469019  1
  O  O254  1  0.24694871  0.63093511  0.99472193  1
  O  O255  1  0.74104938  0.13479185  0.49175675  1
  O  O256  1  0.73982867  0.13641606  0.98939451  1
  O  O257  1  0.73394669  0.63363476  0.50778008  1
  O  O258  1  0.74412100  0.63200042  0.99394319  1
  O  O259  1  0.25824484  0.37512587  0.00907082  1
  O  O260  1  0.25529821  0.36555623  0.50388205  1
  O  O261  1  0.25557927  0.86724759  0.01086952  1
  O  O262  1  0.25630454  0.86426664  0.49907027  1
  O  O263  1  0.75143777  0.37070126  0.00067005  1
  O  O264  1  0.75533339  0.36192717  0.49819100  1
  O  O265  1  0.76303977  0.86830294  -0.00758632  1
  O  O266  1  0.75093242  0.86641894  0.50262958  1
  O  O267  1  0.12933854  0.49040876  0.24600934  1
  O  O268  1  0.13517299  0.49157516  0.74980833  1
  O  O269  1  0.11903776  0.99937327  0.23760140  1
  O  O270  1  0.13931096  1.00136301  0.75581469  1
  O  O271  1  0.62047534  0.49011741  0.23621466  1
  O  O272  1  0.63402544  0.49418375  0.74609422  1
  O  O273  1  0.62578393  0.99307757  0.24349232  1
  O  O274  1  0.62370323  0.99428182  0.73792260  1
  O  O275  1  0.37556417  0.01185503  0.25784003  1
  O  O276  1  0.36840547  0.00722320  0.75856384  1
  O  O277  1  0.36189259  0.49397262  0.24902891  1
  O  O278  1  0.36946474  0.49331080  0.76032493  1
  O  O279  1  0.87429553  -0.00072344  0.25774918  1
  O  O280  1  0.87056256  0.01102981  0.75587439  1
  O  O281  1  0.88954137  0.51378895  0.25479089  1
  O  O282  1  0.86283127  0.49496489  0.74832109  1
  O  O283  1  0.13183570  0.36076469  0.36781017  1
  O  O284  1  0.12004867  0.36953629  0.86656796  1
  O  O285  1  0.11453288  0.87443784  0.37789228  1
  O  O286  1  0.12924350  0.85997859  0.88349935  1
  O  O287  1  0.62109484  0.36830045  0.36465326  1
  O  O288  1  0.61225102  0.38390043  0.86586662  1
  O  O289  1  0.61896736  0.88080376  0.36236184  1
  O  O290  1  0.62017467  0.87142795  0.87059711  1
  O  O291  1  0.38105981  0.12370810  0.13664937  1
  O  O292  1  0.38365208  0.11868395  0.63512560  1
  O  O293  1  0.38597675  0.62302088  0.11793840  1
  O  O294  1  0.39426430  0.62993185  0.61405958  1
  O  O295  1  0.87655215  0.12910503  0.13341778  1
  O  O296  1  0.87398288  0.12734048  0.62739607  1
  O  O297  1  0.89390377  0.64313548  0.11152912  1
  O  O298  1  0.88329635  0.63224236  0.61506042  1
  O  O299  1  0.24636168  0.26359024  0.12581050  1
  O  O300  1  0.24595663  0.24761313  0.61436268  1
  O  O301  1  0.25166724  0.75473012  0.11839351  1
  O  O302  1  0.25229991  0.74955293  0.61756164  1
  O  O303  1  0.75082473  0.25963352  0.11277796  1
  O  O304  1  0.76201500  0.24106211  0.61667141  1
  O  O305  1  0.76206933  0.75011341  0.10883922  1
  O  O306  1  0.75067447  0.75508735  0.61945829  1
  O  O307  1  0.24123937  0.23873257  0.38419464  1
  O  O308  1  0.23649519  0.26004387  0.87676387  1
  O  O309  1  0.24662199  0.73691614  0.38298990  1
  O  O310  1  0.24495747  0.74414053  0.88071935  1
  O  O311  1  0.74364655  0.24228770  0.38214103  1
  O  O312  1  0.75487418  0.24647114  0.88346378  1
  O  O313  1  0.75702168  0.75064032  0.38270490  1
  O  O314  1  0.74685758  0.74169193  0.88171630  1
  O  O315  1  -0.00091900  0.12940370  0.01654174  1
  O  O316  1  0.01281248  0.12958583  0.49750665  1
  O  O317  1  0.00868135  0.61851952  0.00460521  1
  O  O318  1  0.00878796  0.61675048  0.50714190  1
  O  O319  1  0.50364359  0.12266000  0.00336439  1
  O  O320  1  0.50407651  0.12629790  0.50805955  1
  O  O321  1  0.50831161  0.62322143  0.00348358  1
  O  O322  1  0.51334205  0.61630425  0.50571178  1
  O  O323  1  0.49443148  0.38028943  0.49890292  1
  O  O324  1  0.49544172  0.37788192  0.99163323  1
  O  O325  1  0.49070828  0.87192671  0.49101182  1
  O  O326  1  0.49657909  0.88323592  0.99813019  1
  O  O327  1  0.99442919  0.37875277  0.50945085  1
  O  O328  1  0.99607515  0.38345616  0.99497817  1
  O  O329  1  0.98424870  0.86719052  0.48775421  1
  O  O330  1  0.98864249  0.87360349  0.99065283  1
  O  O331  1  0.50563717  0.49783862  0.38854926  1
  O  O332  1  0.49303252  0.49579413  0.87378461  1
  O  O333  1  0.48273922  1.01018174  0.38097663  1
  O  O334  1  0.49414141  0.99685006  0.88537617  1
  O  O335  1  1.00405044  0.49852398  0.39236247  1
  O  O336  1  1.00815884  0.49014295  0.88396767  1
  O  O337  1  0.98842782  0.99351259  0.37083529  1
  O  O338  1  0.99251561  1.00314801  0.87963977  1
  O  O339  1  0.00502166  0.00942810  0.12454028  1
  O  O340  1  -0.01241178  0.00503319  0.63888179  1
  O  O341  1  0.00738228  0.50870485  0.11818122  1
  O  O342  1  0.00261122  0.50558591  0.61707857  1
  O  O343  1  0.49347071  0.01274350  0.11076997  1
  O  O344  1  0.50618875  0.00895206  0.62287708  1
  O  O345  1  0.50818436  0.50879373  0.12003672  1
  O  O346  1  0.50522612  0.50576743  0.61602437  1
  O  O347  1  0.24254543  0.37911950  0.24555232  1
  O  O348  1  0.24487895  0.38212034  0.74985641  1
  O  O349  1  0.24714332  0.86918752  0.23933179  1
  O  O350  1  0.25610193  0.88950408  0.74689345  1
  O  O351  1  0.73268679  0.36069140  0.23617968  1
  O  O352  1  0.74153157  0.39297186  0.75902687  1
  O  O353  1  0.73466341  0.87584919  0.25252949  1
  O  O354  1  0.74179927  0.87717416  0.73946358  1
  O  O355  1  0.25787429  0.13257325  0.25944510  1
  O  O356  1  0.26006286  0.11505720  0.74804410  1
  O  O357  1  0.24207458  0.61474713  0.25841249  1
  O  O358  1  0.24897402  0.61583888  0.75820301  1
  O  O359  1  0.74785128  0.13660415  0.25549182  1
  O  O360  1  0.73901194  0.12738113  0.76330959  1
  O  O361  1  0.74971373  0.61709104  0.20830901  1
  O  O362  1  0.74553725  0.61586166  0.76552935  1
  O  O363  1  0.36495681  0.12039772  0.36786891  1
  O  O364  1  0.38145680  0.11517035  0.86402296  1
  O  O365  1  0.37135972  0.62812446  0.36767332  1
  O  O366  1  0.36369244  0.61718436  0.88022194  1
  O  O367  1  0.86648562  0.11679920  0.37756495  1
  O  O368  1  0.86469125  0.11667734  0.88603727  1
  O  O369  1  0.85854057  0.60683653  0.39654365  1
  O  O370  1  0.86358563  0.62911147  0.87954792  1
  O  O371  1  0.13318838  0.37983952  0.13242538  1
  O  O372  1  0.12732110  0.37148743  0.63987301  1
  O  O373  1  0.13255243  0.88266261  0.12626681  1
  O  O374  1  0.12432359  0.87849646  0.61130663  1
  O  O375  1  0.62747668  0.38224920  0.12787920  1
  O  O376  1  0.62321780  0.37757893  0.63852063  1
  O  O377  1  0.62368756  0.88598160  0.13564010  1
  O  O378  1  0.63015667  0.88041784  0.62496223  1
  O  O379  1  0.11742615  0.25669336  0.25819679  1
  O  O380  1  0.12298401  0.25542412  0.76181332  1
  O  O381  1  0.11250304  0.75573175  0.25363905  1
  O  O382  1  0.13162205  0.74675895  0.76478490  1
  O  O383  1  0.61043532  0.25614194  0.25234590  1
  O  O384  1  0.61353012  0.25956519  0.74827174  1
  O  O385  1  0.61513514  0.77034062  0.24172037  1
  O  O386  1  0.61723056  0.75550618  0.75666832  1
  O  O387  1  0.38461164  0.24350572  0.25660789  1
  O  O388  1  0.38566934  0.23965050  0.75489230  1
  O  O389  1  0.37174825  0.74583642  0.24997679  1
  O  O390  1  0.38822508  0.75496597  0.75345155  1
  O  O391  1  0.88415613  0.26257655  0.24510479  1
  O  O392  1  0.87184671  0.25335240  0.73885449  1
  O  O393  1  0.88696843  0.75641836  0.23942353  1
  O  O394  1  0.87031699  0.75072920  0.73436916  1
  O  O395  1  0.38658973  0.49087882  0.50155738  1
  O  O396  1  0.37512713  0.48958588  0.98497834  1
  O  O397  1  0.37374409  0.99192689  0.49421684  1
  O  O398  1  0.38157588  0.99685801  0.99270549  1
  O  O399  1  0.88540146  0.48184107  0.50585254  1
  O  O400  1  0.88767616  0.49822242  1.00826633  1
  O  O401  1  0.86719578  0.98841330  0.49119380  1
  O  O402  1  0.87974974  0.99296108  0.99120481  1
  O  O403  1  0.12108909  0.00218957  0.01286699  1
  O  O404  1  0.12577965  0.01799722  0.49794461  1
  O  O405  1  0.12077520  0.50430136  0.00642587  1
  O  O406  1  0.12200110  0.50262648  0.50475937  1
  O  O407  1  0.61804532  0.00772739  0.00372472  1
  O  O408  1  0.62305136  0.00512849  0.50953559  1
  O  O409  1  0.62389261  0.50983926  0.00786368  1
  O  O410  1  0.62370994  0.50854216  0.50185531  1
  O  O411  1  0.36742099  0.38208762  0.11397794  1
  O  O412  1  0.37446643  0.37371427  0.61029706  1
  O  O413  1  0.36847404  0.87526092  0.12050308  1
  O  O414  1  0.37454275  0.87283442  0.61290718  1
  O  O415  1  0.86534226  0.37211831  0.11930040  1
  O  O416  1  0.87273234  0.35957990  0.61749701  1
  O  O417  1  0.88339443  0.86549230  0.11425770  1
  O  O418  1  0.85767447  0.86734352  0.61401213  1
  O  O419  1  0.13064343  0.13403591  0.37674125  1
  O  O420  1  0.11958565  0.14470718  0.88158409  1
  O  O421  1  0.13115424  0.62379933  0.38614081  1
  O  O422  1  0.13838055  0.63079350  0.88045800  1
  O  O423  1  0.62930524  0.12976511  0.37909473  1
  O  O424  1  0.63016839  0.11969760  0.88652408  1
  O  O425  1  0.62857941  0.62200024  0.38662594  1
  O  O426  1  0.62952730  0.63038544  0.88661622  1
