# generated using pymatgen
data_V85Zn86O256
_symmetry_space_group_name_H-M   'P 1'
_cell_length_a   16.92836918
_cell_length_b   16.92387565
_cell_length_c   16.92674909
_cell_angle_alpha   90.00656991
_cell_angle_beta   89.92613754
_cell_angle_gamma   89.96283028
_symmetry_Int_Tables_number   1
_chemical_formula_structural   V85Zn86O256
_chemical_formula_sum   'V85 Zn86 O256'
_cell_volume   4849.40045488
_cell_formula_units_Z   1
loop_
 _symmetry_equiv_pos_site_id
 _symmetry_equiv_pos_as_xyz
  1  'x, y, z'
loop_
 _atom_site_type_symbol
 _atom_site_label
 _atom_site_symmetry_multiplicity
 _atom_site_fract_x
 _atom_site_fract_y
 _atom_site_fract_z
 _atom_site_occupancy
  V  V0  1  0.37465741  -0.00077334  0.37367136  1
  V  V1  1  0.12339033  0.37858006  0.73894423  1
  V  V2  1  0.74831079  0.12950380  0.37407695  1
  V  V3  1  0.62306001  0.74996234  0.87669297  1
  V  V4  1  0.12627952  0.49530408  0.12462707  1
  V  V5  1  0.24870653  0.75160545  0.49985980  1
  V  V6  1  0.62269839  0.00625031  0.12488568  1
  V  V7  1  0.74917265  0.75307182  -0.00018622  1
  V  V8  1  0.74984600  0.88219147  0.12519046  1
  V  V9  1  0.25048024  0.49196126  0.24801862  1
  V  V10  1  0.12246926  0.87505529  0.25581806  1
  V  V11  1  -0.00131553  0.75312207  0.25871631  1
  V  V12  1  0.24798503  0.12950881  0.37442270  1
  V  V13  1  0.12749220  0.25229510  0.87369140  1
  V  V14  1  0.62195658  0.37804064  0.24945552  1
  V  V15  1  0.24972012  0.62463328  0.37362213  1
  V  V16  1  0.74784228  0.61863475  0.37645315  1
  V  V17  1  0.00468680  -0.00103032  0.51611243  1
  V  V18  1  0.50482305  0.24731370  0.75567815  1
  V  V19  1  0.25855973  0.37410782  0.61254255  1
  V  V20  1  0.00164206  0.13749140  0.12861087  1
  V  V21  1  0.74668431  0.13780375  0.87192592  1
  V  V22  1  0.62179469  0.74942045  0.37599892  1
  V  V23  1  0.25271811  -0.00889411  0.24397698  1
  V  V24  1  0.23845547  0.00159022  0.74281864  1
  V  V25  1  0.11959140  0.24617406  0.37453185  1
  V  V26  1  0.49161421  0.12252620  0.63135639  1
  V  V27  1  0.75352670  0.00182732  0.25047492  1
  V  V28  1  0.37209198  0.25384360  0.12743072  1
  V  V29  1  0.49839576  0.87514853  0.87619627  1
  V  V30  1  0.88694428  -0.00071899  0.37214410  1
  V  V31  1  0.87301773  0.49624613  0.88291386  1
  V  V32  1  0.12115598  0.62340253  0.00077108  1
  V  V33  1  0.87594695  0.74810794  0.62400500  1
  V  V34  1  0.88000103  0.87375714  0.49349652  1
  V  V35  1  0.12840680  -0.00679361  0.12231125  1
  V  V36  1  0.24985627  0.62511980  0.87393638  1
  V  V37  1  0.23714577  0.88037758  0.62858604  1
  V  V38  1  0.24700710  0.75467506  0.00874093  1
  V  V39  1  0.50112300  0.74702362  0.23924609  1
  V  V40  1  0.37810081  0.62193572  0.24185420  1
  V  V41  1  0.61909654  0.62413140  0.01355628  1
  V  V42  1  0.62532654  -0.00247314  0.62337038  1
  V  V43  1  -0.00291018  0.37148268  0.37091341  1
  V  V44  1  0.75060241  0.00153327  0.75245587  1
  V  V45  1  0.62035735  0.61811909  0.50247530  1
  V  V46  1  0.12404781  0.36606441  0.24520071  1
  V  V47  1  0.87418248  0.50019654  0.37332001  1
  V  V48  1  0.12168196  0.12721290  0.51407612  1
  V  V49  1  0.62501996  0.48743586  0.63097548  1
  V  V50  1  0.37473631  0.75072966  0.62733430  1
  V  V51  1  0.62366085  0.87271406  0.75033798  1
  V  V52  1  0.74901119  0.25060496  0.50977077  1
  V  V53  1  0.12589651  0.61800582  0.50377548  1
  V  V54  1  0.00267295  0.87701236  0.87457577  1
  V  V55  1  0.00253974  0.61512432  0.62669845  1
  V  V56  1  0.50132141  0.50177606  0.01636809  1
  V  V57  1  0.51409676  0.37613202  0.87156717  1
  V  V58  1  -0.00261609  0.37500952  0.87878067  1
  V  V59  1  0.37573609  0.00380862  0.86574004  1
  V  V60  1  0.74431663  0.50260356  0.23851449  1
  V  V61  1  0.49811174  0.00790898  0.00343734  1
  V  V62  1  0.62404552  0.13727130  -0.00295522  1
  V  V63  1  0.74830564  0.62607954  0.87234310  1
  V  V64  1  0.76181583  0.36377453  0.12427344  1
  V  V65  1  0.49887018  0.61815677  0.62541151  1
  V  V66  1  0.24640021  0.49956432  0.74501871  1
  V  V67  1  0.87768324  0.75220095  0.12497169  1
  V  V68  1  0.50679777  0.24251033  0.25369385  1
  V  V69  1  0.86841642  0.37617770  0.50648632  1
  V  V70  1  0.37271188  0.87763580  0.50140178  1
  V  V71  1  0.37608190  0.12350237  0.24116580  1
  V  V72  1  0.00180444  0.75463024  0.74781976  1
  V  V73  1  0.36947948  0.87781406  0.00647622  1
  V  V74  1  0.50069720  -0.00208346  0.49879335  1
  V  V75  1  0.38153879  0.49245961  0.38618696  1
  V  V76  1  0.12607492  0.75252925  0.86986906  1
  V  V77  1  0.75030244  0.87205504  0.62370980  1
  V  V78  1  0.88125499  0.14212322  0.25112755  1
  V  V79  1  0.74675718  0.48655886  0.74910470  1
  V  V80  1  0.25640925  0.12970686  0.87130573  1
  V  V81  1  0.62410517  0.12720328  0.49682611  1
  V  V82  1  -0.00147916  0.00229152  0.00200170  1
  V  V83  1  0.37653535  0.49771615  0.87492570  1
  V  V84  1  0.36940932  0.37619951  0.00421034  1
  Zn  Zn85  1  0.87529741  0.00106072  0.87302763  1
  Zn  Zn86  1  0.49977968  0.87272091  0.37416664  1
  Zn  Zn87  1  0.25080763  0.25245133  0.00426696  1
  Zn  Zn88  1  -0.00784188  0.49674985  0.00602007  1
  Zn  Zn89  1  0.62322939  0.87711206  0.25248003  1
  Zn  Zn90  1  0.87486126  0.62261780  0.74969185  1
  Zn  Zn91  1  0.37483940  0.25489896  0.61933118  1
  Zn  Zn92  1  0.00169564  0.49754870  0.50164012  1
  Zn  Zn93  1  0.75023265  0.74917121  0.49895658  1
  Zn  Zn94  1  0.12241700  0.75351505  0.37664877  1
  Zn  Zn95  1  0.87606289  0.62628033  0.24992040  1
  Zn  Zn96  1  0.49614445  0.36564936  0.38435834  1
  Zn  Zn97  1  0.77014455  0.26603910  -0.00862844  1
  Zn  Zn98  1  0.87419738  0.87958888  -0.00124789  1
  Zn  Zn99  1  0.12848967  0.12678426  -0.00031865  1
  Zn  Zn100  1  -0.00033699  0.62517502  0.12773431  1
  Zn  Zn101  1  0.88393802  0.24107017  0.62320311  1
  Zn  Zn102  1  0.37557428  0.62479547  0.75122114  1
  Zn  Zn103  1  0.88197377  0.12525268  0.74161286  1
  Zn  Zn104  1  0.00259216  0.23976465  0.73964762  1
  Zn  Zn105  1  0.37417313  0.74985312  0.12443115  1
  Zn  Zn106  1  0.49786675  0.74807586  0.75200382  1
  Zn  Zn107  1  0.18862311  0.18386651  0.18687813  1
  Zn  Zn108  1  0.19276215  0.19226695  0.69184991  1
  Zn  Zn109  1  0.18556600  0.68496597  0.18855197  1
  Zn  Zn110  1  0.18732069  0.68763428  0.68653133  1
  Zn  Zn111  1  0.68940301  0.18686735  0.18446484  1
  Zn  Zn112  1  0.68177460  0.18918031  0.68778009  1
  Zn  Zn113  1  0.69056717  0.69173816  0.19005136  1
  Zn  Zn114  1  0.68612354  0.68562654  0.68846061  1
  Zn  Zn115  1  0.31152709  0.31135303  0.31574345  1
  Zn  Zn116  1  0.31869723  0.31325400  0.80580942  1
  Zn  Zn117  1  0.31348436  0.81135488  0.31147647  1
  Zn  Zn118  1  0.31042003  0.81736989  0.81316684  1
  Zn  Zn119  1  0.80250504  0.31636127  0.31786817  1
  Zn  Zn120  1  0.81648479  0.31072340  0.80836246  1
  Zn  Zn121  1  0.80961835  0.81238472  0.31287697  1
  Zn  Zn122  1  0.81572109  0.81393504  0.81205057  1
  Zn  Zn123  1  0.18690219  0.43813379  0.43337173  1
  Zn  Zn124  1  0.18716001  0.43681853  0.93467164  1
  Zn  Zn125  1  0.18748830  0.94280972  0.43759826  1
  Zn  Zn126  1  0.18718710  0.93911970  0.93346893  1
  Zn  Zn127  1  0.65175480  0.41165314  0.45760224  1
  Zn  Zn128  1  0.68773144  0.44247887  0.94603010  1
  Zn  Zn129  1  0.69239074  0.93801140  0.43565731  1
  Zn  Zn130  1  0.68599803  0.94240746  0.93887637  1
  Zn  Zn131  1  0.31120232  0.06576475  0.05959065  1
  Zn  Zn132  1  0.32074716  0.09066468  0.55123751  1
  Zn  Zn133  1  0.30801507  0.56082245  0.06226522  1
  Zn  Zn134  1  0.31100864  0.56115012  0.56431308  1
  Zn  Zn135  1  0.83596984  0.10766030  0.04073583  1
  Zn  Zn136  1  0.81334313  0.06107665  0.56249583  1
  Zn  Zn137  1  0.80879721  0.56742983  0.06210724  1
  Zn  Zn138  1  0.80939223  0.56070225  0.56272962  1
  Zn  Zn139  1  0.43626579  0.43110076  0.19291097  1
  Zn  Zn140  1  0.43634165  0.43536383  0.68902822  1
  Zn  Zn141  1  0.44097882  0.93434763  0.18612888  1
  Zn  Zn142  1  0.43545972  0.93684449  0.68650098  1
  Zn  Zn143  1  0.93824716  0.43675301  0.18987368  1
  Zn  Zn144  1  0.93408212  0.43012369  0.69170273  1
  Zn  Zn145  1  0.93949376  0.93905081  0.18692532  1
  Zn  Zn146  1  0.93680461  0.93554023  0.68801155  1
  Zn  Zn147  1  0.06241978  0.06143624  0.30948841  1
  Zn  Zn148  1  0.06729876  0.06388603  0.81266800  1
  Zn  Zn149  1  0.06192748  0.56271959  0.31119705  1
  Zn  Zn150  1  0.06059191  0.56175837  0.81245771  1
  Zn  Zn151  1  0.56244456  0.06310956  0.31207508  1
  Zn  Zn152  1  0.56500930  0.06347733  0.81432358  1
  Zn  Zn153  1  0.56127433  0.56150069  0.30910880  1
  Zn  Zn154  1  0.56182850  0.56304454  0.81400885  1
  Zn  Zn155  1  0.43332270  0.18747187  0.43841959  1
  Zn  Zn156  1  0.43857929  0.19057764  0.93629253  1
  Zn  Zn157  1  0.43702343  0.68260359  0.43685862  1
  Zn  Zn158  1  0.43664524  0.68606261  0.94111977  1
  Zn  Zn159  1  0.93840086  0.18653610  0.44205229  1
  Zn  Zn160  1  0.94006041  0.18584069  0.92336272  1
  Zn  Zn161  1  0.93824803  0.68455913  0.43808715  1
  Zn  Zn162  1  0.93582003  0.68667075  0.93748766  1
  Zn  Zn163  1  0.06382627  0.31427036  0.05721676  1
  Zn  Zn164  1  0.06535471  0.31403772  0.55716057  1
  Zn  Zn165  1  0.06229838  0.81518389  0.06422475  1
  Zn  Zn166  1  0.06117779  0.81027777  0.55864765  1
  Zn  Zn167  1  0.55933752  0.31680669  0.07108387  1
  Zn  Zn168  1  0.55786030  0.30660321  0.56466947  1
  Zn  Zn169  1  0.56256630  0.81805043  0.06198030  1
  Zn  Zn170  1  0.56006985  0.80796186  0.56089436  1
  O  O171  1  0.11626009  0.11393639  0.12653325  1
  O  O172  1  0.13298562  0.13114367  0.61184489  1
  O  O173  1  0.12372500  0.61739264  0.11687373  1
  O  O174  1  0.11601504  0.63028849  0.61595630  1
  O  O175  1  0.63296087  0.11178027  0.11631621  1
  O  O176  1  0.61879878  0.11382878  0.61785202  1
  O  O177  1  0.63134272  0.63293661  0.11206860  1
  O  O178  1  0.61576774  0.62410052  0.61964100  1
  O  O179  1  0.37465713  0.38696479  0.37584027  1
  O  O180  1  0.38067215  0.38605546  0.88167081  1
  O  O181  1  0.37402070  0.88155295  0.38300608  1
  O  O182  1  0.38010989  0.88197409  0.88467297  1
  O  O183  1  0.87986666  0.38193445  0.37779563  1
  O  O184  1  0.88360665  0.38368925  0.87213064  1
  O  O185  1  0.86845525  0.88212035  0.38644189  1
  O  O186  1  0.88825301  0.87766466  0.87742746  1
  O  O187  1  0.25590728  0.00572815  0.36399100  1
  O  O188  1  0.25694018  0.00649623  0.86681309  1
  O  O189  1  0.25700540  0.50571079  0.36719876  1
  O  O190  1  0.25795776  0.50598641  0.86950705  1
  O  O191  1  0.76162653  0.00908838  0.37145915  1
  O  O192  1  0.74903729  0.00298738  0.86453639  1
  O  O193  1  0.75463722  0.51134990  0.36525255  1
  O  O194  1  0.75236892  0.50701703  0.86945060  1
  O  O195  1  0.23681219  0.50299907  0.13420823  1
  O  O196  1  0.25404086  0.49122881  0.63568649  1
  O  O197  1  0.24167606  1.00644626  0.13192366  1
  O  O198  1  0.25570339  0.99662975  0.63839913  1
  O  O199  1  0.75412686  0.49727726  0.13573498  1
  O  O200  1  0.74317317  0.50761455  0.64261736  1
  O  O201  1  0.74564275  0.98979748  0.12898187  1
  O  O202  1  0.74161132  0.99160389  0.62949954  1
  O  O203  1  0.00900654  0.37851508  0.26235145  1
  O  O204  1  0.01180250  0.38340196  0.76189537  1
  O  O205  1  0.01017500  0.86755531  0.24635799  1
  O  O206  1  -0.00194829  0.86291402  0.75652557  1
  O  O207  1  0.50631470  0.36384454  0.25654915  1
  O  O208  1  0.50001369  0.37384909  0.76644313  1
  O  O209  1  0.50180855  0.86397681  0.25456247  1
  O  O210  1  0.50532558  0.87314151  0.75815117  1
  O  O211  1  0.49173184  0.13333831  0.25231894  1
  O  O212  1  0.50729776  0.13620509  0.74640003  1
  O  O213  1  0.48961489  0.63309962  0.25305884  1
  O  O214  1  0.49626745  0.62871210  0.74264331  1
  O  O215  1  0.99638756  0.12446705  0.23873358  1
  O  O216  1  0.99575982  0.12749114  0.76198375  1
  O  O217  1  0.99821048  0.63581666  0.24735644  1
  O  O218  1  0.99946088  0.63521533  0.74355069  1
  O  O219  1  0.37813718  0.25867712  0.00934450  1
  O  O220  1  0.36079759  0.19852265  0.52046311  1
  O  O221  1  0.36504894  0.75754659  0.00039728  1
  O  O222  1  0.36939906  0.75455839  0.50868325  1
  O  O223  1  0.86831876  0.21387799  0.00393987  1
  O  O224  1  0.86674845  0.25836380  0.49946056  1
  O  O225  1  0.86797782  0.75278468  0.00764227  1
  O  O226  1  0.87641567  0.75811378  0.50394422  1
  O  O227  1  0.12234267  0.23458559  0.49085350  1
  O  O228  1  0.13224443  0.25229293  0.98668586  1
  O  O229  1  0.13077488  0.74020558  0.49538334  1
  O  O230  1  0.12898922  0.74506959  0.99242878  1
  O  O231  1  0.63150968  0.23275345  0.50399950  1
  O  O232  1  0.62151651  0.23759010  1.01046178  1
  O  O233  1  0.62645650  0.73933057  0.49249944  1
  O  O234  1  0.62906678  0.74752798  0.99458258  1
  O  O235  1  0.48596193  0.25315037  0.14227627  1
  O  O236  1  0.49567722  0.23818140  0.63016154  1
  O  O237  1  0.49914841  0.75376108  0.13548273  1
  O  O238  1  0.49022524  0.74094294  0.62641249  1
  O  O239  1  1.00926818  0.23583849  0.12220526  1
  O  O240  1  0.99452977  0.27415018  0.63091905  1
  O  O241  1  0.99184014  0.75073187  0.13244074  1
  O  O242  1  0.99586326  0.74458563  0.63195219  1
  O  O243  1  0.01036853  0.25587544  0.37768751  1
  O  O244  1  0.01144912  0.25956032  0.87194319  1
  O  O245  1  0.00066134  0.74787685  0.36300414  1
  O  O246  1  0.00587160  0.75431531  0.86859860  1
  O  O247  1  0.48953621  0.24815039  0.35990321  1
  O  O248  1  0.49776832  0.26334043  0.86730491  1
  O  O249  1  0.51028134  0.74712767  0.36943041  1
  O  O250  1  0.50363887  0.75762104  0.87629137  1
  O  O251  1  0.22721513  0.10552988  0.48365059  1
  O  O252  1  0.24854609  0.12833443  0.98604897  1
  O  O253  1  0.24440757  0.62948924  0.49452964  1
  O  O254  1  0.23972665  0.63217613  0.99389567  1
  O  O255  1  0.74309243  0.12645040  0.49242740  1
  O  O256  1  0.73591500  0.11689275  0.98490516  1
  O  O257  1  0.74429409  0.62884306  0.49138961  1
  O  O258  1  0.74130997  0.63171410  0.98988549  1
  O  O259  1  0.26527053  0.37503002  -0.00559040  1
  O  O260  1  0.24167364  0.37949840  0.51467306  1
  O  O261  1  0.25731151  0.86695214  -0.00816055  1
  O  O262  1  0.25474024  0.87383105  0.50657449  1
  O  O263  1  0.74550925  0.37645989  0.01817260  1
  O  O264  1  0.75436340  0.36082886  0.48814953  1
  O  O265  1  0.75165066  0.87204362  0.00727044  1
  O  O266  1  0.75980691  0.87229651  0.50620193  1
  O  O267  1  0.13081220  0.49119688  0.24474357  1
  O  O268  1  0.13746612  0.49407005  0.75746323  1
  O  O269  1  0.13251978  0.99322352  0.24377569  1
  O  O270  1  0.14026366  0.99615334  0.75411010  1
  O  O271  1  0.63257029  0.49358912  0.25047746  1
  O  O272  1  0.63815897  0.50743246  0.74601614  1
  O  O273  1  0.63219466  1.00083017  0.24192486  1
  O  O274  1  0.63201870  0.99246867  0.74388721  1
  O  O275  1  0.37069268  0.00353040  0.25110788  1
  O  O276  1  0.37058345  -0.00633435  0.76376818  1
  O  O277  1  0.36621539  0.50403965  0.25440740  1
  O  O278  1  0.36588593  0.50034546  0.75952368  1
  O  O279  1  0.87154689  0.00344614  0.25782984  1
  O  O280  1  0.85896106  -0.00512792  0.74880157  1
  O  O281  1  0.86727599  0.50245286  0.25987450  1
  O  O282  1  0.86129821  0.50191232  0.75885831  1
  O  O283  1  0.11819122  0.36654975  0.37012338  1
  O  O284  1  0.12177757  0.37035752  0.86655364  1
  O  O285  1  0.13204144  0.87423925  0.36054063  1
  O  O286  1  0.11325177  0.86520004  0.87959395  1
  O  O287  1  0.63670029  0.36784535  0.35086426  1
  O  O288  1  0.61187429  0.38017590  0.88277304  1
  O  O289  1  0.62570678  0.86321969  0.37549782  1
  O  O290  1  0.61827016  0.86971671  0.87272452  1
  O  O291  1  0.37396258  0.12767529  0.13649681  1
  O  O292  1  0.39411355  0.10160564  0.64114338  1
  O  O293  1  0.36665766  0.62634590  0.13830092  1
  O  O294  1  0.38118223  0.63202903  0.62536516  1
  O  O295  1  0.89438649  0.11711548  0.13903986  1
  O  O296  1  0.87265046  0.12599225  0.62673433  1
  O  O297  1  0.87363025  0.64031181  0.12668970  1
  O  O298  1  0.88229501  0.63299818  0.62398390  1
  O  O299  1  0.26474071  0.24246705  0.12393319  1
  O  O300  1  0.25351775  0.27052490  0.63337705  1
  O  O301  1  0.24784446  0.74769404  0.11156903  1
  O  O302  1  0.25668819  0.75693865  0.62015353  1
  O  O303  1  0.75430731  0.26091043  0.12524881  1
  O  O304  1  0.74948496  0.24600536  0.61204778  1
  O  O305  1  0.75590044  0.76306189  0.12233462  1
  O  O306  1  0.75805322  0.75372733  0.62439972  1
  O  O307  1  0.24068091  0.23668049  0.37071417  1
  O  O308  1  0.24860236  0.24431716  0.87071198  1
  O  O309  1  0.25065205  0.74089526  0.38105926  1
  O  O310  1  0.24244032  0.74571462  0.87981610  1
  O  O311  1  0.75357666  0.23369364  0.38342068  1
  O  O312  1  0.74807347  0.24218593  0.87570495  1
  O  O313  1  0.73834857  0.73798897  0.37190359  1
  O  O314  1  0.74591323  0.74553932  0.88011575  1
  O  O315  1  0.00768895  0.11772711  0.00964676  1
  O  O316  1  0.01175029  0.11312752  0.49819720  1
  O  O317  1  0.01181446  0.62437015  0.00150597  1
  O  O318  1  0.00772943  0.62344862  0.50821519  1
  O  O319  1  0.50591710  0.11439527  -0.00590936  1
  O  O320  1  0.50864843  0.11563978  0.50760416  1
  O  O321  1  0.50687079  0.61556682  -0.00132016  1
  O  O322  1  0.50892457  0.62682053  0.50957482  1
  O  O323  1  0.54251843  0.38111052  0.48461021  1
  O  O324  1  0.49215689  0.38166661  0.99273542  1
  O  O325  1  0.49181101  0.88056431  0.49864087  1
  O  O326  1  0.49309835  0.88552193  0.99367844  1
  O  O327  1  0.99167808  0.37942233  0.48632932  1
  O  O328  1  1.00575886  0.38080671  0.98463518  1
  O  O329  1  0.99433174  0.88698138  0.50069069  1
  O  O330  1  0.99807112  0.88266306  0.99375451  1
  O  O331  1  0.48273557  0.50038462  0.36842007  1
  O  O332  1  0.49355527  0.49171273  0.88017929  1
  O  O333  1  0.49245763  0.99802201  0.38011401  1
  O  O334  1  0.49331501  0.99532348  0.88102493  1
  O  O335  1  0.99017684  0.49446818  0.37495360  1
  O  O336  1  0.98871958  0.49651163  0.87642887  1
  O  O337  1  0.98952664  1.00197702  0.37916021  1
  O  O338  1  1.00369480  0.99142443  0.88339705  1
  O  O339  1  0.00888966  0.00394787  0.11812206  1
  O  O340  1  0.00091718  -0.00356661  0.61460961  1
  O  O341  1  0.01021708  0.50292316  0.12496871  1
  O  O342  1  -0.00703555  0.51248511  0.62652184  1
  O  O343  1  0.50943027  -0.00353081  0.11588172  1
  O  O344  1  0.51008383  -0.00108063  0.62047097  1
  O  O345  1  0.49437493  0.49436982  0.11544293  1
  O  O346  1  0.50732049  0.51104719  0.63405655  1
  O  O347  1  0.24106485  0.38516208  0.25630798  1
  O  O348  1  0.24400746  0.38461739  0.74607576  1
  O  O349  1  0.24702233  0.88527243  0.24904684  1
  O  O350  1  0.25447530  0.88896104  0.74204257  1
  O  O351  1  0.74631041  0.38304207  0.24025230  1
  O  O352  1  0.74625397  0.38853088  0.75651342  1
  O  O353  1  0.74724754  0.88210182  0.24292634  1
  O  O354  1  0.74363315  0.87986566  0.74476027  1
  O  O355  1  0.25556665  0.11360412  0.25592105  1
  O  O356  1  0.24918223  0.11412195  0.75842673  1
  O  O357  1  0.25331926  0.61630735  0.25740080  1
  O  O358  1  0.25158622  0.61831318  0.75525221  1
  O  O359  1  0.75870347  0.12107425  0.25551744  1
  O  O360  1  0.74109756  0.11619374  0.75723441  1
  O  O361  1  0.75063867  0.61872809  0.25631123  1
  O  O362  1  0.75027541  0.62404986  0.76384785  1
  O  O363  1  0.36536724  0.11750038  0.36262783  1
  O  O364  1  0.36920663  0.11652225  0.87888460  1
  O  O365  1  0.36496404  0.61800717  0.36641619  1
  O  O366  1  0.37046885  0.61374848  0.87587312  1
  O  O367  1  0.87235637  0.11765117  0.36920941  1
  O  O368  1  0.85888081  0.11795904  0.86563386  1
  O  O369  1  0.86636087  0.61861603  0.37430568  1
  O  O370  1  0.86505694  0.61997681  0.87317547  1
  O  O371  1  0.12038209  0.38129415  0.13354846  1
  O  O372  1  0.13408691  0.37725812  0.63558278  1
  O  O373  1  0.12391146  0.88650239  0.13380882  1
  O  O374  1  0.13840088  0.86930475  0.62096193  1
  O  O375  1  0.63554161  0.36889847  0.14074842  1
  O  O376  1  0.62154954  0.38873075  0.62659827  1
  O  O377  1  0.63292927  0.88592291  0.12600254  1
  O  O378  1  0.62924744  0.87676389  0.62844848  1
  O  O379  1  0.13084304  0.26029593  0.25542680  1
  O  O380  1  0.12652239  0.26139120  0.75910107  1
  O  O381  1  0.11804708  0.75763608  0.24948777  1
  O  O382  1  0.11932199  0.74573799  0.76258166  1
  O  O383  1  0.60982667  0.24781297  0.24498803  1
  O  O384  1  0.60505237  0.25742093  0.73980104  1
  O  O385  1  0.61717772  0.75011215  0.25761375  1
  O  O386  1  0.62339301  0.75599558  0.75892273  1
  O  O387  1  0.37764724  0.24186030  0.24636030  1
  O  O388  1  0.39597214  0.25891015  0.74109336  1
  O  O389  1  0.38188683  0.74155056  0.24803581  1
  O  O390  1  0.37280794  0.75060850  0.73812402  1
  O  O391  1  0.87186418  0.24055097  0.25872519  1
  O  O392  1  0.87922354  0.24826914  0.74265044  1
  O  O393  1  0.88165263  0.75239578  0.24367583  1
  O  O394  1  0.88388306  0.74775226  0.74254347  1
  O  O395  1  0.37223632  0.50666833  0.48391204  1
  O  O396  1  0.37998513  0.49637529  0.99532881  1
  O  O397  1  0.38020459  0.99828444  0.49386200  1
  O  O398  1  0.38009973  0.99548822  0.99377722  1
  O  O399  1  0.87126788  0.49527349  0.48675894  1
  O  O400  1  0.87310812  0.50740274  0.98762916  1
  O  O401  1  0.88641461  0.99368037  0.49417620  1
  O  O402  1  0.88933995  1.00452311  0.99844451  1
  O  O403  1  0.11855618  -0.00003440  0.00655597  1
  O  O404  1  0.10997277  0.00669707  0.49570646  1
  O  O405  1  0.12662021  0.50732738  0.00730884  1
  O  O406  1  0.12265178  0.51382755  0.49390109  1
  O  O407  1  0.61458862  0.00484333  0.00675105  1
  O  O408  1  0.62148223  0.00392023  0.50444663  1
  O  O409  1  0.61369070  0.51225163  -0.00074836  1
  O  O410  1  0.63945283  0.51450968  0.51512575  1
  O  O411  1  0.37519374  0.36724496  0.11798920  1
  O  O412  1  0.36452242  0.37824633  0.61894585  1
  O  O413  1  0.37677105  0.87374241  0.11035059  1
  O  O414  1  0.36887899  0.86792207  0.61852776  1
  O  O415  1  0.86111274  0.37726948  0.13018915  1
  O  O416  1  0.87009803  0.38562337  0.60728847  1
  O  O417  1  0.86822366  0.86815820  0.12342917  1
  O  O418  1  0.87190344  0.86748634  0.61483739  1
  O  O419  1  0.12888437  0.13243671  0.37217698  1
  O  O420  1  0.13662815  0.13609837  0.87624868  1
  O  O421  1  0.13718746  0.62588114  0.37845697  1
  O  O422  1  0.12817040  0.63155893  0.88244284  1
  O  O423  1  0.63559340  0.11563188  0.38450980  1
  O  O424  1  0.63228306  0.12299296  0.88447781  1
  O  O425  1  0.62893134  0.62706300  0.38285664  1
  O  O426  1  0.63010802  0.63330388  0.88183274  1
