# generated using pymatgen
data_V85Zn86O256
_symmetry_space_group_name_H-M   'P 1'
_cell_length_a   16.94503845
_cell_length_b   16.93251398
_cell_length_c   16.93333585
_cell_angle_alpha   89.96924035
_cell_angle_beta   89.86014666
_cell_angle_gamma   90.03077422
_symmetry_Int_Tables_number   1
_chemical_formula_structural   V85Zn86O256
_chemical_formula_sum   'V85 Zn86 O256'
_cell_volume   4858.53241293
_cell_formula_units_Z   1
loop_
 _symmetry_equiv_pos_site_id
 _symmetry_equiv_pos_as_xyz
  1  'x, y, z'
loop_
 _atom_site_type_symbol
 _atom_site_label
 _atom_site_symmetry_multiplicity
 _atom_site_fract_x
 _atom_site_fract_y
 _atom_site_fract_z
 _atom_site_occupancy
  V  V0  1  0.37286367  0.49036492  0.87920926  1
  V  V1  1  0.24725294  0.13019451  0.86958845  1
  V  V2  1  0.87402622  0.37619302  0.49812371  1
  V  V3  1  0.11368446  0.38234001  0.74423195  1
  V  V4  1  0.75216221  0.74075446  0.49792686  1
  V  V5  1  0.50347567  -0.00005517  0.50151553  1
  V  V6  1  0.00447301  0.50043145  0.50278507  1
  V  V7  1  0.24808804  0.49972046  0.74110923  1
  V  V8  1  0.74837481  0.62923988  0.88778944  1
  V  V9  1  0.13301135  0.62137799  0.49780802  1
  V  V10  1  0.62472951  0.74545603  0.87357211  1
  V  V11  1  -0.00468394  -0.00151787  0.50049063  1
  V  V12  1  0.36947269  0.50201188  0.37573872  1
  V  V13  1  0.13173515  0.75121431  0.88168742  1
  V  V14  1  0.75351505  0.38015167  0.12679077  1
  V  V15  1  0.87195275  0.51698801  0.37281257  1
  V  V16  1  0.49577656  0.12454397  0.63220922  1
  V  V17  1  0.62856881  0.51411926  0.12124929  1
  V  V18  1  0.11779173  0.12813026  0.00275648  1
  V  V19  1  0.36982978  0.00066093  0.37386336  1
  V  V20  1  0.37481246  0.62419520  0.74874263  1
  V  V21  1  0.13227614  0.75042325  0.36984733  1
  V  V22  1  0.50595946  0.87712424  0.37084079  1
  V  V23  1  0.38119008  0.37285726  0.49488472  1
  V  V24  1  0.50397302  0.25896997  0.74695557  1
  V  V25  1  0.87397219  0.24977659  0.62445615  1
  V  V26  1  0.00785163  0.62376705  0.62640866  1
  V  V27  1  0.00139698  0.49600948  -0.00144945  1
  V  V28  1  0.25492718  0.00234348  0.74470493  1
  V  V29  1  0.37485328  0.75437889  0.62566539  1
  V  V30  1  0.12415134  0.12490832  0.50168970  1
  V  V31  1  0.24956724  0.75153548  0.50254863  1
  V  V32  1  0.11386734  0.25558969  0.87323318  1
  V  V33  1  0.12619293  0.37451817  0.24160076  1
  V  V34  1  0.87386927  0.00055662  0.35882415  1
  V  V35  1  0.74922870  0.24694340  0.49824952  1
  V  V36  1  -0.00759082  0.24146362  0.24723442  1
  V  V37  1  0.37099581  0.24838208  0.63345433  1
  V  V38  1  0.13250962  0.87508056  0.74752433  1
  V  V39  1  0.62752480  0.74238857  0.37689840  1
  V  V40  1  0.25239436  0.62724975  0.88446166  1
  V  V41  1  0.74804785  0.12193031  0.87588230  1
  V  V42  1  0.49795944  0.75314132  0.25114933  1
  V  V43  1  0.74777582  0.25190166  0.00213348  1
  V  V44  1  0.49373154  0.87598487  0.87499487  1
  V  V45  1  0.71995970  0.76898926  0.03175395  1
  V  V46  1  0.37458363  0.00663473  0.87309984  1
  V  V47  1  0.48891537  -0.00207413  0.01023538  1
  V  V48  1  0.62486128  -0.00037573  0.62735257  1
  V  V49  1  0.37085805  0.87626591  0.50294385  1
  V  V50  1  0.36616134  0.75058076  0.10202582  1
  V  V51  1  0.74115352  0.49681907  0.75088319  1
  V  V52  1  0.62435825  0.25750406  0.87190534  1
  V  V53  1  0.24988047  0.25063030  0.49869801  1
  V  V54  1  0.49959817  0.49103115  0.00224150  1
  V  V55  1  0.62638424  0.87472799  0.75519833  1
  V  V56  1  0.00403824  0.62036535  0.12925031  1
  V  V57  1  0.12232555  0.25181933  0.37586754  1
  V  V58  1  0.88212720  0.86640659  0.00392788  1
  V  V59  1  0.87452665  0.12321277  0.75050042  1
  V  V60  1  0.87431470  0.62588118  0.75259431  1
  V  V61  1  0.36780286  0.62925478  0.25292548  1
  V  V62  1  0.62206888  0.25070199  0.37520291  1
  V  V63  1  0.14162342  0.00905178  0.13898199  1
  V  V64  1  0.12776912  -0.00414591  0.62336569  1
  V  V65  1  0.88431503  0.74592866  0.12942677  1
  V  V66  1  0.00507202  0.87459581  0.36947351  1
  V  V67  1  0.62554291  0.38073426  0.25453556  1
  V  V68  1  0.00363738  0.88018003  0.87474174  1
  V  V69  1  0.75190245  0.52023245  0.25533965  1
  V  V70  1  0.87751663  0.49287415  0.87716467  1
  V  V71  1  0.00704156  0.74613192  0.24782838  1
  V  V72  1  0.49981410  0.25407724  0.25204052  1
  V  V73  1  0.49705607  0.62670994  0.12018842  1
  V  V74  1  0.62336828  0.11913375  0.00315361  1
  V  V75  1  0.75069763  0.87165781  0.62082264  1
  V  V76  1  -0.00219046  0.37696080  0.37291769  1
  V  V77  1  0.37013348  0.12755186  0.25433791  1
  V  V78  1  -0.00083332  0.00348850  0.01603920  1
  V  V79  1  0.50139308  0.12601000  0.12809793  1
  V  V80  1  0.50217186  0.50087886  0.49388660  1
  V  V81  1  0.87319185  0.23436976  0.12896054  1
  V  V82  1  0.25094635  0.49536555  0.24474223  1
  V  V83  1  0.75317358  0.12061904  0.35959345  1
  V  V84  1  0.00236103  0.75052463  0.74980172  1
  Zn  Zn85  1  0.50220459  0.62511931  0.62240492  1
  Zn  Zn86  1  0.87301171  0.87547709  0.49856871  1
  Zn  Zn87  1  0.25047484  0.27041507  0.00299254  1
  Zn  Zn88  1  0.62918867  0.62003390  0.50379417  1
  Zn  Zn89  1  0.87856078  0.37273053  0.00028166  1
  Zn  Zn90  1  0.24515677  0.37977437  0.62097198  1
  Zn  Zn91  1  0.13219208  0.49518689  0.11663181  1
  Zn  Zn92  1  -0.00644460  0.25588469  0.75370206  1
  Zn  Zn93  1  0.87597639  0.75080558  0.62364383  1
  Zn  Zn94  1  0.49974054  0.37480612  0.87480106  1
  Zn  Zn95  1  0.74312802  0.37234450  0.63114441  1
  Zn  Zn96  1  0.25230187  0.87936692  0.12348010  1
  Zn  Zn97  1  0.24566532  0.11950011  0.37311112  1
  Zn  Zn98  1  0.12915844  0.62498596  0.00391461  1
  Zn  Zn99  1  0.61697715  0.49414403  0.62820937  1
  Zn  Zn100  1  0.37218814  0.26879147  0.11414934  1
  Zn  Zn101  1  0.49940928  0.74878413  0.74721835  1
  Zn  Zn102  1  0.75156841  -0.00325306  0.75116573  1
  Zn  Zn103  1  0.87563926  -0.00025429  0.87824656  1
  Zn  Zn104  1  -0.00193043  0.12430233  0.62694768  1
  Zn  Zn105  1  0.62579323  0.12235836  0.49822954  1
  Zn  Zn106  1  0.68998823  -0.07462610  0.16981169  1
  Zn  Zn107  1  0.18267386  0.18916109  0.18695848  1
  Zn  Zn108  1  0.18270837  0.18864208  0.68787871  1
  Zn  Zn109  1  0.19095011  0.68366756  0.18614423  1
  Zn  Zn110  1  0.19043650  0.68802153  0.68673402  1
  Zn  Zn111  1  0.68488332  0.18789676  0.18556962  1
  Zn  Zn112  1  0.68606018  0.18612523  0.68774308  1
  Zn  Zn113  1  0.68371096  0.70738764  0.19007020  1
  Zn  Zn114  1  0.68592434  0.68216436  0.68672639  1
  Zn  Zn115  1  0.31285427  0.31440276  0.31320802  1
  Zn  Zn116  1  0.30543267  0.31426818  0.81167409  1
  Zn  Zn117  1  0.30783189  0.81674689  0.31029917  1
  Zn  Zn118  1  0.31298393  0.81481021  0.81458589  1
  Zn  Zn119  1  0.81072937  0.31686810  0.31199068  1
  Zn  Zn120  1  0.81108994  0.31194012  0.81424936  1
  Zn  Zn121  1  0.81782423  0.80820673  0.31055414  1
  Zn  Zn122  1  0.81275706  0.81212493  0.81551800  1
  Zn  Zn123  1  0.18968117  0.43691303  0.43315923  1
  Zn  Zn124  1  0.18174334  0.44011477  0.92674678  1
  Zn  Zn125  1  0.18768844  0.93426380  0.43776898  1
  Zn  Zn126  1  0.19427342  0.94462456  0.94376253  1
  Zn  Zn127  1  0.68993063  0.43675992  0.43683683  1
  Zn  Zn128  1  0.68741065  0.44059249  0.94019945  1
  Zn  Zn129  1  0.68895910  0.93167453  0.33195289  1
  Zn  Zn130  1  0.69996346  0.95084383  0.97263534  1
  Zn  Zn131  1  0.30429429  0.11767471  0.06622684  1
  Zn  Zn132  1  0.31228954  0.06494854  0.56224216  1
  Zn  Zn133  1  0.31440675  0.44049998  0.06217685  1
  Zn  Zn134  1  0.31538528  0.56517553  0.56150674  1
  Zn  Zn135  1  0.80900533  0.05379110  0.06784745  1
  Zn  Zn136  1  0.81020323  0.06098996  0.55938599  1
  Zn  Zn137  1  0.81551128  0.57100293  0.06340838  1
  Zn  Zn138  1  0.81733559  0.56307459  0.56677794  1
  Zn  Zn139  1  0.44396476  0.44034668  0.19464880  1
  Zn  Zn140  1  0.43412700  0.43590154  0.68189691  1
  Zn  Zn141  1  0.39885433  0.92150244  0.20120981  1
  Zn  Zn142  1  0.43643380  0.93519978  0.68931186  1
  Zn  Zn143  1  0.93563383  0.43966831  0.19010775  1
  Zn  Zn144  1  0.93167780  0.44051029  0.68403630  1
  Zn  Zn145  1  0.94203615  0.92915279  0.18715494  1
  Zn  Zn146  1  0.93671772  0.93845586  0.68860133  1
  Zn  Zn147  1  0.05934177  0.06576638  0.31450891  1
  Zn  Zn148  1  0.06153429  0.06391264  0.81234880  1
  Zn  Zn149  1  0.06661644  0.56337497  0.31539847  1
  Zn  Zn150  1  0.06348952  0.56185165  0.81543006  1
  Zn  Zn151  1  0.56716064  0.05873214  0.30422308  1
  Zn  Zn152  1  0.56224620  0.06517843  0.81207122  1
  Zn  Zn153  1  0.55758568  0.56454092  0.31377320  1
  Zn  Zn154  1  0.56009078  0.56393524  0.81556641  1
  Zn  Zn155  1  0.43991679  0.18622662  0.44070865  1
  Zn  Zn156  1  0.43556569  0.18676865  0.93296066  1
  Zn  Zn157  1  0.43699597  0.68570990  0.43611170  1
  Zn  Zn158  1  0.44250000  0.67881221  0.93470618  1
  Zn  Zn159  1  0.93562522  0.18433364  0.43424053  1
  Zn  Zn160  1  0.93469470  0.18895643  0.93985916  1
  Zn  Zn161  1  0.94173692  0.69106097  0.44018280  1
  Zn  Zn162  1  0.94486821  0.68433009  0.93854157  1
  Zn  Zn163  1  0.05844222  0.31061590  0.06249057  1
  Zn  Zn164  1  0.06031668  0.31386018  0.56571995  1
  Zn  Zn165  1  0.10236073  0.83706032  0.04971717  1
  Zn  Zn166  1  0.06304472  0.81325658  0.56167302  1
  Zn  Zn167  1  0.56510051  0.31374042  0.06701241  1
  Zn  Zn168  1  0.56438134  0.31649521  0.56317921  1
  Zn  Zn169  1  0.55088862  0.81493196  0.06193489  1
  Zn  Zn170  1  0.56350666  0.81199770  0.56126628  1
  O  O171  1  0.11939679  0.12310605  0.11011150  1
  O  O172  1  0.11978121  0.11505740  0.62033145  1
  O  O173  1  0.11746657  0.62071025  0.12366385  1
  O  O174  1  0.11462676  0.62936293  0.61849192  1
  O  O175  1  0.61329064  0.12886430  0.11673258  1
  O  O176  1  0.61814588  0.11656469  0.62301942  1
  O  O177  1  0.61669581  0.61857106  0.13323002  1
  O  O178  1  0.62017924  0.61390108  0.62393350  1
  O  O179  1  0.37194591  0.38413670  0.38443375  1
  O  O180  1  0.37627225  0.38714397  0.86763981  1
  O  O181  1  0.38455313  0.88247452  0.38564475  1
  O  O182  1  0.38602387  0.88527037  0.87024085  1
  O  O183  1  0.88235646  0.38105017  0.38077675  1
  O  O184  1  0.87018940  0.38891032  0.87785511  1
  O  O185  1  0.88802182  0.88185037  0.37728913  1
  O  O186  1  0.88762201  0.87282912  0.88276883  1
  O  O187  1  0.26515577  0.00062841  0.38358980  1
  O  O188  1  0.25566343  0.00417448  0.86677784  1
  O  O189  1  0.26172667  0.49859193  0.36599991  1
  O  O190  1  0.25692651  0.50877587  0.86152257  1
  O  O191  1  0.75917170  0.01302251  0.37947334  1
  O  O192  1  0.74939055  0.01309654  0.88054182  1
  O  O193  1  0.75987374  0.49980813  0.36761842  1
  O  O194  1  0.75556143  0.50926942  0.87001490  1
  O  O195  1  0.24896557  0.50160267  0.14073366  1
  O  O196  1  0.25378027  0.50230359  0.63681648  1
  O  O197  1  0.24079718  1.01784149  0.11729269  1
  O  O198  1  0.24129960  1.00532538  0.63245929  1
  O  O199  1  0.74539962  0.50044563  0.13074550  1
  O  O200  1  0.75491654  0.50208579  0.64379655  1
  O  O201  1  0.72463162  0.98484838  0.08093094  1
  O  O202  1  0.74212860  0.99106706  0.62477624  1
  O  O203  1  0.00622691  0.37196751  0.25776670  1
  O  O204  1  0.00943995  0.37841439  0.74366859  1
  O  O205  1  0.00250200  0.86105277  0.25938129  1
  O  O206  1  0.00955247  0.87288308  0.75642408  1
  O  O207  1  0.51667517  0.36861976  0.24936044  1
  O  O208  1  0.49606227  0.36258120  0.74937629  1
  O  O209  1  0.48710361  0.86550713  0.26083152  1
  O  O210  1  0.50769425  0.87365202  0.75791975  1
  O  O211  1  0.50107700  0.13574232  0.24526191  1
  O  O212  1  0.50190796  0.13454683  0.73788835  1
  O  O213  1  0.49126735  0.62985204  0.24179827  1
  O  O214  1  0.48528909  0.62507269  0.74966845  1
  O  O215  1  0.99642782  0.14269283  0.25782170  1
  O  O216  1  0.98511637  0.12705579  0.75004132  1
  O  O217  1  1.00816847  0.63569424  0.24556419  1
  O  O218  1  0.99624176  0.62776589  0.74421356  1
  O  O219  1  0.36136236  0.22378124  0.00581437  1
  O  O220  1  0.36816889  0.25569091  0.50370933  1
  O  O221  1  0.37342007  0.73888250  0.00386678  1
  O  O222  1  0.36915921  0.75592238  0.50447833  1
  O  O223  1  0.86652848  0.25290539  0.00912612  1
  O  O224  1  0.86903820  0.25250212  0.50557255  1
  O  O225  1  0.88990463  0.75582841  0.01106824  1
  O  O226  1  0.86778288  0.75436232  0.50144081  1
  O  O227  1  0.13046655  0.24695801  0.49820848  1
  O  O228  1  0.12306591  0.24556172  0.99134648  1
  O  O229  1  0.13288021  0.74575214  0.49499910  1
  O  O230  1  0.11170308  0.74218362  0.98285857  1
  O  O231  1  0.63217514  0.24822391  0.49131172  1
  O  O232  1  0.62697248  0.24037363  0.99483067  1
  O  O233  1  0.63328943  0.74665074  0.49521373  1
  O  O234  1  0.62116681  0.74950616  0.98323377  1
  O  O235  1  0.49888574  0.24346510  0.13479004  1
  O  O236  1  0.49366417  0.24414060  0.62904340  1
  O  O237  1  0.49222140  0.74362197  0.13216768  1
  O  O238  1  0.49005163  0.74780412  0.62583266  1
  O  O239  1  0.98475062  0.25530133  0.13390717  1
  O  O240  1  0.98460223  0.24668143  0.62457609  1
  O  O241  1  1.00301034  0.74320868  0.13454921  1
  O  O242  1  0.99954185  0.74329454  0.63153185  1
  O  O243  1  0.00178214  0.25848576  0.37115268  1
  O  O244  1  0.00889026  0.25021203  0.87369438  1
  O  O245  1  0.00869560  0.75688575  0.37045507  1
  O  O246  1  0.00807437  0.75874635  0.86692260  1
  O  O247  1  0.51500274  0.24293706  0.37018943  1
  O  O248  1  0.50576006  0.24979712  0.86530697  1
  O  O249  1  0.50346242  0.75729414  0.37111814  1
  O  O250  1  0.50420635  0.75806647  0.87263536  1
  O  O251  1  0.24230134  0.13347773  0.49831657  1
  O  O252  1  0.23042649  0.11693645  0.97804209  1
  O  O253  1  0.23968897  0.63203911  0.50357161  1
  O  O254  1  0.24724037  0.61912531  0.98311255  1
  O  O255  1  0.74864798  0.13608524  0.49314391  1
  O  O256  1  0.74034760  0.13176137  0.99410104  1
  O  O257  1  0.75158109  0.63656760  0.50729457  1
  O  O258  1  0.75246466  0.64121315  0.99037168  1
  O  O259  1  0.24772582  0.38236411  -0.00593453  1
  O  O260  1  0.25625220  0.36764528  0.50163721  1
  O  O261  1  0.21341628  0.86483130  0.01644616  1
  O  O262  1  0.26337483  0.86966600  0.49989508  1
  O  O263  1  0.74960091  0.36989961  0.00955106  1
  O  O264  1  0.75751796  0.36075359  0.49630210  1
  O  O265  1  0.76695407  0.85351543  -0.01493498  1
  O  O266  1  0.74968994  0.86285609  0.51669866  1
  O  O267  1  0.13420210  0.49123522  0.25400718  1
  O  O268  1  0.13053425  0.48976143  0.75328854  1
  O  O269  1  0.13252599  1.02692695  0.23753902  1
  O  O270  1  0.13087426  0.99453245  0.74300804  1
  O  O271  1  0.62980220  0.49607379  0.24680134  1
  O  O272  1  0.63891371  0.50246814  0.75546258  1
  O  O273  1  0.62544410  0.98213183  0.25151144  1
  O  O274  1  0.62771625  0.99242697  0.74615859  1
  O  O275  1  0.39257043  0.01657507  0.26675198  1
  O  O276  1  0.36094421  -0.00435991  0.75360215  1
  O  O277  1  0.37082508  0.50645254  0.25847278  1
  O  O278  1  0.36842605  0.50596942  0.75324503  1
  O  O279  1  0.88287485  -0.00291412  0.25940733  1
  O  O280  1  0.87131611  0.00798012  0.75616499  1
  O  O281  1  0.86431009  0.49937010  0.26052753  1
  O  O282  1  0.87210860  0.51035141  0.75876778  1
  O  O283  1  0.11562022  0.36955543  0.36972335  1
  O  O284  1  0.12503075  0.36744734  0.85642971  1
  O  O285  1  0.11504113  0.86665611  0.38023241  1
  O  O286  1  0.12041307  0.87045572  0.86652595  1
  O  O287  1  0.63399217  0.36300316  0.36578654  1
  O  O288  1  0.62479714  0.36118192  0.88087715  1
  O  O289  1  0.60887913  0.86390617  0.38587246  1
  O  O290  1  0.61698072  0.86997342  0.86417738  1
  O  O291  1  0.39214700  0.12070650  0.14108760  1
  O  O292  1  0.38365111  0.13606487  0.61892962  1
  O  O293  1  0.38495865  0.63844834  0.13681431  1
  O  O294  1  0.37525995  0.63686259  0.63125288  1
  O  O295  1  0.86389104  0.13484029  0.12371536  1
  O  O296  1  0.87252491  0.13053005  0.63312835  1
  O  O297  1  0.89507857  0.63073346  0.12254435  1
  O  O298  1  0.88852679  0.62688783  0.63518553  1
  O  O299  1  0.25938973  0.22486568  0.11395835  1
  O  O300  1  0.25540927  0.24778329  0.61509203  1
  O  O301  1  0.26553708  0.74755656  0.12690851  1
  O  O302  1  0.25667969  0.74880046  0.61148610  1
  O  O303  1  0.75344373  0.26035590  0.12294103  1
  O  O304  1  0.75788240  0.24819180  0.61709732  1
  O  O305  1  0.77224903  0.72694675  0.11908602  1
  O  O306  1  0.75198678  0.75453239  0.62216992  1
  O  O307  1  0.24366803  0.25024677  0.38717912  1
  O  O308  1  0.23726892  0.24322944  0.87227150  1
  O  O309  1  0.24346467  0.75808164  0.38703968  1
  O  O310  1  0.24233100  0.74190008  0.86764268  1
  O  O311  1  0.74541431  0.24027344  0.37838232  1
  O  O312  1  0.74343365  0.24173719  0.87974900  1
  O  O313  1  0.74069716  0.75589357  0.38670759  1
  O  O314  1  0.73947452  0.74162023  0.87007992  1
  O  O315  1  0.00565414  0.11405675  -0.00977891  1
  O  O316  1  0.00524745  0.11359442  0.49954496  1
  O  O317  1  0.00378175  0.61307207  0.00924871  1
  O  O318  1  0.00960260  0.62053096  0.50766757  1
  O  O319  1  0.50359273  0.11928893  0.00862961  1
  O  O320  1  0.50255700  0.11731203  0.51135585  1
  O  O321  1  0.49798884  0.61443888  0.01417500  1
  O  O322  1  0.49942687  0.61397152  0.50084323  1
  O  O323  1  0.48644574  0.37883512  0.50072760  1
  O  O324  1  0.50484434  0.38666860  1.00017570  1
  O  O325  1  0.48958818  0.88108702  0.49701323  1
  O  O326  1  0.50589389  0.89153021  0.98994353  1
  O  O327  1  0.99620690  0.38355833  0.49526787  1
  O  O328  1  0.99617019  0.39024534  1.00637785  1
  O  O329  1  0.99993209  0.88533780  0.49373407  1
  O  O330  1  1.00132549  0.88365724  0.99329365  1
  O  O331  1  0.48757624  0.50072139  0.38432775  1
  O  O332  1  0.49327537  0.49843220  0.88382901  1
  O  O333  1  0.49520262  0.99457326  0.38570965  1
  O  O334  1  0.48976042  0.99627640  0.87376397  1
  O  O335  1  0.99384328  0.49640835  0.38355436  1
  O  O336  1  0.98856141  0.50794932  0.88446124  1
  O  O337  1  0.99570912  0.99411266  0.37989300  1
  O  O338  1  1.00117411  0.98853526  0.87893911  1
  O  O339  1  0.00136062  0.00181584  0.11782523  1
  O  O340  1  0.00587819  0.00113038  0.61663356  1
  O  O341  1  0.00314879  0.50579936  0.12134692  1
  O  O342  1  -0.00468821  0.50759556  0.61105449  1
  O  O343  1  0.49434116  0.00291554  0.11125396  1
  O  O344  1  0.50142087  0.00674552  0.62311695  1
  O  O345  1  0.50877291  0.50787550  0.12126516  1
  O  O346  1  0.49451375  0.50083372  0.60908910  1
  O  O347  1  0.23789858  0.38094124  0.25701914  1
  O  O348  1  0.23970280  0.38429385  0.74508181  1
  O  O349  1  0.28908837  0.89126676  0.23124105  1
  O  O350  1  0.23829507  0.88375123  0.75276019  1
  O  O351  1  0.74062631  0.38360089  0.24384436  1
  O  O352  1  0.75685846  0.39354321  0.75339044  1
  O  O353  1  0.74693363  0.87185769  0.25423216  1
  O  O354  1  0.74255552  0.87482064  0.74425468  1
  O  O355  1  0.26732934  0.13597135  0.25641429  1
  O  O356  1  0.24041050  0.11576131  0.75938107  1
  O  O357  1  0.26241590  0.61668054  0.24971638  1
  O  O358  1  0.25949829  0.61983117  0.75269621  1
  O  O359  1  0.74807589  0.12805299  0.26076727  1
  O  O360  1  0.75796877  0.12328250  0.75810199  1
  O  O361  1  0.74112529  0.61827533  0.24797768  1
  O  O362  1  0.75949671  0.61698057  0.75809505  1
  O  O363  1  0.37549675  0.11790812  0.37327715  1
  O  O364  1  0.36446361  0.11392768  0.86906819  1
  O  O365  1  0.37828611  0.61560240  0.36572051  1
  O  O366  1  0.37011578  0.61645824  0.86618074  1
  O  O367  1  0.86195394  0.11745849  0.37598913  1
  O  O368  1  0.86462649  0.12638923  0.86884440  1
  O  O369  1  0.88140808  0.61574195  0.37862711  1
  O  O370  1  0.86857733  0.62035551  0.87027917  1
  O  O371  1  0.12076883  0.37494905  0.13821900  1
  O  O372  1  0.12754022  0.37115917  0.63914941  1
  O  O373  1  0.12474459  0.90514134  0.14034956  1
  O  O374  1  0.12080768  0.88723096  0.63192041  1
  O  O375  1  0.63589947  0.38581858  0.13265470  1
  O  O376  1  0.63136179  0.38144770  0.62221112  1
  O  O377  1  0.65574494  0.81945050  0.10861584  1
  O  O378  1  0.62877059  0.87874411  0.63653166  1
  O  O379  1  0.11668649  0.25643682  0.25562609  1
  O  O380  1  0.11785144  0.26036256  0.75403688  1
  O  O381  1  0.12553270  0.74542893  0.26261115  1
  O  O382  1  0.12260411  0.75918639  0.75352772  1
  O  O383  1  0.61885776  0.25765278  0.25509337  1
  O  O384  1  0.61611645  0.24610338  0.75827653  1
  O  O385  1  0.60677199  0.74890439  0.26168828  1
  O  O386  1  0.62182988  0.75626470  0.75678931  1
  O  O387  1  0.39051862  0.24633375  0.25824439  1
  O  O388  1  0.37777424  0.25385346  0.73773438  1
  O  O389  1  0.38418484  0.74054432  0.25778015  1
  O  O390  1  0.37319956  0.74427645  0.74193261  1
  O  O391  1  0.88038946  0.25810331  0.24088345  1
  O  O392  1  0.87303969  0.24428239  0.74237949  1
  O  O393  1  0.88969477  0.75117688  0.23780780  1
  O  O394  1  0.88204333  0.73819055  0.75267425  1
  O  O395  1  0.37658135  0.49321472  0.49318940  1
  O  O396  1  0.38538174  0.50252322  0.98956336  1
  O  O397  1  0.38343325  0.99390627  0.49892195  1
  O  O398  1  0.38747748  1.00882433  0.98900594  1
  O  O399  1  0.88122294  0.49629259  0.49365708  1
  O  O400  1  0.87882518  0.50143733  0.99250634  1
  O  O401  1  0.88402354  0.99841474  0.49362936  1
  O  O402  1  0.88395960  0.98870870  0.99853122  1
  O  O403  1  0.11420910  0.01090349  0.00601958  1
  O  O404  1  0.11980892  0.00281423  0.50651103  1
  O  O405  1  0.11540509  0.50392247  -0.00252461  1
  O  O406  1  0.11734158  0.50867418  0.49231530  1
  O  O407  1  0.60265922  0.01694825  -0.01778025  1
  O  O408  1  0.60886128  -0.00189916  0.50985341  1
  O  O409  1  0.61883625  0.50106126  0.01178016  1
  O  O410  1  0.61437710  0.50020077  0.49374602  1
  O  O411  1  0.37803726  0.37879891  0.13147196  1
  O  O412  1  0.36880846  0.36455757  0.61477682  1
  O  O413  1  0.38392144  0.85347538  0.10827822  1
  O  O414  1  0.37797549  0.86349423  0.61902470  1
  O  O415  1  0.86067354  0.37601113  0.12547680  1
  O  O416  1  0.86835355  0.36682461  0.61801450  1
  O  O417  1  0.88193035  0.86380013  0.11280221  1
  O  O418  1  0.86499500  0.87279751  0.62653057  1
  O  O419  1  0.12586491  0.13335436  0.38391239  1
  O  O420  1  0.12640664  0.13544210  0.87647980  1
  O  O421  1  0.12077255  0.63726591  0.38778271  1
  O  O422  1  0.13559464  0.63516848  0.86876055  1
  O  O423  1  0.63752567  0.12987926  0.37610991  1
  O  O424  1  0.63051152  0.13512043  0.87972960  1
  O  O425  1  0.61855706  0.63886335  0.37945763  1
  O  O426  1  0.63398481  0.63440304  0.86909562  1
