# generated using pymatgen
data_V85Zn86O256
_symmetry_space_group_name_H-M   'P 1'
_cell_length_a   16.94872470
_cell_length_b   16.95198901
_cell_length_c   16.94479761
_cell_angle_alpha   90.03428277
_cell_angle_beta   89.97669586
_cell_angle_gamma   89.94305947
_symmetry_Int_Tables_number   1
_chemical_formula_structural   V85Zn86O256
_chemical_formula_sum   'V85 Zn86 O256'
_cell_volume   4868.48398192
_cell_formula_units_Z   1
loop_
 _symmetry_equiv_pos_site_id
 _symmetry_equiv_pos_as_xyz
  1  'x, y, z'
loop_
 _atom_site_type_symbol
 _atom_site_label
 _atom_site_symmetry_multiplicity
 _atom_site_fract_x
 _atom_site_fract_y
 _atom_site_fract_z
 _atom_site_occupancy
  V  V0  1  0.75355750  0.74740391  0.48911067  1
  V  V1  1  0.38456070  0.24426770  0.12856209  1
  V  V2  1  0.70682433  0.80594538  0.05273849  1
  V  V3  1  0.12913245  0.00491034  0.13133576  1
  V  V4  1  0.50439823  0.12584221  0.62377253  1
  V  V5  1  0.00028722  0.49383864  0.49836241  1
  V  V6  1  0.87334198  0.50025690  0.87315038  1
  V  V7  1  0.74951331  0.62633402  0.87725013  1
  V  V8  1  0.25014560  0.88310664  0.12735846  1
  V  V9  1  0.63016715  0.74918027  0.37227636  1
  V  V10  1  0.29623724  0.68218752  0.43269364  1
  V  V11  1  0.11437160  0.48598021  0.13079897  1
  V  V12  1  0.74930376  0.87600969  0.62472852  1
  V  V13  1  0.73988353  0.37980032  0.12365521  1
  V  V14  1  0.37796142  0.00040458  0.87731587  1
  V  V15  1  0.87399161  0.25026879  0.62666481  1
  V  V16  1  0.11439550  0.63368316  0.48550411  1
  V  V17  1  0.37526603  0.12704523  0.74869329  1
  V  V18  1  0.74194317  -0.01394845  0.25145441  1
  V  V19  1  0.74626035  0.24723510  0.48934394  1
  V  V20  1  0.24531792  0.00101296  0.74379422  1
  V  V21  1  0.51195111  0.37664533  0.87129925  1
  V  V22  1  0.12469056  0.25212557  0.87737085  1
  V  V23  1  0.12531320  0.75241238  0.87661948  1
  V  V24  1  0.49862427  0.87534908  0.37324934  1
  V  V25  1  0.50482781  0.61869134  0.12696175  1
  V  V26  1  0.62934978  0.23486220  0.87522180  1
  V  V27  1  0.37370353  0.74983819  0.12264570  1
  V  V28  1  0.49869075  0.87583780  0.87198153  1
  V  V29  1  0.24903757  0.12285773  0.37231944  1
  V  V30  1  0.37010569  0.50021615  0.87212379  1
  V  V31  1  0.87195225  0.74744795  0.11664358  1
  V  V32  1  0.12173514  0.12820548  0.00210228  1
  V  V33  1  0.38212657  0.37390681  -0.00125588  1
  V  V34  1  0.49979879  0.74354590  0.73720654  1
  V  V35  1  0.74787795  0.00372511  0.75397065  1
  V  V36  1  0.11203107  0.25250229  0.37230658  1
  V  V37  1  -0.00137780  0.62635744  0.12665747  1
  V  V38  1  0.37079257  0.62287056  0.24737908  1
  V  V39  1  0.25198562  0.74923888  -0.00303988  1
  V  V40  1  0.49471719  -0.00427348  0.49839355  1
  V  V41  1  0.11993800  0.51217987  0.62901744  1
  V  V42  1  0.25502183  0.37588078  0.12747659  1
  V  V43  1  -0.00275060  0.50203726  -0.00346052  1
  V  V44  1  0.74496121  0.37269479  0.62471818  1
  V  V45  1  0.37062716  0.62160511  0.74033516  1
  V  V46  1  0.62692020  0.12674617  0.48295750  1
  V  V47  1  -0.00085859  0.74977179  0.74800794  1
  V  V48  1  0.62055910  0.50222627  0.62623250  1
  V  V49  1  0.24721480  0.49972975  0.25885699  1
  V  V50  1  0.12549320  0.62231097  0.00055428  1
  V  V51  1  -0.00381424  0.12849803  0.13459376  1
  V  V52  1  0.62751651  0.62390051  0.00103202  1
  V  V53  1  0.00067109  0.11826858  0.63019245  1
  V  V54  1  0.87047716  0.37343781  0.00123928  1
  V  V55  1  0.00015384  0.37505889  0.87644482  1
  V  V56  1  0.74593113  0.49540393  0.74855336  1
  V  V57  1  0.87545762  0.87437366  0.00204519  1
  V  V58  1  0.37469211  0.11546536  0.25041628  1
  V  V59  1  0.12930026  0.38109195  0.75174682  1
  V  V60  1  0.62770270  0.75053974  0.87028437  1
  V  V61  1  0.24831280  0.37762283  0.62772059  1
  V  V62  1  0.86200799  0.11899268  0.26374241  1
  V  V63  1  0.00073655  0.87826162  0.87940303  1
  V  V64  1  0.87477460  0.88282612  0.49582155  1
  V  V65  1  0.37492135  0.37417897  0.49731408  1
  V  V66  1  0.55935218  0.06254646  0.06163550  1
  V  V67  1  0.87083241  0.12660006  0.76038333  1
  V  V68  1  0.87463695  0.48852868  0.37165970  1
  V  V69  1  0.50447790  0.25528607  0.74877361  1
  V  V70  1  0.87781545  0.74709254  0.62300013  1
  V  V71  1  0.87020556  0.62938591  0.25861290  1
  V  V72  1  0.74670594  0.23480665  -0.00110164  1
  V  V73  1  0.87918922  0.62370113  0.74525580  1
  V  V74  1  0.25300329  0.25010102  0.00272656  1
  V  V75  1  0.62903470  0.62208387  0.50091457  1
  V  V76  1  0.50624262  0.49838774  0.00251777  1
  V  V77  1  0.24924558  0.12489666  0.87429126  1
  V  V78  1  0.87213947  0.24879482  0.13317310  1
  V  V79  1  0.12626859  0.12564819  0.50837418  1
  V  V80  1  0.26070244  0.86961907  0.61899500  1
  V  V81  1  0.12288584  0.87855584  0.73910026  1
  V  V82  1  -0.00424509  0.00490050  0.49300449  1
  V  V83  1  0.50812199  0.24195159  0.26015646  1
  V  V84  1  0.62145324  0.38247041  0.25583686  1
  Zn  Zn85  1  0.01154090  0.87677692  0.37120075  1
  Zn  Zn86  1  0.36665389  -0.00731192  0.37739302  1
  Zn  Zn87  1  0.62655454  0.00060089  0.62192801  1
  Zn  Zn88  1  0.86979241  0.00536716  0.88121576  1
  Zn  Zn89  1  0.62364803  0.87602228  0.74613026  1
  Zn  Zn90  1  0.37626126  0.74695987  0.61163566  1
  Zn  Zn91  1  0.50275691  0.74880918  0.24948572  1
  Zn  Zn92  1  0.87904913  0.36933713  0.49536596  1
  Zn  Zn93  1  0.49795492  0.50202439  0.50260554  1
  Zn  Zn94  1  -0.00162618  0.00031783  0.00217707  1
  Zn  Zn95  1  0.24915632  0.61985530  0.87176741  1
  Zn  Zn96  1  0.50537276  0.37607022  0.38178988  1
  Zn  Zn97  1  0.18504741  -0.06178491  0.29548116  1
  Zn  Zn98  1  0.11782501  0.37332812  0.26366920  1
  Zn  Zn99  1  0.37494417  0.49956881  0.37863082  1
  Zn  Zn100  1  0.37385269  0.25170537  0.62478925  1
  Zn  Zn101  1  0.24954062  0.25015454  0.50053715  1
  Zn  Zn102  1  0.02769347  0.75680840  0.26924983  1
  Zn  Zn103  1  0.00019183  0.25079924  0.75095961  1
  Zn  Zn104  1  0.74496885  0.50042032  0.25236866  1
  Zn  Zn105  1  0.62882442  0.87021246  0.23420187  1
  Zn  Zn106  1  0.37572638  0.88119303  -0.00072690  1
  Zn  Zn107  1  0.18992039  0.18970073  0.19190912  1
  Zn  Zn108  1  0.18578351  0.19357855  0.68929087  1
  Zn  Zn109  1  0.18785038  0.68272238  0.18840576  1
  Zn  Zn110  1  0.19026831  0.69042027  0.68678156  1
  Zn  Zn111  1  0.68491313  0.18327134  0.18438621  1
  Zn  Zn112  1  0.68626321  0.18830252  0.68822434  1
  Zn  Zn113  1  0.68734536  0.67965995  0.19422729  1
  Zn  Zn114  1  0.69252488  0.68560944  0.68581019  1
  Zn  Zn115  1  0.30946230  0.30653864  0.31434569  1
  Zn  Zn116  1  0.31455339  0.31427380  0.81277790  1
  Zn  Zn117  1  0.31888489  0.81352908  0.30893469  1
  Zn  Zn118  1  0.31309247  0.81108560  0.80700179  1
  Zn  Zn119  1  0.80988565  0.31257333  0.30952809  1
  Zn  Zn120  1  0.80878603  0.31260054  0.81271295  1
  Zn  Zn121  1  0.85277927  0.83639985  0.29120905  1
  Zn  Zn122  1  0.81179621  0.81549119  0.81319489  1
  Zn  Zn123  1  0.18596621  0.43737006  0.44220624  1
  Zn  Zn124  1  0.18936029  0.43570171  0.94360407  1
  Zn  Zn125  1  0.17993978  0.94192226  0.45538255  1
  Zn  Zn126  1  0.18836259  0.93908571  0.93942933  1
  Zn  Zn127  1  0.69290522  0.43576185  0.43733404  1
  Zn  Zn128  1  0.68743886  0.43547805  0.93751258  1
  Zn  Zn129  1  0.69000705  0.94089682  0.42901024  1
  Zn  Zn130  1  0.67989049  0.94681857  0.93172200  1
  Zn  Zn131  1  0.31734998  0.06543823  0.06241297  1
  Zn  Zn132  1  0.31389400  0.06217841  0.56379328  1
  Zn  Zn133  1  0.31265644  0.55922908  0.06318666  1
  Zn  Zn134  1  0.30654892  0.55419186  0.56721774  1
  Zn  Zn135  1  0.80873802  0.05667630  0.06830314  1
  Zn  Zn136  1  0.81026020  0.06573930  0.56548388  1
  Zn  Zn137  1  0.80992237  0.56127295  0.06393768  1
  Zn  Zn138  1  0.81264780  0.56229788  0.55901849  1
  Zn  Zn139  1  0.43957855  0.43655850  0.19099338  1
  Zn  Zn140  1  0.43607941  0.43731503  0.68692205  1
  Zn  Zn141  1  0.44348245  0.93552810  0.18817294  1
  Zn  Zn142  1  0.43777913  0.93872077  0.68918362  1
  Zn  Zn143  1  0.93559466  0.43634898  0.18694407  1
  Zn  Zn144  1  0.94076051  0.43572762  0.68491670  1
  Zn  Zn145  1  0.93903613  0.94371223  0.18568399  1
  Zn  Zn146  1  0.93354391  0.93897782  0.68722902  1
  Zn  Zn147  1  0.05677684  0.07208014  0.31540699  1
  Zn  Zn148  1  0.06097281  0.06144036  0.81285212  1
  Zn  Zn149  1  0.05599628  0.56244404  0.31358810  1
  Zn  Zn150  1  0.06278234  0.56476000  0.81215234  1
  Zn  Zn151  1  0.56562584  0.05642383  0.30669844  1
  Zn  Zn152  1  0.56215665  0.06139290  0.80966521  1
  Zn  Zn153  1  0.56036262  0.56156453  0.31876411  1
  Zn  Zn154  1  0.55975062  0.56415975  0.80983060  1
  Zn  Zn155  1  0.43506499  0.18760736  0.43747599  1
  Zn  Zn156  1  0.44136626  0.18664287  0.93644918  1
  Zn  Zn157  1  0.45939159  0.68283061  0.43827542  1
  Zn  Zn158  1  0.43956414  0.68580465  0.93230155  1
  Zn  Zn159  1  0.93591621  0.18802361  0.44135105  1
  Zn  Zn160  1  0.93780249  0.19025291  0.94378201  1
  Zn  Zn161  1  0.94214820  0.68745116  0.43634587  1
  Zn  Zn162  1  0.93573947  0.69138923  0.93711328  1
  Zn  Zn163  1  0.05459663  0.32014576  0.08049832  1
  Zn  Zn164  1  0.06167105  0.31115792  0.56411204  1
  Zn  Zn165  1  0.07586153  0.80176091  0.09201221  1
  Zn  Zn166  1  0.05991786  0.81336312  0.55943775  1
  Zn  Zn167  1  0.56647601  0.30416318  0.06500534  1
  Zn  Zn168  1  0.56428572  0.31246577  0.56178279  1
  Zn  Zn169  1  0.54408195  0.81327036  0.05844839  1
  Zn  Zn170  1  0.56525478  0.81324122  0.55851062  1
  O  O171  1  0.11888283  0.12677039  0.11980172  1
  O  O172  1  0.11309963  0.13594374  0.62094926  1
  O  O173  1  0.11399429  0.60892262  0.12005048  1
  O  O174  1  0.13144551  0.61406073  0.62327785  1
  O  O175  1  0.61125831  0.12872056  0.12091451  1
  O  O176  1  0.61227992  0.12449166  0.62355985  1
  O  O177  1  0.61122612  0.62911612  0.12087388  1
  O  O178  1  0.63631897  0.61274120  0.61694872  1
  O  O179  1  0.37039875  0.37324359  0.38908306  1
  O  O180  1  0.38728854  0.38010997  0.87895802  1
  O  O181  1  0.39152254  0.87617557  0.37011548  1
  O  O182  1  0.37973609  0.88349221  0.86967150  1
  O  O183  1  0.87891499  0.38449527  0.37158684  1
  O  O184  1  0.87886696  0.38071151  0.87947291  1
  O  O185  1  0.87298994  0.87891525  0.39569985  1
  O  O186  1  0.88315437  0.87346307  0.88442085  1
  O  O187  1  0.24767049  0.01085624  0.37622089  1
  O  O188  1  0.25388226  0.00598391  0.86450339  1
  O  O189  1  0.25078110  0.49371249  0.36212435  1
  O  O190  1  0.26642069  0.49737702  0.88145727  1
  O  O191  1  0.74822231  0.00367279  0.35518623  1
  O  O192  1  0.75290430  -0.00442296  0.85865294  1
  O  O193  1  0.76908572  0.49649637  0.37276874  1
  O  O194  1  0.75349460  0.50280996  0.86570303  1
  O  O195  1  0.24593732  0.49188216  0.13504998  1
  O  O196  1  0.23495691  0.48617306  0.62517323  1
  O  O197  1  0.24470329  0.99474744  0.11908356  1
  O  O198  1  0.25615437  0.99284140  0.63863325  1
  O  O199  1  0.75459620  0.48309547  0.12802041  1
  O  O200  1  0.74731282  0.49150134  0.63063665  1
  O  O201  1  0.75178408  1.00862463  0.15018037  1
  O  O202  1  0.75000174  0.99196676  0.63366111  1
  O  O203  1  0.03976292  0.39230479  0.18260167  1
  O  O204  1  0.01022303  0.37408770  0.75818476  1
  O  O205  1  -0.03449420  0.86511361  0.26011722  1
  O  O206  1  0.00594591  0.87230291  0.75559600  1
  O  O207  1  0.50978732  0.36767278  0.25230925  1
  O  O208  1  0.49475991  0.36312882  0.75666168  1
  O  O209  1  0.50774562  0.86915107  0.25671551  1
  O  O210  1  0.50054777  0.86375170  0.75570088  1
  O  O211  1  0.49390648  0.13668308  0.25755590  1
  O  O212  1  0.49621788  0.13417158  0.74316748  1
  O  O213  1  0.48939422  0.62293395  0.24284966  1
  O  O214  1  0.48730929  0.63355184  0.75255294  1
  O  O215  1  0.98759081  0.12455036  0.23893773  1
  O  O216  1  0.99309209  0.12799015  0.74591167  1
  O  O217  1  0.98902408  0.62736563  0.24010960  1
  O  O218  1  0.98632379  0.63207749  0.75614820  1
  O  O219  1  0.37500506  0.25369204  0.00904741  1
  O  O220  1  0.37203766  0.25772906  0.50513243  1
  O  O221  1  0.36752505  0.74669437  0.00402826  1
  O  O222  1  0.36527549  0.73052466  0.49287824  1
  O  O223  1  0.86471176  0.25686474  0.00592912  1
  O  O224  1  0.86637032  0.24830057  0.51065113  1
  O  O225  1  0.86664457  0.75594580  0.00447041  1
  O  O226  1  0.87025203  0.75505941  0.50771784  1
  O  O227  1  0.12448807  0.24087967  0.49392630  1
  O  O228  1  0.12986373  0.24164877  0.99786428  1
  O  O229  1  0.11977617  0.73078948  0.50896617  1
  O  O230  1  0.13455348  0.74362383  0.99958433  1
  O  O231  1  0.63095900  0.23618926  0.50379753  1
  O  O232  1  0.63141061  0.25289881  0.98533651  1
  O  O233  1  0.63484397  0.74241850  0.49633374  1
  O  O234  1  0.63048537  0.74764727  0.99280502  1
  O  O235  1  0.48866379  0.25737002  0.13746522  1
  O  O236  1  0.50055031  0.24503149  0.63431827  1
  O  O237  1  0.48678747  0.73922721  0.12423456  1
  O  O238  1  0.49643918  0.75486205  0.63333647  1
  O  O239  1  0.98409957  0.23946209  0.11649919  1
  O  O240  1  0.98902214  0.24374859  0.62808195  1
  O  O241  1  0.98261815  0.73482987  0.10974720  1
  O  O242  1  0.98537328  0.75695988  0.63237253  1
  O  O243  1  0.01297071  0.24721487  0.37937626  1
  O  O244  1  0.00680414  0.25893972  0.87769477  1
  O  O245  1  -0.00121520  0.75974278  0.37605337  1
  O  O246  1  0.00418318  0.76083980  0.86905354  1
  O  O247  1  0.49547584  0.25572326  0.36207519  1
  O  O248  1  0.50980820  0.25594908  0.86989996  1
  O  O249  1  0.51073141  0.75692270  0.37161457  1
  O  O250  1  0.51047265  0.75289257  0.86493498  1
  O  O251  1  0.24112678  0.12509183  0.49762212  1
  O  O252  1  0.24380157  0.13288363  0.99527000  1
  O  O253  1  0.23881278  0.62047886  0.49394556  1
  O  O254  1  0.24437587  0.63059964  0.99900104  1
  O  O255  1  0.73435231  0.13075756  0.50605139  1
  O  O256  1  0.75869770  0.13625532  0.99990530  1
  O  O257  1  0.74355497  0.63576641  0.50213581  1
  O  O258  1  0.73983206  0.61550017  0.99047338  1
  O  O259  1  0.26721574  0.36807013  0.00070811  1
  O  O260  1  0.25552711  0.37344643  0.51012997  1
  O  O261  1  0.25381736  0.86669303  0.00751618  1
  O  O262  1  0.25171334  0.88464217  0.52118933  1
  O  O263  1  0.75260267  0.36922284  0.00661452  1
  O  O264  1  0.75515320  0.36594119  0.50858988  1
  O  O265  1  0.75584550  0.87575018  -0.00849619  1
  O  O266  1  0.75533873  0.87164264  0.50758242  1
  O  O267  1  0.13189422  0.50079199  0.24833270  1
  O  O268  1  0.11958016  0.49348640  0.74255668  1
  O  O269  1  0.12393800  1.01593305  0.23635283  1
  O  O270  1  0.13288234  0.99058827  0.75524794  1
  O  O271  1  0.62377040  0.48719027  0.25105817  1
  O  O272  1  0.63695775  0.50824353  0.74294991  1
  O  O273  1  0.63394322  0.98749973  0.24928380  1
  O  O274  1  0.63290507  0.99792343  0.74447101  1
  O  O275  1  0.38279255  0.01290772  0.25248549  1
  O  O276  1  0.36710497  0.00782680  0.75723889  1
  O  O277  1  0.36790886  0.50652728  0.25277095  1
  O  O278  1  0.38124097  0.51265203  0.75640495  1
  O  O279  1  0.86815423  0.01516871  0.24910644  1
  O  O280  1  0.86816203  0.00999882  0.75251233  1
  O  O281  1  0.87910451  0.50551576  0.25941838  1
  O  O282  1  0.87062238  0.50638398  0.75257987  1
  O  O283  1  0.12807424  0.35845046  0.37912632  1
  O  O284  1  0.12191044  0.37352912  0.87128018  1
  O  O285  1  0.12513856  0.88919141  0.37457949  1
  O  O286  1  0.11868630  0.87036887  0.87057122  1
  O  O287  1  0.62698598  0.37510145  0.36056043  1
  O  O288  1  0.61421763  0.37067750  0.87425732  1
  O  O289  1  0.61841227  0.86114962  0.37857618  1
  O  O290  1  0.61736242  0.86738810  0.86955202  1
  O  O291  1  0.36973305  0.13517676  0.13575535  1
  O  O292  1  0.38680010  0.12744360  0.63065249  1
  O  O293  1  0.38146219  0.62876398  0.13009937  1
  O  O294  1  0.37002126  0.62428400  0.63634832  1
  O  O295  1  0.88052173  0.13217087  0.12900763  1
  O  O296  1  0.88020665  0.13512449  0.63507776  1
  O  O297  1  0.87964893  0.62809329  0.12925232  1
  O  O298  1  0.86885620  0.63368665  0.63389305  1
  O  O299  1  0.26112724  0.25652035  0.12230381  1
  O  O300  1  0.25044104  0.26349836  0.62498431  1
  O  O301  1  0.26032693  0.75433143  0.11423448  1
  O  O302  1  0.25592799  0.76488813  0.62926553  1
  O  O303  1  0.75317591  0.25667556  0.11630501  1
  O  O304  1  0.75482254  0.25639680  0.62170632  1
  O  O305  1  0.75700947  0.73864725  0.11857152  1
  O  O306  1  0.76022209  0.75746206  0.61976859  1
  O  O307  1  0.24140580  0.23711189  0.37986860  1
  O  O308  1  0.24613041  0.24486940  0.88201134  1
  O  O309  1  0.24949601  0.74801877  0.37516206  1
  O  O310  1  0.24607364  0.75172234  0.88530022  1
  O  O311  1  0.75486519  0.25507103  0.39060856  1
  O  O312  1  0.73601703  0.25444936  0.88080249  1
  O  O313  1  0.74715577  0.75604655  0.38765947  1
  O  O314  1  0.73554889  0.74429358  0.86523645  1
  O  O315  1  0.00766072  0.12342898  0.00864245  1
  O  O316  1  0.00257577  0.12191536  0.51069505  1
  O  O317  1  0.00492526  0.62060055  0.00113139  1
  O  O318  1  0.00869838  0.61343229  0.49976828  1
  O  O319  1  0.49491487  0.11672726  0.00321496  1
  O  O320  1  0.50963718  0.12316571  0.50551288  1
  O  O321  1  0.50548536  0.61765893  0.00559361  1
  O  O322  1  0.52106796  0.61991483  0.50622915  1
  O  O323  1  0.49033211  0.37564614  0.50150003  1
  O  O324  1  0.50008288  0.38006276  0.99412655  1
  O  O325  1  0.50589842  0.88550479  0.49172988  1
  O  O326  1  0.49104536  0.86854870  0.97792167  1
  O  O327  1  0.99721824  0.38804129  0.50620220  1
  O  O328  1  0.99131242  0.38239120  0.99670014  1
  O  O329  1  0.99220325  0.88981898  0.50748691  1
  O  O330  1  0.99276775  0.87439208  0.99242711  1
  O  O331  1  0.49367181  0.49503191  0.38181716  1
  O  O332  1  0.49385306  0.49276762  0.87931910  1
  O  O333  1  0.50227832  0.99125893  0.38161749  1
  O  O334  1  0.48944227  0.98947106  0.86211255  1
  O  O335  1  0.98776425  0.50112839  0.38330119  1
  O  O336  1  0.99395569  0.49568751  0.87997716  1
  O  O337  1  0.99871078  1.00538430  0.39010383  1
  O  O338  1  0.99806753  0.98777375  0.87782072  1
  O  O339  1  0.00943281  0.00994998  0.12163823  1
  O  O340  1  -0.00477693  0.01482338  0.62376587  1
  O  O341  1  -0.00769026  0.51496349  0.11221689  1
  O  O342  1  0.00959034  0.49866660  0.61724376  1
  O  O343  1  0.50288687  -0.00378740  0.11550003  1
  O  O344  1  0.50199747  0.00713671  0.61830566  1
  O  O345  1  0.49284921  0.50751139  0.11500962  1
  O  O346  1  0.51784070  0.49209249  0.62674124  1
  O  O347  1  0.24593106  0.37944231  0.24127691  1
  O  O348  1  0.23757506  0.37284325  0.74709375  1
  O  O349  1  0.25788368  0.87537580  0.23285184  1
  O  O350  1  0.24198289  0.88257977  0.74518763  1
  O  O351  1  0.73600444  0.37367018  0.24296691  1
  O  O352  1  0.75526549  0.38773021  0.74235365  1
  O  O353  1  0.75399856  0.88146130  0.25030256  1
  O  O354  1  0.75019257  0.88197021  0.74067987  1
  O  O355  1  0.26129340  0.13004035  0.25996012  1
  O  O356  1  0.25245990  0.11961721  0.75331354  1
  O  O357  1  0.26140958  0.61581306  0.24245263  1
  O  O358  1  0.26589350  0.63060800  0.75467053  1
  O  O359  1  0.76025932  0.13026810  0.25206321  1
  O  O360  1  0.75925961  0.11726345  0.74346295  1
  O  O361  1  0.76602577  0.61482862  0.24420069  1
  O  O362  1  0.76106074  0.61617199  0.75577828  1
  O  O363  1  0.36564988  0.12337806  0.36887314  1
  O  O364  1  0.36925667  0.12076010  0.86765487  1
  O  O365  1  0.36800901  0.62891499  0.37124757  1
  O  O366  1  0.37446429  0.61491355  0.86751109  1
  O  O367  1  0.87841687  0.13221941  0.36065972  1
  O  O368  1  0.88202867  0.12644739  0.86401889  1
  O  O369  1  0.87926226  0.61856167  0.36081246  1
  O  O370  1  0.86872860  0.62013340  0.86898501  1
  O  O371  1  0.15382369  0.37781327  0.09467398  1
  O  O372  1  0.12830115  0.37970231  0.63488737  1
  O  O373  1  0.13672660  0.89587063  0.11351078  1
  O  O374  1  0.13277964  0.87009859  0.63634400  1
  O  O375  1  0.63063967  0.36962721  0.13686974  1
  O  O376  1  0.63902444  0.38134912  0.62166626  1
  O  O377  1  0.63541944  0.85395272  0.11416876  1
  O  O378  1  0.63859377  0.87477411  0.62479940  1
  O  O379  1  0.12457865  0.25022944  0.26643874  1
  O  O380  1  0.12242839  0.26021469  0.76131474  1
  O  O381  1  0.11168126  0.76005674  0.19849900  1
  O  O382  1  0.11931050  0.75700935  0.75615330  1
  O  O383  1  0.61055655  0.25594505  0.24632786  1
  O  O384  1  0.61814824  0.24853164  0.76292439  1
  O  O385  1  0.62626122  0.75047225  0.25834427  1
  O  O386  1  0.61733779  0.74742446  0.75306996  1
  O  O387  1  0.38467429  0.24416210  0.24550673  1
  O  O388  1  0.38431900  0.24361073  0.75034338  1
  O  O389  1  0.37603380  0.73936510  0.23879518  1
  O  O390  1  0.38338470  0.73691495  0.74979440  1
  O  O391  1  0.86971842  0.24423426  0.23787489  1
  O  O392  1  0.87428658  0.24392296  0.74515054  1
  O  O393  1  0.86780668  0.73398326  0.23632939  1
  O  O394  1  0.87735961  0.74297426  0.74407426  1
  O  O395  1  0.37533356  0.49142904  0.50054048  1
  O  O396  1  0.38674001  0.49557149  0.99257272  1
  O  O397  1  0.39105271  1.00910039  0.49604357  1
  O  O398  1  0.36501695  0.99998632  0.98104490  1
  O  O399  1  0.88112906  0.49884540  0.48874537  1
  O  O400  1  0.87742018  0.49440717  0.99200588  1
  O  O401  1  0.88250274  0.99501797  0.51105561  1
  O  O402  1  0.87598760  0.99044057  0.99924907  1
  O  O403  1  0.12660444  0.01654464  0.00532573  1
  O  O404  1  0.11211317  0.01843532  0.50847925  1
  O  O405  1  0.11611960  0.50389693  0.00436209  1
  O  O406  1  0.11766168  0.50791347  0.50626974  1
  O  O407  1  0.62339736  0.00948808  0.00200771  1
  O  O408  1  0.61856283  0.01332941  0.50056086  1
  O  O409  1  0.61227783  0.50448342  -0.00601785  1
  O  O410  1  0.63202779  0.50608565  0.50745795  1
  O  O411  1  0.36961928  0.36982796  0.12086890  1
  O  O412  1  0.36515419  0.37652342  0.61907044  1
  O  O413  1  0.37250940  0.86588377  0.12038960  1
  O  O414  1  0.36455608  0.87075161  0.63113583  1
  O  O415  1  0.86563015  0.36601664  0.12184370  1
  O  O416  1  0.86733657  0.36357641  0.62645637  1
  O  O417  1  0.87679994  0.86374707  0.11034992  1
  O  O418  1  0.86574255  0.86821485  0.62064309  1
  O  O419  1  0.12913226  0.13351672  0.38394462  1
  O  O420  1  0.12862477  0.13062090  0.88233943  1
  O  O421  1  0.12057414  0.62671069  0.38575301  1
  O  O422  1  0.12823681  0.63285496  0.88064019  1
  O  O423  1  0.61990435  0.12649788  0.38517003  1
  O  O424  1  0.62234745  0.13647206  0.87363415  1
  O  O425  1  0.62359942  0.63816375  0.38174138  1
  O  O426  1  0.62718076  0.63278596  0.88019620  1
