# generated using pymatgen
data_V85Zn86O256
_symmetry_space_group_name_H-M   'P 1'
_cell_length_a   16.93097406
_cell_length_b   16.92905337
_cell_length_c   16.92551456
_cell_angle_alpha   89.94911611
_cell_angle_beta   90.06311999
_cell_angle_gamma   89.98239802
_symmetry_Int_Tables_number   1
_chemical_formula_structural   V85Zn86O256
_chemical_formula_sum   'V85 Zn86 O256'
_cell_volume   4851.27667449
_cell_formula_units_Z   1
loop_
 _symmetry_equiv_pos_site_id
 _symmetry_equiv_pos_as_xyz
  1  'x, y, z'
loop_
 _atom_site_type_symbol
 _atom_site_label
 _atom_site_symmetry_multiplicity
 _atom_site_fract_x
 _atom_site_fract_y
 _atom_site_fract_z
 _atom_site_occupancy
  V  V0  1  0.86661268  0.74810222  0.12950395  1
  V  V1  1  0.63185313  0.24903701  0.37339158  1
  V  V2  1  0.74867396  0.75048504  0.48947334  1
  V  V3  1  0.25263098  0.74963812  0.50918047  1
  V  V4  1  0.81012337  0.16995120  0.81568358  1
  V  V5  1  0.37798232  0.50062961  0.37500788  1
  V  V6  1  0.00996902  0.50795250  -0.00313654  1
  V  V7  1  0.74851564  0.87196927  0.62517840  1
  V  V8  1  0.49863907  0.00062664  0.50041728  1
  V  V9  1  0.49686100  0.75729233  0.75076465  1
  V  V10  1  0.12290628  -0.00166498  0.64573709  1
  V  V11  1  0.37344238  0.62961499  0.74583443  1
  V  V12  1  -0.00014733  0.12442474  0.12821759  1
  V  V13  1  0.74398368  0.00105648  0.75563637  1
  V  V14  1  0.25092170  0.62545654  0.37617570  1
  V  V15  1  0.62603930  0.64567168  -0.00701067  1
  V  V16  1  0.62214395  -0.00386375  0.63025292  1
  V  V17  1  0.50620383  0.24605561  0.24623298  1
  V  V18  1  0.62640679  0.87440731  0.25553725  1
  V  V19  1  0.63135722  0.38711873  0.24329875  1
  V  V20  1  0.36114442  0.12824515  0.75081692  1
  V  V21  1  -0.01288320  0.12723908  0.62925134  1
  V  V22  1  -0.00322110  0.88765634  0.37829102  1
  V  V23  1  0.12437185  0.38081775  0.74372176  1
  V  V24  1  0.87683363  0.88621076  0.49574220  1
  V  V25  1  0.25056597  0.24913020  -0.00316914  1
  V  V26  1  0.12069099  0.75029429  0.37881206  1
  V  V27  1  0.62094437  0.00802462  0.12906327  1
  V  V28  1  0.37488601  0.49914163  0.87256469  1
  V  V29  1  0.12976226  0.25091778  0.38556482  1
  V  V30  1  0.37729401  0.12512470  0.24636690  1
  V  V31  1  -0.00474881  0.37889723  0.87733008  1
  V  V32  1  0.00190414  0.24886193  0.25224598  1
  V  V33  1  0.87569978  0.00215242  0.87143833  1
  V  V34  1  0.24808906  0.62341176  0.88245949  1
  V  V35  1  0.02712491  0.62090412  0.12799291  1
  V  V36  1  0.12779651  0.37672833  0.24481021  1
  V  V37  1  0.49771858  0.00783360  -0.00039673  1
  V  V38  1  0.62380237  0.49174141  0.62537543  1
  V  V39  1  0.75773876  0.24864194  0.50084102  1
  V  V40  1  0.75465974  0.61629488  0.37483852  1
  V  V41  1  0.75584795  0.37160270  0.62770287  1
  V  V42  1  0.37146146  0.36516433  0.49716510  1
  V  V43  1  0.12677922  0.62105018  0.50874805  1
  V  V44  1  0.12551603  0.74749571  0.88229674  1
  V  V45  1  0.00220689  0.49808821  0.50234126  1
  V  V46  1  -0.00109511  0.37538475  0.37559989  1
  V  V47  1  0.75182826  0.00359485  0.26295146  1
  V  V48  1  0.36082835  0.00376319  0.86980720  1
  V  V49  1  0.37959589  0.24953598  0.12366149  1
  V  V50  1  0.81091145  0.56410560  0.19641663  1
  V  V51  1  0.13035522  0.12461832  -0.00243752  1
  V  V52  1  0.25046134  0.87455896  0.12553695  1
  V  V53  1  0.25251933  0.12877713  0.38300935  1
  V  V54  1  0.12316724  -0.00036803  0.12588502  1
  V  V55  1  0.62818783  0.12484017  0.49509896  1
  V  V56  1  0.86819337  0.86931633  0.00253048  1
  V  V57  1  0.75257326  0.24598855  0.00123774  1
  V  V58  1  0.87209207  0.12129660  0.26510714  1
  V  V59  1  0.50107271  0.75022532  0.25052365  1
  V  V60  1  0.12170185  0.11248899  0.50396101  1
  V  V61  1  0.51268964  0.49827927  0.00125603  1
  V  V62  1  0.62487876  0.62658805  0.49444019  1
  V  V63  1  0.00043802  0.61749729  0.62757348  1
  V  V64  1  0.50776556  0.37220232  0.86358492  1
  V  V65  1  0.50431175  0.62137629  0.12397106  1
  V  V66  1  0.00835117  0.75270487  0.74748542  1
  V  V67  1  0.37685375  0.37526199  -0.00180214  1
  V  V68  1  0.24575842  0.87825151  0.63754346  1
  V  V69  1  0.87411093  0.25160004  0.12770685  1
  V  V70  1  0.00714101  0.87637891  0.87205245  1
  V  V71  1  0.74658982  0.50095806  0.75800328  1
  V  V72  1  0.25079511  0.00094736  0.25236311  1
  V  V73  1  0.62492938  0.12772016  -0.00406460  1
  V  V74  1  0.24991723  0.50134401  0.24232710  1
  V  V75  1  0.50043765  0.86749350  0.37849434  1
  V  V76  1  0.66938224  0.81540110  0.80799706  1
  V  V77  1  0.12308784  0.87354861  0.25210453  1
  V  V78  1  0.37565891  0.87418028  -0.00129689  1
  V  V79  1  0.49722815  0.62921331  0.62311471  1
  V  V80  1  0.87581343  0.62040513  0.76163064  1
  V  V81  1  -0.00252009  -0.00031473  0.00132155  1
  V  V82  1  0.12530663  0.24864870  0.86985400  1
  V  V83  1  0.37311577  0.87218873  0.50736357  1
  V  V84  1  0.87672814  0.74910807  0.62148065  1
  Zn  Zn85  1  0.50201529  0.87584457  0.87360618  1
  Zn  Zn86  1  0.62983196  0.24742833  0.86802384  1
  Zn  Zn87  1  0.87377234  0.38191211  0.00022480  1
  Zn  Zn88  1  0.50350149  0.37642172  0.37304338  1
  Zn  Zn89  1  0.50267637  0.24685835  0.74302241  1
  Zn  Zn90  1  0.37422668  -0.00056405  0.37603782  1
  Zn  Zn91  1  0.87688452  0.50318756  0.37077183  1
  Zn  Zn92  1  0.37727359  0.62555244  0.24823338  1
  Zn  Zn93  1  0.24318404  0.37564886  0.61454645  1
  Zn  Zn94  1  0.36952133  0.24751169  0.62047315  1
  Zn  Zn95  1  0.87738794  0.37340471  0.50219906  1
  Zn  Zn96  1  0.37667830  0.75021808  0.12461815  1
  Zn  Zn97  1  -0.01394762  0.24873439  0.74884603  1
  Zn  Zn98  1  0.74305203  0.63946829  0.87207143  1
  Zn  Zn99  1  0.50063393  0.49841563  0.49814172  1
  Zn  Zn100  1  0.74609233  0.87470680  0.12437643  1
  Zn  Zn101  1  -0.00507851  0.74258387  0.25288865  1
  Zn  Zn102  1  0.24787168  0.38035086  0.12061912  1
  Zn  Zn103  1  0.74864400  0.38323297  0.12461565  1
  Zn  Zn104  1  0.49570312  0.12639988  0.62774085  1
  Zn  Zn105  1  0.24347838  0.50310792  0.74120141  1
  Zn  Zn106  1  0.24604618  0.74608249  0.00438973  1
  Zn  Zn107  1  0.19037230  0.19060896  0.18866957  1
  Zn  Zn108  1  0.19031472  0.19328891  0.68243264  1
  Zn  Zn109  1  0.19149645  0.69143739  0.19249299  1
  Zn  Zn110  1  0.18809026  0.68784852  0.69096010  1
  Zn  Zn111  1  0.69006003  0.18447501  0.18525308  1
  Zn  Zn112  1  0.67659068  0.18940694  0.68093687  1
  Zn  Zn113  1  0.67942715  0.69358640  0.18213036  1
  Zn  Zn114  1  0.68933772  0.67967146  0.67842946  1
  Zn  Zn115  1  0.31336076  0.31328900  0.31329178  1
  Zn  Zn116  1  0.30961791  0.31080277  0.81090932  1
  Zn  Zn117  1  0.31394366  0.81135589  0.31709804  1
  Zn  Zn118  1  0.31484375  0.81003150  0.81569706  1
  Zn  Zn119  1  0.81161020  0.31393945  0.31225662  1
  Zn  Zn120  1  0.80774495  0.33250216  0.81451096  1
  Zn  Zn121  1  0.81321092  0.81086272  0.31135882  1
  Zn  Zn122  1  0.83425364  0.81489132  0.80807732  1
  Zn  Zn123  1  0.18850633  0.44026427  0.43416671  1
  Zn  Zn124  1  0.18588299  0.43642483  0.93428247  1
  Zn  Zn125  1  0.18886311  0.93714186  0.43923227  1
  Zn  Zn126  1  0.18584284  0.93498693  0.93834704  1
  Zn  Zn127  1  0.68659310  0.43574172  0.43774414  1
  Zn  Zn128  1  0.68725187  0.43520763  0.93958744  1
  Zn  Zn129  1  0.68673995  0.93624653  0.43783972  1
  Zn  Zn130  1  0.69013574  0.94736543  0.94187657  1
  Zn  Zn131  1  0.31255048  0.06236910  0.06303226  1
  Zn  Zn132  1  0.30859233  0.05949824  0.56622294  1
  Zn  Zn133  1  0.32038270  0.56311482  0.06122537  1
  Zn  Zn134  1  0.31185890  0.55324157  0.56532574  1
  Zn  Zn135  1  0.80927319  0.06278568  0.06798413  1
  Zn  Zn136  1  0.80642287  0.06108147  0.56314357  1
  Zn  Zn137  1  0.81474915  0.56499691  0.03186552  1
  Zn  Zn138  1  0.81485951  0.55920725  0.56309239  1
  Zn  Zn139  1  0.44046734  0.43527170  0.18735859  1
  Zn  Zn140  1  0.43363365  0.44115427  0.68337750  1
  Zn  Zn141  1  0.43934883  0.93951959  0.18666218  1
  Zn  Zn142  1  0.43166086  0.94107988  0.68803663  1
  Zn  Zn143  1  0.94744193  0.43669349  0.17934935  1
  Zn  Zn144  1  0.93625592  0.43776366  0.69114662  1
  Zn  Zn145  1  0.93563750  0.93464724  0.19260403  1
  Zn  Zn146  1  0.93814063  0.94082055  0.68534926  1
  Zn  Zn147  1  0.06446469  0.06418609  0.31396401  1
  Zn  Zn148  1  0.06095040  0.06811065  0.81219342  1
  Zn  Zn149  1  0.06569299  0.56086500  0.31373394  1
  Zn  Zn150  1  0.06358443  0.56309069  0.81647144  1
  Zn  Zn151  1  0.56118899  0.06230428  0.31606389  1
  Zn  Zn152  1  0.55508374  0.06494838  0.81302966  1
  Zn  Zn153  1  0.56534941  0.56509118  0.31361760  1
  Zn  Zn154  1  0.56168544  0.56444361  0.81132033  1
  Zn  Zn155  1  0.44317093  0.18750673  0.43262890  1
  Zn  Zn156  1  0.43697978  0.18519235  0.93309669  1
  Zn  Zn157  1  0.43560293  0.68779306  0.43901221  1
  Zn  Zn158  1  0.44025607  0.68988742  0.93349260  1
  Zn  Zn159  1  0.94216233  0.18480043  0.44361887  1
  Zn  Zn160  1  0.94537349  0.19288653  0.94415738  1
  Zn  Zn161  1  0.93520503  0.68765693  0.43755329  1
  Zn  Zn162  1  0.94035560  0.68819897  0.94269688  1
  Zn  Zn163  1  0.06215784  0.31431782  0.06111973  1
  Zn  Zn164  1  0.05934488  0.30419919  0.56428837  1
  Zn  Zn165  1  0.05629753  0.80914530  0.06410900  1
  Zn  Zn166  1  0.06288666  0.81651277  0.56282257  1
  Zn  Zn167  1  0.56328882  0.31237636  0.06167407  1
  Zn  Zn168  1  0.55593857  0.31126568  0.56079210  1
  Zn  Zn169  1  0.55914755  0.81887457  0.06760154  1
  Zn  Zn170  1  0.56448454  0.80977465  0.56465378  1
  O  O171  1  0.12039553  0.12064773  0.12112827  1
  O  O172  1  0.12399895  0.11412952  0.62108514  1
  O  O173  1  0.12507779  0.63024642  0.12022437  1
  O  O174  1  0.11763661  0.62930375  0.61574160  1
  O  O175  1  0.62642914  0.11838679  0.11368314  1
  O  O176  1  0.62096883  0.11154233  0.61233732  1
  O  O177  1  0.61319949  0.62995462  0.11007317  1
  O  O178  1  0.61998823  0.61594592  0.61180366  1
  O  O179  1  0.37862888  0.38219071  0.37960053  1
  O  O180  1  0.38100488  0.38247865  0.87824396  1
  O  O181  1  0.38111533  0.87738792  0.38770414  1
  O  O182  1  0.37461439  0.88617996  0.88222146  1
  O  O183  1  0.88897536  0.37635247  0.37485467  1
  O  O184  1  0.89070223  0.37501213  0.87783827  1
  O  O185  1  0.88535928  0.86788873  0.38283457  1
  O  O186  1  0.88697021  0.88163267  0.88437967  1
  O  O187  1  0.25140121  0.00757854  0.36860687  1
  O  O188  1  0.26248332  -0.00124697  0.88203386  1
  O  O189  1  0.25696220  0.50731460  0.36544046  1
  O  O190  1  0.25788336  0.50643134  0.87209973  1
  O  O191  1  0.74480763  -0.00010214  0.36256742  1
  O  O192  1  0.75638757  0.00179360  0.86381270  1
  O  O193  1  0.75432581  0.51076869  0.37981043  1
  O  O194  1  0.74412217  0.49866984  0.86100179  1
  O  O195  1  0.25922984  0.50086435  0.13790252  1
  O  O196  1  0.24776003  0.48948533  0.62868741  1
  O  O197  1  0.24442786  0.99071343  0.13046580  1
  O  O198  1  0.23318836  0.99126153  0.62156010  1
  O  O199  1  0.76139135  0.50642406  0.12825588  1
  O  O200  1  0.74353753  0.49119751  0.62847728  1
  O  O201  1  0.73617785  0.99704990  0.13253103  1
  O  O202  1  0.74476460  0.99251607  0.63853299  1
  O  O203  1  0.00860355  0.37144701  0.25705049  1
  O  O204  1  0.00573868  0.37130663  0.75717687  1
  O  O205  1  0.00697435  0.86956067  0.25864554  1
  O  O206  1  -0.00910943  0.86430914  0.75940792  1
  O  O207  1  0.51056974  0.36207016  0.24920236  1
  O  O208  1  0.49309387  0.37624113  0.76187866  1
  O  O209  1  0.50361033  0.87121286  0.25931831  1
  O  O210  1  0.49318077  0.86150919  0.74447582  1
  O  O211  1  0.49204045  0.13606922  0.25481399  1
  O  O212  1  0.48359578  0.12340545  0.74753681  1
  O  O213  1  0.50369868  0.63298910  0.24231507  1
  O  O214  1  0.49388796  0.63359103  0.74288359  1
  O  O215  1  0.99544148  0.12935921  0.24575242  1
  O  O216  1  1.00132621  0.12842581  0.73595379  1
  O  O217  1  1.01176629  0.62453592  0.23377097  1
  O  O218  1  0.99505465  0.62821349  0.74472021  1
  O  O219  1  0.36868251  0.25030089  0.00507393  1
  O  O220  1  0.37735472  0.26253315  0.49137808  1
  O  O221  1  0.37490375  0.76470166  -0.00108678  1
  O  O222  1  0.36368984  0.75770507  0.49836811  1
  O  O223  1  0.86975964  0.25140451  0.00996367  1
  O  O224  1  0.86125399  0.25081141  0.49480320  1
  O  O225  1  0.88046992  0.75839585  0.01219738  1
  O  O226  1  0.86667406  0.75494985  0.50565745  1
  O  O227  1  0.12256950  0.24048027  0.48933907  1
  O  O228  1  0.13123077  0.24424618  0.99508192  1
  O  O229  1  0.12996642  0.74342876  0.49536943  1
  O  O230  1  0.12471461  0.75588363  0.98673437  1
  O  O231  1  0.62981811  0.24377040  0.49235516  1
  O  O232  1  0.63311880  0.24441810  0.99569616  1
  O  O233  1  0.63720642  0.74084342  0.50549563  1
  O  O234  1  0.61765924  0.74444106  0.99936669  1
  O  O235  1  0.48827450  0.25064846  0.12942136  1
  O  O236  1  0.48906296  0.24525511  0.62412958  1
  O  O237  1  0.49745802  0.74571903  0.13428132  1
  O  O238  1  0.50456383  0.73619205  0.63033774  1
  O  O239  1  0.99492709  0.24526944  0.13194014  1
  O  O240  1  0.99666218  0.23416472  0.62945273  1
  O  O241  1  0.99393068  0.73078203  0.12437557  1
  O  O242  1  0.99946438  0.74109877  0.63090208  1
  O  O243  1  0.00786487  0.25686184  0.37208347  1
  O  O244  1  0.00871300  0.25873576  0.87431313  1
  O  O245  1  0.01138291  0.75108466  0.37525624  1
  O  O246  1  0.00526568  0.75596073  0.86926920  1
  O  O247  1  0.51375232  0.25165980  0.36503620  1
  O  O248  1  0.49774903  0.26662344  0.87839244  1
  O  O249  1  0.49752108  0.76107638  0.37152549  1
  O  O250  1  0.49937360  0.75682771  0.86133658  1
  O  O251  1  0.24526940  0.12041668  0.48790386  1
  O  O252  1  0.23772125  0.13128749  1.00649020  1
  O  O253  1  0.24365129  0.63088333  0.49924384  1
  O  O254  1  0.25917185  0.62791253  0.98709452  1
  O  O255  1  0.74008957  0.13491727  0.50721337  1
  O  O256  1  0.74337285  0.13730476  1.00420397  1
  O  O257  1  0.74589739  0.62988916  0.49418746  1
  O  O258  1  0.73256028  0.62933512  0.99121101  1
  O  O259  1  0.25700684  0.36829665  0.00075414  1
  O  O260  1  0.26649294  0.37942301  0.49167861  1
  O  O261  1  0.25676675  0.87467436  0.00980036  1
  O  O262  1  0.25579964  0.86772848  0.50555319  1
  O  O263  1  0.75259212  0.36397894  0.00295220  1
  O  O264  1  0.75248376  0.36929210  0.50941259  1
  O  O265  1  0.76477318  0.88286461  0.00166298  1
  O  O266  1  0.75471160  0.86615904  0.50185260  1
  O  O267  1  0.13687601  0.48869314  0.25727207  1
  O  O268  1  0.12124321  0.48440892  0.75490271  1
  O  O269  1  0.13055166  0.99441535  0.24453930  1
  O  O270  1  0.12644654  1.00063254  0.74441270  1
  O  O271  1  0.62021552  0.48522167  0.25035061  1
  O  O272  1  0.63387599  0.51220035  0.73667046  1
  O  O273  1  0.62810060  0.99789351  0.24588836  1
  O  O274  1  0.62963696  1.00453380  0.74222525  1
  O  O275  1  0.37166950  0.00876235  0.25207415  1
  O  O276  1  0.37302186  0.00642644  0.76337625  1
  O  O277  1  0.37031338  0.49911325  0.25945373  1
  O  O278  1  0.37634207  0.50986908  0.76020934  1
  O  O279  1  0.86417031  0.00908417  0.24346685  1
  O  O280  1  0.86724762  -0.00710784  0.76469798  1
  O  O281  1  0.87572525  0.50273121  0.24734452  1
  O  O282  1  0.86407108  0.51091257  0.74466242  1
  O  O283  1  0.11828846  0.36780018  0.36963300  1
  O  O284  1  0.11472592  0.36736166  0.86883698  1
  O  O285  1  0.11894510  0.86732016  0.37475352  1
  O  O286  1  0.11296880  0.87062929  0.87650503  1
  O  O287  1  0.62499346  0.36722713  0.36322202  1
  O  O288  1  0.61017741  0.37417948  0.87689110  1
  O  O289  1  0.61534568  0.87907288  0.36473204  1
  O  O290  1  0.62305710  0.88023862  0.87442700  1
  O  O291  1  0.36855309  0.13176369  0.13856236  1
  O  O292  1  0.37226755  0.12044594  0.63906085  1
  O  O293  1  0.38939692  0.63015762  0.12606459  1
  O  O294  1  0.38453021  0.61860512  0.63278080  1
  O  O295  1  0.88151164  0.13505846  0.13040150  1
  O  O296  1  0.88915975  0.11302619  0.62255669  1
  O  O297  1  0.86373177  0.62648983  0.13091062  1
  O  O298  1  0.88365314  0.62995573  0.63055325  1
  O  O299  1  0.26023310  0.25219593  0.11544435  1
  O  O300  1  0.25678227  0.26283555  0.62697892  1
  O  O301  1  0.25415694  0.76215489  0.12511925  1
  O  O302  1  0.23912771  0.75857261  0.61422047  1
  O  O303  1  0.75910964  0.25111917  0.11794350  1
  O  O304  1  0.74060749  0.26498593  0.61670532  1
  O  O305  1  0.75819745  0.75624339  0.12794442  1
  O  O306  1  0.75586321  0.75483566  0.61689188  1
  O  O307  1  0.24124242  0.24056722  0.36798226  1
  O  O308  1  0.24165828  0.25354293  0.88907136  1
  O  O309  1  0.24016803  0.74670723  0.38566873  1
  O  O310  1  0.24174345  0.74382950  0.87697882  1
  O  O311  1  0.73904982  0.25493376  0.38331697  1
  O  O312  1  0.75482484  0.24438140  0.87930545  1
  O  O313  1  0.75352204  0.74061890  0.38446553  1
  O  O314  1  0.74285541  0.76017851  0.85823589  1
  O  O315  1  0.01068567  0.11969275  0.00852325  1
  O  O316  1  0.00995574  0.12693033  0.51501357  1
  O  O317  1  0.00172819  0.61604858  0.01022246  1
  O  O318  1  0.00633930  0.61946323  0.50785968  1
  O  O319  1  0.50341639  0.11488117  -0.00024396  1
  O  O320  1  0.50485721  0.11456707  0.50011884  1
  O  O321  1  0.50717061  0.62040345  0.00342962  1
  O  O322  1  0.50731546  0.62550221  0.50528212  1
  O  O323  1  0.48899566  0.37901907  0.49205772  1
  O  O324  1  0.49561049  0.38254042  0.99353723  1
  O  O325  1  0.49368913  0.87695384  0.49681754  1
  O  O326  1  0.49085971  0.88742787  1.00147286  1
  O  O327  1  1.00177414  0.38039932  0.49470059  1
  O  O328  1  0.99976592  0.38259201  0.99397646  1
  O  O329  1  0.98934683  0.86937723  0.49138452  1
  O  O330  1  0.99214481  0.88209363  0.99435233  1
  O  O331  1  0.49139637  0.50000766  0.37370423  1
  O  O332  1  0.49511721  0.49081037  0.87899485  1
  O  O333  1  0.49904787  0.98863265  0.38622429  1
  O  O334  1  0.48954073  0.99557116  0.88479542  1
  O  O335  1  1.00032407  0.49202174  0.38203682  1
  O  O336  1  1.00363825  0.49597114  0.88742824  1
  O  O337  1  1.00401940  0.98703389  0.37208973  1
  O  O338  1  0.99457413  0.99476828  0.87841195  1
  O  O339  1  0.00459665  0.00329671  0.12174843  1
  O  O340  1  0.01459062  0.00787347  0.63065634  1
  O  O341  1  0.00640034  0.51492655  0.11841817  1
  O  O342  1  -0.00205908  0.51033078  0.62039901  1
  O  O343  1  0.51189434  -0.00150633  0.11883909  1
  O  O344  1  0.50583719  -0.00320588  0.61476802  1
  O  O345  1  0.49377854  0.50844916  0.11375039  1
  O  O346  1  0.50783656  0.51070241  0.62399359  1
  O  O347  1  0.24434816  0.38256897  0.24912924  1
  O  O348  1  0.23148042  0.37753751  0.75791360  1
  O  O349  1  0.24568261  0.87977084  0.24592676  1
  O  O350  1  0.25538426  0.86704347  0.73615468  1
  O  O351  1  0.73642294  0.37260664  0.24654803  1
  O  O352  1  0.74586585  0.38511899  0.73654848  1
  O  O353  1  0.74111410  0.88203792  0.25158774  1
  O  O354  1  0.74360816  0.87700237  0.74952820  1
  O  O355  1  0.25606088  0.12040314  0.25847634  1
  O  O356  1  0.26133023  0.12737040  0.75172148  1
  O  O357  1  0.25349610  0.61919604  0.25691753  1
  O  O358  1  0.25764997  0.62435708  0.75868868  1
  O  O359  1  0.76028650  0.11714026  0.24765278  1
  O  O360  1  0.75068874  0.11745086  0.74514684  1
  O  O361  1  0.74382933  0.62110447  0.25355326  1
  O  O362  1  0.75800863  0.62008213  0.75192392  1
  O  O363  1  0.36847407  0.12579224  0.36504541  1
  O  O364  1  0.37451790  0.11241349  0.86777187  1
  O  O365  1  0.36875905  0.61870330  0.37300516  1
  O  O366  1  0.37118102  0.61831003  0.86764704  1
  O  O367  1  0.88317955  0.12721216  0.36388854  1
  O  O368  1  0.87895437  0.11822031  0.87986663  1
  O  O369  1  0.86439889  0.62369466  0.37412744  1
  O  O370  1  0.87124756  0.63461883  0.86475743  1
  O  O371  1  0.12794283  0.36642262  0.14077357  1
  O  O372  1  0.11815238  0.36779186  0.64150205  1
  O  O373  1  0.13019185  0.87762712  0.12968601  1
  O  O374  1  0.12817122  0.88982004  0.62361232  1
  O  O375  1  0.62752143  0.37063276  0.13832135  1
  O  O376  1  0.62993162  0.38766170  0.61624202  1
  O  O377  1  0.62357795  0.88396423  0.13953918  1
  O  O378  1  0.63259607  0.88813107  0.61735613  1
  O  O379  1  0.12002513  0.25416663  0.26065100  1
  O  O380  1  0.12366434  0.25606537  0.76164168  1
  O  O381  1  0.12565860  0.75667879  0.26235420  1
  O  O382  1  0.11321880  0.74703060  0.75922553  1
  O  O383  1  0.62077027  0.24841189  0.25492043  1
  O  O384  1  0.61649932  0.24171383  0.75655883  1
  O  O385  1  0.61186980  0.76040310  0.24913664  1
  O  O386  1  0.61849400  0.75015420  0.74308143  1
  O  O387  1  0.38254994  0.24602249  0.24299681  1
  O  O388  1  0.37719827  0.23633125  0.75547885  1
  O  O389  1  0.38778209  0.75016981  0.25133274  1
  O  O390  1  0.38100387  0.73720676  0.75233385  1
  O  O391  1  0.88061492  0.24320802  0.24595417  1
  O  O392  1  0.86554065  0.24178893  0.76312888  1
  O  O393  1  0.87914096  0.75381192  0.23579668  1
  O  O394  1  0.88819979  0.74032057  0.74077390  1
  O  O395  1  0.37693192  0.49600103  0.48549865  1
  O  O396  1  0.38470082  0.49738707  0.98703238  1
  O  O397  1  0.38286230  0.99372367  0.49904001  1
  O  O398  1  0.37938586  0.99591043  0.99448787  1
  O  O399  1  0.89020224  0.49790119  0.49792028  1
  O  O400  1  0.89668863  0.49544180  1.00595386  1
  O  O401  1  0.86543061  0.98509441  0.50130513  1
  O  O402  1  0.87852742  0.99696420  0.99186531  1
  O  O403  1  0.11971131  0.00686820  0.00509633  1
  O  O404  1  0.12477714  0.01071621  0.50038610  1
  O  O405  1  0.11054861  0.49208440  0.00177856  1
  O  O406  1  0.11441834  0.50897383  0.49464801  1
  O  O407  1  0.61768497  0.00649867  0.00865973  1
  O  O408  1  0.61913701  0.00551434  0.50410476  1
  O  O409  1  0.61457862  0.50504637  -0.00236250  1
  O  O410  1  0.62324123  0.50762803  0.50611566  1
  O  O411  1  0.37414852  0.36625238  0.11710187  1
  O  O412  1  0.37806122  0.37857435  0.60491121  1
  O  O413  1  0.36674296  0.87742361  0.11819610  1
  O  O414  1  0.36395974  0.88222581  0.61374827  1
  O  O415  1  0.87511589  0.36171811  0.12769751  1
  O  O416  1  0.85989709  0.37774292  0.62388519  1
  O  O417  1  0.87654825  0.86634692  0.11800370  1
  O  O418  1  0.86917349  0.86974543  0.61880756  1
  O  O419  1  0.13130342  0.13116472  0.38202811  1
  O  O420  1  0.11834223  0.13499307  0.88637393  1
  O  O421  1  0.12966358  0.63181221  0.38665878  1
  O  O422  1  0.13536611  0.63410553  0.87142464  1
  O  O423  1  0.62200273  0.13129215  0.38696425  1
  O  O424  1  0.62081592  0.12189029  0.89159924  1
  O  O425  1  0.63353224  0.62209608  0.38719437  1
  O  O426  1  0.62054591  0.62798497  0.88822282  1
