# generated using pymatgen
data_V85Zn86O256
_symmetry_space_group_name_H-M   'P 1'
_cell_length_a   16.98905837
_cell_length_b   16.96956352
_cell_length_c   16.97859089
_cell_angle_alpha   90.05674027
_cell_angle_beta   90.09213033
_cell_angle_gamma   89.95932641
_symmetry_Int_Tables_number   1
_chemical_formula_structural   V85Zn86O256
_chemical_formula_sum   'V85 Zn86 O256'
_cell_volume   4894.86525076
_cell_formula_units_Z   1
loop_
 _symmetry_equiv_pos_site_id
 _symmetry_equiv_pos_as_xyz
  1  'x, y, z'
loop_
 _atom_site_type_symbol
 _atom_site_label
 _atom_site_symmetry_multiplicity
 _atom_site_fract_x
 _atom_site_fract_y
 _atom_site_fract_z
 _atom_site_occupancy
  V  V0  1  0.37605339  0.12970985  0.74719129  1
  V  V1  1  0.36799015  0.11533481  0.23959537  1
  V  V2  1  0.25192517  0.37170510  0.12643092  1
  V  V3  1  0.75270873  0.24983669  -0.00128639  1
  V  V4  1  0.24611770  0.74511727  0.00207046  1
  V  V5  1  0.24977313  0.88688721  0.63000821  1
  V  V6  1  0.37186837  0.50670519  0.37771374  1
  V  V7  1  0.49725244  0.62330468  0.12734250  1
  V  V8  1  0.12066658  0.88112090  0.25285443  1
  V  V9  1  0.08073619  0.68297526  -0.05895795  1
  V  V10  1  0.74236290  0.76260143  0.00096293  1
  V  V11  1  0.75082024  0.49987572  0.24819484  1
  V  V12  1  0.64690725  0.86339490  0.23169546  1
  V  V13  1  0.37439257  0.37138616  0.00395520  1
  V  V14  1  0.11758716  0.11711263  0.50311357  1
  V  V15  1  0.11353499  0.37150215  0.74628793  1
  V  V16  1  0.75845863  0.11349966  0.87814276  1
  V  V17  1  0.00319153  0.49954775  0.50022380  1
  V  V18  1  0.36949750  -0.00053637  0.87439521  1
  V  V19  1  0.62419833  0.24789384  0.87653689  1
  V  V20  1  0.88124527  0.24201362  0.12330412  1
  V  V21  1  0.74573833  0.37461109  0.61721274  1
  V  V22  1  0.50067839  0.37501079  0.37638877  1
  V  V23  1  0.62473849  0.62300953  -0.00015066  1
  V  V24  1  0.37414253  0.49837361  0.87640393  1
  V  V25  1  0.74555410  0.62200799  0.87429344  1
  V  V26  1  0.75369121  0.37632471  0.12361595  1
  V  V27  1  0.25668708  0.75111499  0.49961063  1
  V  V28  1  0.37018827  0.87468718  0.00273081  1
  V  V29  1  0.00065791  0.37393722  0.37385659  1
  V  V30  1  0.00870889  0.49918754  -0.00605298  1
  V  V31  1  0.25404042  0.48866536  0.74044140  1
  V  V32  1  0.86918898  0.75271154  0.12403994  1
  V  V33  1  0.24762520  0.62722960  0.87491273  1
  V  V34  1  0.37225960  0.62572897  0.25501631  1
  V  V35  1  0.37248675  0.37397633  0.51195523  1
  V  V36  1  0.50634573  0.50940948  0.49941321  1
  V  V37  1  0.12729272  0.24885006  0.37707011  1
  V  V38  1  0.37061577  0.75001365  0.12853722  1
  V  V39  1  0.25232303  0.25244158  0.51281980  1
  V  V40  1  0.12400590  0.37654384  0.24880648  1
  V  V41  1  0.88559222  0.24345476  0.62628997  1
  V  V42  1  0.13291278  0.62444896  0.49592978  1
  V  V43  1  0.25188549  0.11837028  0.37305213  1
  V  V44  1  0.88360339  0.11268008  0.74982191  1
  V  V45  1  0.49916896  0.37166662  0.87419347  1
  V  V46  1  0.49982586  -0.00279071  0.01553509  1
  V  V47  1  0.87607432  0.49857117  0.37434150  1
  V  V48  1  -0.00327720  -0.00019682  -0.01130748  1
  V  V49  1  0.24473034  0.12167371  0.87160871  1
  V  V50  1  0.88344589  0.87805992  0.50171259  1
  V  V51  1  0.11241966  0.00432267  0.63500773  1
  V  V52  1  0.24842174  0.88398320  0.13078141  1
  V  V53  1  0.62350459  0.11957260  0.00652288  1
  V  V54  1  0.62450235  0.37427809  0.74702039  1
  V  V55  1  0.87798205  0.63102577  0.74772903  1
  V  V56  1  0.87949825  0.49270735  0.87097562  1
  V  V57  1  0.62589376  0.49925746  0.12439624  1
  V  V58  1  0.87374209  0.36779938  0.49870632  1
  V  V59  1  0.49872659  0.49827739  0.00039333  1
  V  V60  1  0.13074986  0.74842983  0.37330444  1
  V  V61  1  0.88307476  0.37467426  -0.00372076  1
  V  V62  1  0.00287235  0.24064844  0.24655317  1
  V  V63  1  0.87685055  0.62581938  0.24933452  1
  V  V64  1  0.49937448  0.75887047  0.25328511  1
  V  V65  1  0.69818769  0.19376909  0.54142180  1
  V  V66  1  0.87238689  0.87857102  -0.01052399  1
  V  V67  1  0.49378210  0.87016977  0.86899416  1
  V  V68  1  0.50152039  0.62792991  0.62655733  1
  V  V69  1  0.12125671  0.85749468  0.75417982  1
  V  V70  1  0.11821015  0.12521443  0.00374009  1
  V  V71  1  0.75002329  0.62222888  0.38343614  1
  V  V72  1  0.24818339  0.50437614  0.25359040  1
  V  V73  1  0.48478805  0.25418294  0.24379169  1
  V  V74  1  0.88307862  0.00907085  0.37204554  1
  V  V75  1  0.25372947  0.24728073  0.00230184  1
  V  V76  1  0.00411813  0.63124962  0.62677486  1
  V  V77  1  0.37631997  0.75631519  0.63320435  1
  V  V78  1  0.61534214  0.74693246  0.86619371  1
  V  V79  1  0.37673216  0.62945118  0.75179877  1
  V  V80  1  0.63243068  0.23708739  0.36634991  1
  V  V81  1  0.00696548  0.62617081  0.12354205  1
  V  V82  1  0.62565725  0.74500716  0.37949583  1
  V  V83  1  0.10979675  0.00313886  0.12972998  1
  V  V84  1  0.75026835  0.50003261  0.74827585  1
  Zn  Zn85  1  0.75422345  0.74875950  0.50106824  1
  Zn  Zn86  1  0.73456841  0.01548635  0.24359861  1
  Zn  Zn87  1  0.38192928  -0.00096352  0.37696223  1
  Zn  Zn88  1  -0.00457599  0.24992240  0.75965047  1
  Zn  Zn89  1  -0.00011949  0.75253265  0.25217815  1
  Zn  Zn90  1  0.49114028  0.13716318  0.11867157  1
  Zn  Zn91  1  0.52767390  0.90226958  0.40055745  1
  Zn  Zn92  1  0.61803671  0.89110842  0.73955065  1
  Zn  Zn93  1  0.49238000  0.25051412  0.73569052  1
  Zn  Zn94  1  0.12776483  0.50334083  0.12008376  1
  Zn  Zn95  1  0.74603836  0.87541816  0.62344593  1
  Zn  Zn96  1  0.00125556  0.86241796  0.87025202  1
  Zn  Zn97  1  0.74505193  -0.00205204  0.74011943  1
  Zn  Zn98  1  0.86728907  0.12413667  0.25036223  1
  Zn  Zn99  1  0.38048692  0.88803683  0.49695952  1
  Zn  Zn100  1  0.62407926  0.37483353  0.25019533  1
  Zn  Zn101  1  0.13256911  0.49499961  0.61915242  1
  Zn  Zn102  1  0.62818754  0.51129029  0.62062639  1
  Zn  Zn103  1  0.87334712  0.75153393  0.62422696  1
  Zn  Zn104  1  0.51376706  0.11422043  0.60160308  1
  Zn  Zn105  1  0.00706082  0.87951625  0.38308518  1
  Zn  Zn106  1  0.11876078  0.25836519  0.87980128  1
  Zn  Zn107  1  0.18777806  0.18700894  0.18624516  1
  Zn  Zn108  1  0.18705523  0.18550027  0.68891158  1
  Zn  Zn109  1  0.18679492  0.68869636  0.19004952  1
  Zn  Zn110  1  0.19222476  0.68401559  0.68353274  1
  Zn  Zn111  1  0.68435972  0.19124438  0.18854351  1
  Zn  Zn112  1  0.69140885  0.18449962  0.70358989  1
  Zn  Zn113  1  0.68847411  0.68571659  0.18707518  1
  Zn  Zn114  1  0.64862177  0.73931995  0.65209927  1
  Zn  Zn115  1  0.30984894  0.31704436  0.32149117  1
  Zn  Zn116  1  0.30846586  0.30820664  0.81728219  1
  Zn  Zn117  1  0.31244278  0.82024737  0.31475574  1
  Zn  Zn118  1  0.30363666  0.81338953  0.81269843  1
  Zn  Zn119  1  0.81391436  0.30956150  0.30749271  1
  Zn  Zn120  1  0.81248396  0.30946072  0.81053322  1
  Zn  Zn121  1  0.81805774  0.81248895  0.32166990  1
  Zn  Zn122  1  0.80377821  0.81198316  0.81117289  1
  Zn  Zn123  1  0.18978654  0.43459491  0.43710014  1
  Zn  Zn124  1  0.18898228  0.43593261  0.93167731  1
  Zn  Zn125  1  0.19277431  0.93831739  0.44088371  1
  Zn  Zn126  1  0.18311460  0.93592997  0.93767746  1
  Zn  Zn127  1  0.68491257  0.43595255  0.43629775  1
  Zn  Zn128  1  0.68873247  0.43522619  0.93676101  1
  Zn  Zn129  1  0.70701923  0.93640872  0.42969635  1
  Zn  Zn130  1  0.67018461  0.94985409  0.90718641  1
  Zn  Zn131  1  0.30895679  0.06156504  0.06334979  1
  Zn  Zn132  1  0.31190977  0.06352788  0.55971216  1
  Zn  Zn133  1  0.30974808  0.56159425  0.06395875  1
  Zn  Zn134  1  0.31800726  0.56668194  0.56082303  1
  Zn  Zn135  1  0.80625229  0.05828894  0.06626826  1
  Zn  Zn136  1  0.81413054  0.05047932  0.56514708  1
  Zn  Zn137  1  0.81540695  0.56449773  0.05955273  1
  Zn  Zn138  1  0.81735623  0.55952615  0.56413817  1
  Zn  Zn139  1  0.43434437  0.43648490  0.18817902  1
  Zn  Zn140  1  0.44053020  0.44014530  0.68771867  1
  Zn  Zn141  1  0.50796532  0.98206387  0.23402245  1
  Zn  Zn142  1  0.43437265  0.95029591  0.68692905  1
  Zn  Zn143  1  0.94050506  0.43753739  0.18418077  1
  Zn  Zn144  1  0.93696287  0.43894761  0.68015610  1
  Zn  Zn145  1  0.90393064  0.95229594  0.17015989  1
  Zn  Zn146  1  0.94077925  0.93262497  0.68697166  1
  Zn  Zn147  1  0.05818734  0.05825831  0.31766775  1
  Zn  Zn148  1  0.06269733  0.06167444  0.81284084  1
  Zn  Zn149  1  0.06391324  0.56495858  0.31427068  1
  Zn  Zn150  1  0.06205241  0.55191373  0.80405004  1
  Zn  Zn151  1  0.56004555  0.06311790  0.42257536  1
  Zn  Zn152  1  0.55433900  0.06089633  0.81935951  1
  Zn  Zn153  1  0.56142211  0.56437171  0.31164013  1
  Zn  Zn154  1  0.56144008  0.56054953  0.80924043  1
  Zn  Zn155  1  0.43165622  0.18987516  0.43337713  1
  Zn  Zn156  1  0.43586445  0.18589550  0.93506499  1
  Zn  Zn157  1  0.48177662  0.73779020  0.48137358  1
  Zn  Zn158  1  0.43356310  0.68640715  0.94036904  1
  Zn  Zn159  1  0.93889892  0.18735368  0.43823702  1
  Zn  Zn160  1  0.94282846  0.18812030  0.93270717  1
  Zn  Zn161  1  0.94413393  0.69214396  0.43905914  1
  Zn  Zn162  1  0.91819855  0.68471830  0.93591503  1
  Zn  Zn163  1  0.06489161  0.31347737  0.06277347  1
  Zn  Zn164  1  0.06691682  0.31229498  0.56596822  1
  Zn  Zn165  1  0.05369604  0.82123080  0.06978187  1
  Zn  Zn166  1  0.06561854  0.81203479  0.56495438  1
  Zn  Zn167  1  0.56455612  0.31277024  0.06266567  1
  Zn  Zn168  1  0.55219247  0.30439351  0.56037235  1
  Zn  Zn169  1  0.55628918  0.80938998  0.06005873  1
  Zn  Zn170  1  0.56448517  0.92403652  0.56606783  1
  O  O171  1  0.13153744  0.11407756  0.11603205  1
  O  O172  1  0.13228418  0.11264918  0.61725633  1
  O  O173  1  0.11131023  0.62211383  0.13085126  1
  O  O174  1  0.12022399  0.61913958  0.61754908  1
  O  O175  1  0.61899302  0.13825271  0.10822575  1
  O  O176  1  0.64598667  0.13765656  0.60786759  1
  O  O177  1  0.61879453  0.61738166  0.11945207  1
  O  O178  1  0.60467522  0.63171867  0.63447613  1
  O  O179  1  0.38532838  0.38566416  0.38205005  1
  O  O180  1  0.37870716  0.37854210  0.88341890  1
  O  O181  1  0.37589666  0.88160694  0.37865196  1
  O  O182  1  0.37320891  0.87911579  0.88283988  1
  O  O183  1  0.87928980  0.37722306  0.38114572  1
  O  O184  1  0.86798851  0.38499919  0.88186162  1
  O  O185  1  0.88729233  0.87726103  0.38349845  1
  O  O186  1  0.88017522  0.85963207  0.88696687  1
  O  O187  1  0.24718202  0.01647478  0.37561032  1
  O  O188  1  0.25727138  0.00972474  0.88855587  1
  O  O189  1  0.25904746  0.49225700  0.36451491  1
  O  O190  1  0.25607811  0.50933305  0.86839784  1
  O  O191  1  0.77725360  -0.01279546  0.35521236  1
  O  O192  1  0.76368461  0.01435347  0.89046140  1
  O  O193  1  0.75598214  0.50298420  0.36760699  1
  O  O194  1  0.75535130  0.50123101  0.86693733  1
  O  O195  1  0.24712473  0.49034937  0.13160835  1
  O  O196  1  0.25440050  0.50512037  0.63875478  1
  O  O197  1  0.23778484  0.98614501  0.11504830  1
  O  O198  1  0.24182706  0.98845213  0.62223676  1
  O  O199  1  0.74859315  0.49474260  0.12672341  1
  O  O200  1  0.74738660  0.49305281  0.63059920  1
  O  O201  1  0.79474246  0.98766657  0.14881492  1
  O  O202  1  0.74463302  0.99130658  0.62619970  1
  O  O203  1  0.00570313  0.37189273  0.25573908  1
  O  O204  1  0.01181843  0.38052693  0.74716000  1
  O  O205  1  0.01674879  0.87099586  0.24868760  1
  O  O206  1  0.01519897  0.87272715  0.75198977  1
  O  O207  1  0.49861128  0.37023693  0.25714145  1
  O  O208  1  0.50552578  0.37151907  0.75516102  1
  O  O209  1  0.50427312  0.85911750  0.24324080  1
  O  O210  1  0.49529768  0.88063840  0.76765307  1
  O  O211  1  0.47981678  0.14357318  0.24183462  1
  O  O212  1  0.48141542  0.12745257  0.76434946  1
  O  O213  1  0.49111902  0.62915651  0.24325234  1
  O  O214  1  0.48260302  0.61588685  0.74554394  1
  O  O215  1  1.00424435  0.13987059  0.25202092  1
  O  O216  1  0.98670144  0.12727892  0.75440160  1
  O  O217  1  0.99012259  0.62322124  0.24220052  1
  O  O218  1  0.99026827  0.61260738  0.73885168  1
  O  O219  1  0.36133599  0.25439195  -0.00406438  1
  O  O220  1  0.36009468  0.26038808  0.49206635  1
  O  O221  1  0.36356788  0.75288995  0.00699805  1
  O  O222  1  0.36182207  0.74881121  0.51089525  1
  O  O223  1  0.87400459  0.25912625  0.00446785  1
  O  O224  1  0.88029087  0.26173413  0.50552939  1
  O  O225  1  0.86072351  0.75188588  0.00552450  1
  O  O226  1  0.87584227  0.75867379  0.49894089  1
  O  O227  1  0.13550967  0.24524208  0.49807785  1
  O  O228  1  0.13339356  0.24204846  1.00327976  1
  O  O229  1  0.13561105  0.74323106  0.49657698  1
  O  O230  1  0.12880069  0.75017019  1.00715871  1
  O  O231  1  0.63254542  0.25450612  0.48428860  1
  O  O232  1  0.63138133  0.24844827  0.99076913  1
  O  O233  1  0.62665888  0.74180863  0.47914863  1
  O  O234  1  0.62805719  0.73944099  0.99586088  1
  O  O235  1  0.49975396  0.25824492  0.13922107  1
  O  O236  1  0.50747606  0.22915331  0.62678632  1
  O  O237  1  0.48924453  0.74101576  0.13131423  1
  O  O238  1  0.47905255  0.74154804  0.62136368  1
  O  O239  1  0.99228774  0.26067763  0.13448483  1
  O  O240  1  0.98708559  0.25525205  0.62973311  1
  O  O241  1  0.99144074  0.73953919  0.12564382  1
  O  O242  1  0.99898870  0.73378862  0.62152452  1
  O  O243  1  0.00655588  0.25635773  0.36741265  1
  O  O244  1  0.00613767  0.25590983  0.87325820  1
  O  O245  1  0.01745255  0.75243286  0.37265081  1
  O  O246  1  0.00940567  0.73862458  0.88881308  1
  O  O247  1  0.50614738  0.25994610  0.36333480  1
  O  O248  1  0.50937266  0.25673946  0.87742420  1
  O  O249  1  0.51699748  0.73481462  0.36535946  1
  O  O250  1  0.50222064  0.75699578  0.88387340  1
  O  O251  1  0.24493388  0.13751036  0.49240741  1
  O  O252  1  0.24149306  0.13237574  0.99580284  1
  O  O253  1  0.23980477  0.63227268  0.50630771  1
  O  O254  1  0.24927367  0.63449738  0.99393196  1
  O  O255  1  0.76086537  0.13334457  0.49557248  1
  O  O256  1  0.74507843  0.13079632  0.99887459  1
  O  O257  1  0.75739821  0.61865599  0.48568088  1
  O  O258  1  0.74382030  0.62610490  0.99113945  1
  O  O259  1  0.25266126  0.36858999  0.00600782  1
  O  O260  1  0.25671462  0.36285994  0.49751733  1
  O  O261  1  0.24929322  0.86156893  0.00478419  1
  O  O262  1  0.24874963  0.86654857  0.51460316  1
  O  O263  1  0.76202831  0.37232233  0.00472745  1
  O  O264  1  0.75868059  0.38285691  0.50902288  1
  O  O265  1  0.75348980  0.86396967  -0.00813500  1
  O  O266  1  0.77000543  0.86771306  0.49567194  1
  O  O267  1  0.13270571  0.49534170  0.25068304  1
  O  O268  1  0.13941506  0.48975513  0.74549789  1
  O  O269  1  0.12098509  0.99548473  0.24138729  1
  O  O270  1  0.12422168  0.99846319  0.73746098  1
  O  O271  1  0.63147452  0.49751685  0.24102628  1
  O  O272  1  0.63364288  0.49292076  0.74584135  1
  O  O273  1  0.62796151  0.96678876  0.24178138  1
  O  O274  1  0.63665811  0.99111292  0.79504243  1
  O  O275  1  0.37727896  0.01691128  0.24273083  1
  O  O276  1  0.37296073  0.00877375  0.76906820  1
  O  O277  1  0.36698802  0.50374043  0.25631068  1
  O  O278  1  0.36680711  0.50435165  0.75611056  1
  O  O279  1  0.90425120  0.01154577  0.26674416  1
  O  O280  1  0.87806450  0.01100692  0.74756553  1
  O  O281  1  0.87239932  0.50547460  0.25438483  1
  O  O282  1  0.86889578  0.49894345  0.75515656  1
  O  O283  1  0.12022591  0.36875079  0.36856355  1
  O  O284  1  0.13575041  0.37533566  0.85170454  1
  O  O285  1  0.12827737  0.87126791  0.36900305  1
  O  O286  1  0.12711300  0.87378661  0.85817213  1
  O  O287  1  0.61017642  0.37683444  0.37218874  1
  O  O288  1  0.62071097  0.36823654  0.86979444  1
  O  O289  1  0.63043015  0.85131519  0.35693576  1
  O  O290  1  0.60651668  0.85825877  0.88612434  1
  O  O291  1  0.36785684  0.13054570  0.13483112  1
  O  O292  1  0.36621956  0.11605421  0.64845955  1
  O  O293  1  0.37698853  0.62868476  0.13359382  1
  O  O294  1  0.37703255  0.63223484  0.63625231  1
  O  O295  1  0.87786916  0.14143417  0.11877876  1
  O  O296  1  0.86875573  0.13197807  0.63965972  1
  O  O297  1  0.88397160  0.63077150  0.12933637  1
  O  O298  1  0.88427166  0.62256752  0.63300592  1
  O  O299  1  0.24456201  0.26447881  0.11873934  1
  O  O300  1  0.24950970  0.24563947  0.61094490  1
  O  O301  1  0.25178595  0.75271695  0.11808899  1
  O  O302  1  0.25701563  0.75744261  0.61988035  1
  O  O303  1  0.75836235  0.26112933  0.11785270  1
  O  O304  1  0.75315763  0.25368554  0.61529214  1
  O  O305  1  0.75902327  0.73645292  0.11180335  1
  O  O306  1  0.75591701  0.75078336  0.61765945  1
  O  O307  1  0.24106047  0.24412849  0.38039961  1
  O  O308  1  0.24148343  0.24186914  0.88656533  1
  O  O309  1  0.23985689  0.75487982  0.38555473  1
  O  O310  1  0.24964070  0.73538037  0.88314231  1
  O  O311  1  0.72970138  0.26198956  0.36514171  1
  O  O312  1  0.74413647  0.24485527  0.88219367  1
  O  O313  1  0.74432160  0.73676134  0.37437619  1
  O  O314  1  0.73823659  0.73945206  0.88359360  1
  O  O315  1  0.01106895  0.11773585  -0.00231613  1
  O  O316  1  0.02041406  0.13464444  0.50158752  1
  O  O317  1  0.00600712  0.62158305  0.00136149  1
  O  O318  1  0.01146245  0.61829881  0.50445483  1
  O  O319  1  0.50499932  0.11794440  0.00024816  1
  O  O320  1  0.50671558  0.13395480  0.48979245  1
  O  O321  1  0.50243242  0.61649446  0.00703086  1
  O  O322  1  0.49018035  0.62034392  0.51323193  1
  O  O323  1  0.49319307  0.38264433  0.49297365  1
  O  O324  1  0.49444470  0.37969636  0.99593452  1
  O  O325  1  0.49308849  0.85309287  0.49816662  1
  O  O326  1  0.48820687  0.88063362  0.99972288  1
  O  O327  1  0.99550967  0.37960768  0.49461732  1
  O  O328  1  0.98892954  0.38390996  1.00515823  1
  O  O329  1  0.98946570  0.86786883  0.50177137  1
  O  O330  1  0.99234674  0.88080409  0.99274425  1
  O  O331  1  0.49389684  0.49704196  0.38143676  1
  O  O332  1  0.49383599  0.49223350  0.87998565  1
  O  O333  1  0.49768795  0.99982720  0.34748054  1
  O  O334  1  0.48590788  0.98981438  0.89130431  1
  O  O335  1  0.99501094  0.49476580  0.38094912  1
  O  O336  1  0.99066945  0.50275390  0.88139864  1
  O  O337  1  0.99257038  0.99634101  0.38578975  1
  O  O338  1  1.00421534  0.99471730  0.88655638  1
  O  O339  1  0.00781136  -0.00687152  0.11395919  1
  O  O340  1  0.01483370  -0.00097740  0.62463175  1
  O  O341  1  -0.00151806  0.51005470  0.11210232  1
  O  O342  1  0.00249225  0.50635962  0.61241743  1
  O  O343  1  0.49783797  0.00719273  0.11796747  1
  O  O344  1  0.51478764  0.00456932  0.63400352  1
  O  O345  1  0.50485158  0.50270190  0.12028927  1
  O  O346  1  0.50094102  0.51012418  0.61684122  1
  O  O347  1  0.24626482  0.38297674  0.24365000  1
  O  O348  1  0.25516330  0.38725795  0.75072624  1
  O  O349  1  0.23788919  0.86759822  0.23710896  1
  O  O350  1  0.23648863  0.87218828  0.73920178  1
  O  O351  1  0.75143841  0.38223826  0.23813529  1
  O  O352  1  0.74678389  0.38178727  0.73941168  1
  O  O353  1  0.74609610  0.85406923  0.24258796  1
  O  O354  1  0.74184757  0.87959723  0.75131331  1
  O  O355  1  0.26091665  0.13455871  0.25684151  1
  O  O356  1  0.25537843  0.13047819  0.76629491  1
  O  O357  1  0.25517656  0.61148449  0.24391278  1
  O  O358  1  0.25685646  0.61551085  0.75724060  1
  O  O359  1  0.75448292  0.12775635  0.24286748  1
  O  O360  1  0.75994888  0.11756966  0.76280324  1
  O  O361  1  0.76378309  0.61806909  0.25230466  1
  O  O362  1  0.75953916  0.60726635  0.75514120  1
  O  O363  1  0.36498353  0.12765807  0.35954755  1
  O  O364  1  0.36388580  0.11679348  0.87531765  1
  O  O365  1  0.37621207  0.60900196  0.36625368  1
  O  O366  1  0.36711969  0.61946516  0.87016263  1
  O  O367  1  0.87972198  0.11349021  0.37747459  1
  O  O368  1  0.86812447  0.13349483  0.86117675  1
  O  O369  1  0.87293478  0.61986747  0.36603369  1
  O  O370  1  0.86711769  0.60997101  0.86697212  1
  O  O371  1  0.13199075  0.38086761  0.13254305  1
  O  O372  1  0.12765430  0.37874559  0.63876952  1
  O  O373  1  0.12898417  0.88335268  0.13226828  1
  O  O374  1  0.12991714  0.88395670  0.63301342  1
  O  O375  1  0.63965165  0.38053369  0.12221584  1
  O  O376  1  0.63365903  0.37281580  0.62795432  1
  O  O377  1  0.63038342  0.85330218  0.13279948  1
  O  O378  1  0.62441511  0.85212982  0.63285241  1
  O  O379  1  0.11983784  0.25723093  0.25385009  1
  O  O380  1  0.12290170  0.26286282  0.74575312  1
  O  O381  1  0.12565615  0.75601235  0.25936302  1
  O  O382  1  0.12724291  0.75899480  0.74427205  1
  O  O383  1  0.61118904  0.25538384  0.25593763  1
  O  O384  1  0.62594910  0.25525743  0.76464101  1
  O  O385  1  0.61645282  0.74765619  0.25104874  1
  O  O386  1  0.61995872  0.74377179  0.76679521  1
  O  O387  1  0.38353904  0.25773286  0.25441051  1
  O  O388  1  0.37458353  0.23479628  0.75952963  1
  O  O389  1  0.37939730  0.74327277  0.24874735  1
  O  O390  1  0.36555012  0.74022795  0.74607219  1
  O  O391  1  0.88575195  0.25047495  0.24045298  1
  O  O392  1  0.87324274  0.24363984  0.73990260  1
  O  O393  1  0.87750368  0.74105030  0.24222049  1
  O  O394  1  0.87142032  0.73260353  0.75405213  1
  O  O395  1  0.38069049  0.49526319  0.49334221  1
  O  O396  1  0.37852429  0.49447433  0.99442289  1
  O  O397  1  0.37377672  1.00244722  0.49339327  1
  O  O398  1  0.37904998  0.99353725  0.99758229  1
  O  O399  1  0.88295121  0.48850743  0.49423219  1
  O  O400  1  0.88399260  0.49490754  0.99060364  1
  O  O401  1  0.87538432  0.98679013  0.48903202  1
  O  O402  1  0.88425099  0.98835804  1.00411307  1
  O  O403  1  0.11615272  0.00576414  0.00659536  1
  O  O404  1  0.13041073  0.01280318  0.50868940  1
  O  O405  1  0.11245734  0.49246147  -0.00194014  1
  O  O406  1  0.12267441  0.50659596  0.49803052  1
  O  O407  1  0.61326003  0.00909488  -0.00591421  1
  O  O408  1  0.61094547  -0.02725635  0.47115456  1
  O  O409  1  0.61955530  0.50313388  0.00444184  1
  O  O410  1  0.61014799  0.49982191  0.50091563  1
  O  O411  1  0.36437885  0.38110651  0.11500498  1
  O  O412  1  0.38142097  0.37924699  0.61097397  1
  O  O413  1  0.36013217  0.86524418  0.11759651  1
  O  O414  1  0.36374627  0.87197363  0.63256533  1
  O  O415  1  0.86778823  0.37297766  0.11589961  1
  O  O416  1  0.86534055  0.36692263  0.61844586  1
  O  O417  1  0.88452191  0.85530757  0.10864629  1
  O  O418  1  0.87841077  0.87205355  0.61362191  1
  O  O419  1  0.13024122  0.12935549  0.38619100  1
  O  O420  1  0.13167471  0.12354427  0.88499765  1
  O  O421  1  0.12450469  0.63313283  0.38477609  1
  O  O422  1  0.13150401  0.61872000  0.87258954  1
  O  O423  1  0.62994476  0.13895877  0.36539822  1
  O  O424  1  0.63392233  0.13419923  0.88625994  1
  O  O425  1  0.64099255  0.63109906  0.36096552  1
  O  O426  1  0.62506702  0.62615054  0.88113517  1
