# generated using pymatgen
data_V85Zn86O256
_symmetry_space_group_name_H-M   'P 1'
_cell_length_a   16.96206794
_cell_length_b   16.96390616
_cell_length_c   16.95074233
_cell_angle_alpha   90.01651417
_cell_angle_beta   90.08935592
_cell_angle_gamma   90.10336911
_symmetry_Int_Tables_number   1
_chemical_formula_structural   V85Zn86O256
_chemical_formula_sum   'V85 Zn86 O256'
_cell_volume   4877.44216940
_cell_formula_units_Z   1
loop_
 _symmetry_equiv_pos_site_id
 _symmetry_equiv_pos_as_xyz
  1  'x, y, z'
loop_
 _atom_site_type_symbol
 _atom_site_label
 _atom_site_symmetry_multiplicity
 _atom_site_fract_x
 _atom_site_fract_y
 _atom_site_fract_z
 _atom_site_occupancy
  V  V0  1  0.00006324  0.87394750  0.37345830  1
  V  V1  1  0.37600358  0.74964949  0.62370321  1
  V  V2  1  -0.00736195  0.38024873  0.37145470  1
  V  V3  1  0.06482929  0.44610006  0.67766133  1
  V  V4  1  0.12601201  0.74979694  0.37412991  1
  V  V5  1  0.62521577  0.87631266  0.24876970  1
  V  V6  1  0.37831204  0.12565753  0.24966463  1
  V  V7  1  0.86446171  0.87192117  0.49823764  1
  V  V8  1  0.12512823  0.87454638  0.24817463  1
  V  V9  1  0.11852444  0.25600162  0.86101206  1
  V  V10  1  0.25150291  0.13118940  0.37517140  1
  V  V11  1  0.62588801  0.38061985  0.74995017  1
  V  V12  1  0.75163089  0.13047749  0.37551386  1
  V  V13  1  0.11716221  0.75231032  0.87137906  1
  V  V14  1  0.73412256  0.12327290  0.87656246  1
  V  V15  1  0.62190073  0.62643880  -0.00129071  1
  V  V16  1  -0.01602299  -0.01133489  0.00059263  1
  V  V17  1  0.24991294  0.37769577  0.12263998  1
  V  V18  1  0.37505173  0.12522769  0.74821324  1
  V  V19  1  0.62468337  0.48869470  0.13417245  1
  V  V20  1  0.12582599  0.25253772  0.37556260  1
  V  V21  1  -0.03441652  0.59565286  0.09629512  1
  V  V22  1  0.24983369  0.87457197  0.62604083  1
  V  V23  1  0.25656103  0.62605599  0.36978984  1
  V  V24  1  0.13141901  0.62648964  0.01261088  1
  V  V25  1  0.25026256  0.50119084  0.24726732  1
  V  V26  1  -0.00309367  0.12419228  0.12347489  1
  V  V27  1  0.36740154  0.37401836  0.49633685  1
  V  V28  1  0.75225373  0.49052029  0.25432099  1
  V  V29  1  0.86898647  0.25585464  0.10972685  1
  V  V30  1  0.12320438  0.11938383  -0.00466426  1
  V  V31  1  0.86583938  -0.00285237  0.85984103  1
  V  V32  1  0.24958101  0.00228112  0.24966619  1
  V  V33  1  0.49484152  0.49956802  0.00029332  1
  V  V34  1  0.49978230  0.37425908  0.87409012  1
  V  V35  1  0.62620903  0.63258489  0.50306851  1
  V  V36  1  0.74861974  0.26048478  0.51172399  1
  V  V37  1  0.24959214  0.25215762  -0.00134230  1
  V  V38  1  0.38310278  0.88012333  0.00249195  1
  V  V39  1  0.87081597  0.38020233  0.50723155  1
  V  V40  1  0.12998653  0.12470813  0.49965403  1
  V  V41  1  0.63371383  0.87895267  0.74756277  1
  V  V42  1  0.50263668  0.12365709  0.11227495  1
  V  V43  1  0.50015290  0.37815391  0.37857686  1
  V  V44  1  0.00294929  0.63276970  0.62882659  1
  V  V45  1  0.37991696  0.50513005  0.37526514  1
  V  V46  1  0.62783511  0.25962760  0.37134941  1
  V  V47  1  0.87389336  0.12749403  0.25203793  1
  V  V48  1  0.62411541  0.12946476  0.50082858  1
  V  V49  1  0.87627306  0.63096765  0.75547283  1
  V  V50  1  0.49909471  0.87695117  0.37794426  1
  V  V51  1  0.36770797  0.25004108  0.62010325  1
  V  V52  1  0.24975347  0.62716436  0.87374511  1
  V  V53  1  0.12461987  -0.00211642  0.12156602  1
  V  V54  1  0.12295651  -0.00070439  0.62927920  1
  V  V55  1  0.24815571  0.38187522  0.62777858  1
  V  V56  1  0.74842373  0.63087287  0.37992043  1
  V  V57  1  0.63133898  0.00400874  0.62648916  1
  V  V58  1  -0.00420905  0.50369098  0.49243842  1
  V  V59  1  0.24950960  0.12209078  0.87381404  1
  V  V60  1  0.75160053  0.62710254  0.87313858  1
  V  V61  1  0.62302578  0.00522075  0.11446772  1
  V  V62  1  -0.00085467  -0.00083337  0.50143289  1
  V  V63  1  0.50391878  0.25374273  0.24965015  1
  V  V64  1  0.74794630  -0.00102280  0.24377652  1
  V  V65  1  0.50272834  0.74944916  0.74896637  1
  V  V66  1  0.12660856  0.61910880  0.50126228  1
  V  V67  1  0.50011465  0.61200823  0.62136658  1
  V  V68  1  0.37918808  -0.00025086  0.87498304  1
  V  V69  1  0.38238750  0.74813926  0.12911927  1
  V  V70  1  -0.00139980  0.74321052  0.24457849  1
  V  V71  1  0.72697556  0.25237215  -0.00209857  1
  V  V72  1  0.37549787  0.62181542  0.75098184  1
  V  V73  1  0.86919409  0.62244956  0.25925865  1
  V  V74  1  0.87459427  0.00296597  0.37467544  1
  V  V75  1  0.49899426  0.62626363  0.13483799  1
  V  V76  1  -0.00375832  0.25316039  0.25191936  1
  V  V77  1  0.50089741  0.87664550  0.87478506  1
  V  V78  1  0.81051614  0.45502617  0.81117949  1
  V  V79  1  0.25060508  0.74999216  0.49911315  1
  V  V80  1  0.64118075  0.49525516  0.61983183  1
  V  V81  1  0.25400060  0.87609373  0.12438119  1
  V  V82  1  0.50293080  0.25178992  0.75026156  1
  V  V83  1  0.86658636  0.76070670  0.12400902  1
  V  V84  1  0.86726469  0.75004676  0.62348775  1
  Zn  Zn85  1  0.87417086  0.13244949  0.74960230  1
  Zn  Zn86  1  0.74944677  0.87531794  0.62288805  1
  Zn  Zn87  1  0.49944468  0.12549813  0.62411147  1
  Zn  Zn88  1  0.37648499  0.00220378  0.37892733  1
  Zn  Zn89  1  0.37409146  0.24964638  0.12295448  1
  Zn  Zn90  1  0.36779507  0.49726398  0.87532497  1
  Zn  Zn91  1  0.49949983  0.00261284  0.50045567  1
  Zn  Zn92  1  0.37085356  0.37429796  -0.00282446  1
  Zn  Zn93  1  0.76244891  0.76380867  -0.00386696  1
  Zn  Zn94  1  0.88433985  0.25849289  0.63919489  1
  Zn  Zn95  1  0.11457427  0.86693702  0.74689978  1
  Zn  Zn96  1  0.24239627  0.50087877  0.74424398  1
  Zn  Zn97  1  0.25404517  0.75424658  -0.00182658  1
  Zn  Zn98  1  0.62746498  0.75470569  0.37963115  1
  Zn  Zn99  1  0.25103852  -0.00421134  0.75005978  1
  Zn  Zn100  1  0.62892776  0.75236838  0.87429753  1
  Zn  Zn101  1  0.37647530  0.87942395  0.50059513  1
  Zn  Zn102  1  -0.01612006  0.86742092  0.87135745  1
  Zn  Zn103  1  0.00021823  0.13684606  0.64077491  1
  Zn  Zn104  1  0.50116119  0.74798467  0.25423122  1
  Zn  Zn105  1  0.12543100  0.37854510  0.24866025  1
  Zn  Zn106  1  0.07767141  0.45788974  0.07784400  1
  Zn  Zn107  1  0.18573831  0.18888262  0.18605550  1
  Zn  Zn108  1  0.19127034  0.18640597  0.68514858  1
  Zn  Zn109  1  0.19834141  0.69347633  0.19153085  1
  Zn  Zn110  1  0.18691981  0.68691632  0.68812420  1
  Zn  Zn111  1  0.68676210  0.18994229  0.18599866  1
  Zn  Zn112  1  0.69005145  0.19010199  0.69218007  1
  Zn  Zn113  1  0.68513247  0.68810876  0.18855400  1
  Zn  Zn114  1  0.68893832  0.68564678  0.68947989  1
  Zn  Zn115  1  0.31375724  0.31267962  0.30874093  1
  Zn  Zn116  1  0.30946867  0.31240672  0.81099451  1
  Zn  Zn117  1  0.31725387  0.81417451  0.31115689  1
  Zn  Zn118  1  0.31121417  0.81046518  0.81023686  1
  Zn  Zn119  1  0.81558186  0.31394099  0.31405909  1
  Zn  Zn120  1  0.80721768  0.29395257  0.81722551  1
  Zn  Zn121  1  0.80949367  0.81282131  0.31146271  1
  Zn  Zn122  1  0.81416976  0.81115666  0.81228956  1
  Zn  Zn123  1  0.18826583  0.43849558  0.43663153  1
  Zn  Zn124  1  0.14927865  0.45886509  0.91069923  1
  Zn  Zn125  1  0.18995351  0.93926207  0.43791914  1
  Zn  Zn126  1  0.19059675  0.93491506  0.93798450  1
  Zn  Zn127  1  0.68605679  0.44420023  0.43743190  1
  Zn  Zn128  1  0.68055500  0.43224585  0.94526036  1
  Zn  Zn129  1  0.68542845  0.94401645  0.43421106  1
  Zn  Zn130  1  0.69010606  0.93747651  0.93799004  1
  Zn  Zn131  1  0.31595834  0.06210320  0.06069119  1
  Zn  Zn132  1  0.31226426  0.06096450  0.56140591  1
  Zn  Zn133  1  0.31199185  0.56374287  0.06204879  1
  Zn  Zn134  1  0.31591785  0.55993186  0.55752127  1
  Zn  Zn135  1  0.80656100  0.07074924  0.06148009  1
  Zn  Zn136  1  0.81189700  0.06809046  0.56702675  1
  Zn  Zn137  1  0.79514644  0.57209216  0.07065937  1
  Zn  Zn138  1  0.81621599  0.56389817  0.56164735  1
  Zn  Zn139  1  0.43262842  0.43669387  0.19013452  1
  Zn  Zn140  1  0.43388240  0.43662239  0.68691570  1
  Zn  Zn141  1  0.44298029  0.94073647  0.19074791  1
  Zn  Zn142  1  0.44216180  0.93996379  0.68462499  1
  Zn  Zn143  1  0.90811258  0.41973474  0.04248125  1
  Zn  Zn144  1  0.99072882  0.38181740  0.86546166  1
  Zn  Zn145  1  0.93750697  0.93764681  0.18854399  1
  Zn  Zn146  1  0.93937474  0.93609424  0.68810059  1
  Zn  Zn147  1  0.06195678  0.06392924  0.31245230  1
  Zn  Zn148  1  0.05704006  0.05596606  0.81357253  1
  Zn  Zn149  1  0.06492140  0.56240014  0.30742108  1
  Zn  Zn150  1  0.05422014  0.56882070  0.81679484  1
  Zn  Zn151  1  0.56361802  0.06500842  0.31416055  1
  Zn  Zn152  1  0.56009645  0.06016137  0.80830649  1
  Zn  Zn153  1  0.56600648  0.56212608  0.31571022  1
  Zn  Zn154  1  0.56419539  0.55856939  0.81173413  1
  Zn  Zn155  1  0.43808802  0.19169634  0.43797350  1
  Zn  Zn156  1  0.43776854  0.19079109  0.93291043  1
  Zn  Zn157  1  0.44145218  0.69032767  0.43962131  1
  Zn  Zn158  1  0.43892592  0.68966554  0.93986688  1
  Zn  Zn159  1  0.94884968  0.19993223  0.46813135  1
  Zn  Zn160  1  0.94089195  0.18412762  0.92395370  1
  Zn  Zn161  1  0.93644182  0.68988675  0.43700192  1
  Zn  Zn162  1  0.93800604  0.68404780  0.94028629  1
  Zn  Zn163  1  0.06327700  0.29888166  0.05969308  1
  Zn  Zn164  1  0.06448753  0.31203566  0.55448968  1
  Zn  Zn165  1  0.06027726  0.80473461  0.06209720  1
  Zn  Zn166  1  0.06026754  0.81079616  0.56193004  1
  Zn  Zn167  1  0.55615695  0.31373420  0.06473118  1
  Zn  Zn168  1  0.55781985  0.31667902  0.56232849  1
  Zn  Zn169  1  0.59242764  0.82895899  0.04865776  1
  Zn  Zn170  1  0.56276303  0.81200107  0.56410400  1
  O  O171  1  0.11831889  0.12018319  0.11398355  1
  O  O172  1  0.12513355  0.11827216  0.61480864  1
  O  O173  1  0.13671328  0.63977726  0.11141207  1
  O  O174  1  0.11657095  0.63509847  0.61288900  1
  O  O175  1  0.60938562  0.12088943  0.13154871  1
  O  O176  1  0.62607515  0.12217605  0.61874810  1
  O  O177  1  0.61686993  0.61807711  0.11770685  1
  O  O178  1  0.62021940  0.61497890  0.62320823  1
  O  O179  1  0.37851867  0.37887188  0.38066464  1
  O  O180  1  0.38454432  0.37789073  0.87375480  1
  O  O181  1  0.38436500  0.87893242  0.37728580  1
  O  O182  1  0.37962705  0.88010442  0.87898011  1
  O  O183  1  0.88993314  0.37547003  0.37787049  1
  O  O184  1  0.87128832  0.39205043  0.86488292  1
  O  O185  1  0.88006347  0.88037599  0.38008695  1
  O  O186  1  0.86646466  0.89021170  0.87894496  1
  O  O187  1  0.24922397  0.01235973  0.36690294  1
  O  O188  1  0.26113684  0.00305582  0.87296620  1
  O  O189  1  0.25812331  0.50906983  0.37162134  1
  O  O190  1  0.24580729  0.51491799  0.86693151  1
  O  O191  1  0.75551911  0.01020991  0.36614866  1
  O  O192  1  0.75920968  0.00953926  0.88403598  1
  O  O193  1  0.73785976  0.51375127  0.36029244  1
  O  O194  1  0.75314452  0.50533309  0.88218317  1
  O  O195  1  0.25887678  0.49182959  0.13498059  1
  O  O196  1  0.25444250  0.48937895  0.62338770  1
  O  O197  1  0.24510443  0.99612632  0.12980818  1
  O  O198  1  0.24134898  0.99084166  0.62422085  1
  O  O199  1  0.73307484  0.50263929  0.13742852  1
  O  O200  1  0.73921062  0.50293973  0.62523341  1
  O  O201  1  0.74041444  1.01125192  0.13701677  1
  O  O202  1  0.73599362  0.99729987  0.61754820  1
  O  O203  1  0.00530163  0.36011952  0.25657079  1
  O  O204  1  0.00758142  0.39290016  0.73631150  1
  O  O205  1  0.00580166  0.86378390  0.25236541  1
  O  O206  1  0.00365875  0.88179983  0.76019112  1
  O  O207  1  0.49019232  0.36070150  0.25997643  1
  O  O208  1  0.50442817  0.37161848  0.75434738  1
  O  O209  1  0.50613584  0.87700009  0.26373234  1
  O  O210  1  0.50367204  0.86668616  0.75570111  1
  O  O211  1  0.49285598  0.13525366  0.24889039  1
  O  O212  1  0.49411695  0.13511515  0.74747121  1
  O  O213  1  0.50453434  0.62529481  0.23830173  1
  O  O214  1  0.49549163  0.63126783  0.74470191  1
  O  O215  1  0.99445925  0.13372438  0.24647114  1
  O  O216  1  0.99053844  0.11591890  0.75034278  1
  O  O217  1  0.98861135  0.63718182  0.26354331  1
  O  O218  1  0.99003996  0.62247819  0.74032158  1
  O  O219  1  0.36069767  0.24852589  -0.00117179  1
  O  O220  1  0.37599907  0.25861964  0.50835463  1
  O  O221  1  0.37788686  0.76405161  0.00799540  1
  O  O222  1  0.36762370  0.75234995  0.50732136  1
  O  O223  1  0.88224221  0.24613793  0.00960426  1
  O  O224  1  0.85791219  0.26495359  0.48726818  1
  O  O225  1  0.87631740  0.74435205  0.01810312  1
  O  O226  1  0.88077037  0.76234768  0.50712888  1
  O  O227  1  0.12593378  0.23875758  0.48412475  1
  O  O228  1  0.13459975  0.23666137  0.99196848  1
  O  O229  1  0.13028142  0.74262084  0.49238774  1
  O  O230  1  0.13181641  0.74436825  0.99110680  1
  O  O231  1  0.63025279  0.24989390  0.49417385  1
  O  O232  1  0.62856925  0.24799969  1.00686320  1
  O  O233  1  0.62745036  0.73668459  0.50534389  1
  O  O234  1  0.60476968  0.72866719  0.99123765  1
  O  O235  1  0.49708366  0.24131946  0.13301923  1
  O  O236  1  0.48743566  0.25331156  0.63465171  1
  O  O237  1  0.49703669  0.73988298  0.12499019  1
  O  O238  1  0.49575549  0.74343274  0.63506984  1
  O  O239  1  0.99125602  0.24223004  0.13339335  1
  O  O240  1  0.98781036  0.23584845  0.58088442  1
  O  O241  1  0.99070143  0.73555234  0.13180691  1
  O  O242  1  0.99020718  0.73814124  0.61940190  1
  O  O243  1  0.00639092  0.25606142  0.37161152  1
  O  O244  1  0.01367703  0.26461393  0.88188399  1
  O  O245  1  0.00593234  0.75699040  0.36853678  1
  O  O246  1  0.01340933  0.75178813  0.88305911  1
  O  O247  1  0.50753821  0.25660275  0.36832288  1
  O  O248  1  0.49632012  0.25832248  0.86002968  1
  O  O249  1  0.50422186  0.76001149  0.37308251  1
  O  O250  1  0.49837462  0.75594100  0.86145539  1
  O  O251  1  0.23808777  0.11889318  0.48988600  1
  O  O252  1  0.24231551  0.12677700  0.99486602  1
  O  O253  1  0.24382304  0.62899376  0.49200994  1
  O  O254  1  0.24736373  0.63213377  0.99141491  1
  O  O255  1  0.74016148  0.13718153  0.49411845  1
  O  O256  1  0.75095844  0.13730116  0.98830984  1
  O  O257  1  0.74256734  0.61758717  0.49004424  1
  O  O258  1  0.73799645  0.63072687  0.99118992  1
  O  O259  1  0.24926210  0.36441784  0.00695506  1
  O  O260  1  0.25993521  0.37771097  0.50583569  1
  O  O261  1  0.26303815  0.87539486  0.00786152  1
  O  O262  1  0.24983662  0.86884549  0.50987618  1
  O  O263  1  0.74698723  0.35350453  -0.00519523  1
  O  O264  1  0.75782245  0.37293902  0.49109613  1
  O  O265  1  0.70014591  0.85484511  0.01005083  1
  O  O266  1  0.76195959  0.88053845  0.49630790  1
  O  O267  1  0.14444708  0.49785905  0.25768029  1
  O  O268  1  0.12327029  0.50816438  0.73488202  1
  O  O269  1  0.12774214  0.99583670  0.24108381  1
  O  O270  1  0.12888935  1.00030455  0.73695096  1
  O  O271  1  0.63135998  0.50390932  0.23948613  1
  O  O272  1  0.61874489  0.49022182  0.73507335  1
  O  O273  1  0.63307427  0.99864492  0.24757015  1
  O  O274  1  0.62021514  0.99035825  0.73946159  1
  O  O275  1  0.37051990  0.01272741  0.25253014  1
  O  O276  1  0.37456190  0.00690687  0.75515168  1
  O  O277  1  0.36458132  0.49565771  0.26489878  1
  O  O278  1  0.37605937  0.51383728  0.75198918  1
  O  O279  1  0.86816751  0.00586713  0.25310277  1
  O  O280  1  0.86630321  -0.00224258  0.75947053  1
  O  O281  1  0.85505907  0.51259545  0.24642340  1
  O  O282  1  0.86446342  0.51420120  0.74967357  1
  O  O283  1  0.11905734  0.36606558  0.37482843  1
  O  O284  1  0.14431088  0.35234991  0.86760445  1
  O  O285  1  0.12197610  0.87047102  0.36792315  1
  O  O286  1  0.13190633  0.85859047  0.87534066  1
  O  O287  1  0.61538146  0.36738254  0.38103551  1
  O  O288  1  0.60936958  0.38430727  0.86441886  1
  O  O289  1  0.61893873  0.87632998  0.36731572  1
  O  O290  1  0.61500925  0.87705712  0.86315524  1
  O  O291  1  0.38516147  0.12535851  0.13227516  1
  O  O292  1  0.37422892  0.13360997  0.62900021  1
  O  O293  1  0.38519209  0.63649879  0.11746804  1
  O  O294  1  0.38224019  0.62871318  0.62943680  1
  O  O295  1  0.88023460  0.13137332  0.13355807  1
  O  O296  1  0.87679565  0.13345024  0.62688207  1
  O  O297  1  0.87103662  0.63591738  0.14358250  1
  O  O298  1  0.88181142  0.63207257  0.63005634  1
  O  O299  1  0.25016848  0.25477170  0.11633495  1
  O  O300  1  0.26084816  0.25957995  0.62791954  1
  O  O301  1  0.26351675  0.76042671  0.12403046  1
  O  O302  1  0.25428375  0.75581451  0.61974255  1
  O  O303  1  0.75969066  0.23777376  0.10965100  1
  O  O304  1  0.74944975  0.25368022  0.61301885  1
  O  O305  1  0.76384847  0.74752575  0.12725285  1
  O  O306  1  0.76314792  0.74938747  0.62510201  1
  O  O307  1  0.24257775  0.23844197  0.36647853  1
  O  O308  1  0.24622597  0.23862260  0.88053190  1
  O  O309  1  0.24848155  0.74412997  0.37732632  1
  O  O310  1  0.24547100  0.74020820  0.87537136  1
  O  O311  1  0.74078776  0.24865341  0.37692683  1
  O  O312  1  0.74111010  0.23720161  0.88876398  1
  O  O313  1  0.74578127  0.73692885  0.37106669  1
  O  O314  1  0.74759736  0.74205540  0.87910960  1
  O  O315  1  0.00683333  0.11386479  0.00161324  1
  O  O316  1  0.01563775  0.10645482  0.48544574  1
  O  O317  1  0.01888451  0.62867980  0.00475442  1
  O  O318  1  0.00594256  0.62055971  0.50290009  1
  O  O319  1  0.49375002  0.13117818  0.01410992  1
  O  O320  1  0.51407179  0.13174145  0.50164675  1
  O  O321  1  0.50188058  0.61360914  0.00607936  1
  O  O322  1  0.50947168  0.62938714  0.51199546  1
  O  O323  1  0.48686661  0.37003229  0.48586240  1
  O  O324  1  0.49627133  0.38026384  0.99165019  1
  O  O325  1  0.50218965  0.87525925  0.48886535  1
  O  O326  1  0.49774088  0.87072781  0.98249342  1
  O  O327  1  0.99611161  0.38707356  0.49003330  1
  O  O328  1  1.01069597  0.38655018  1.01329773  1
  O  O329  1  0.99563100  0.88499500  0.49367947  1
  O  O330  1  1.00392121  0.88727809  0.99852058  1
  O  O331  1  0.49332497  0.48982602  0.36737913  1
  O  O332  1  0.49669554  0.49461566  0.88479609  1
  O  O333  1  0.49974233  0.99312922  0.37794364  1
  O  O334  1  0.48694554  0.99165696  0.86860452  1
  O  O335  1  1.00665634  0.49244643  0.38008754  1
  O  O336  1  1.03948799  0.48192361  0.88182456  1
  O  O337  1  0.99456701  0.99187718  0.37673773  1
  O  O338  1  0.98210191  0.99756500  0.88803441  1
  O  O339  1  0.00417399  0.00363005  0.11668414  1
  O  O340  1  0.00752691  0.00069464  0.61431638  1
  O  O341  1  0.01609983  0.52663433  0.14807025  1
  O  O342  1  0.00896166  0.51109511  0.61311893  1
  O  O343  1  0.50534091  0.01742155  0.13020552  1
  O  O344  1  0.51304829  0.00480509  0.62030113  1
  O  O345  1  0.50480082  0.50445646  0.12228949  1
  O  O346  1  0.50098806  0.51047557  0.62702992  1
  O  O347  1  0.24917275  0.38144396  0.24219153  1
  O  O348  1  0.25610397  0.37989748  0.73439344  1
  O  O349  1  0.24528618  0.88228430  0.24498316  1
  O  O350  1  0.24623997  0.87362146  0.73644615  1
  O  O351  1  0.75158919  0.39168746  0.25943118  1
  O  O352  1  0.74465995  0.38657096  0.76543150  1
  O  O353  1  0.74059120  0.88865037  0.25588944  1
  O  O354  1  0.73617201  0.86927698  0.74751266  1
  O  O355  1  0.25699494  0.12175235  0.25361346  1
  O  O356  1  0.25892043  0.12151532  0.75619846  1
  O  O357  1  0.25169571  0.62033827  0.26246207  1
  O  O358  1  0.25959040  0.62537278  0.75406264  1
  O  O359  1  0.75502128  0.12183240  0.25601228  1
  O  O360  1  0.75070963  0.13333761  0.77074578  1
  O  O361  1  0.75295360  0.62191035  0.25815966  1
  O  O362  1  0.75496142  0.62688622  0.76500524  1
  O  O363  1  0.36756520  0.12741095  0.36863175  1
  O  O364  1  0.37201668  0.11615576  0.87010931  1
  O  O365  1  0.36872450  0.61803364  0.38271135  1
  O  O366  1  0.36807863  0.62609622  0.86775505  1
  O  O367  1  0.87133969  0.12042927  0.36942789  1
  O  O368  1  0.86695354  0.10908062  0.87725845  1
  O  O369  1  0.86538630  0.63051481  0.36772008  1
  O  O370  1  0.86881603  0.62882125  0.86788393  1
  O  O371  1  0.13757047  0.37079013  0.12893870  1
  O  O372  1  0.12847320  0.37932280  0.62211465  1
  O  O373  1  0.13040937  0.87687257  0.12939756  1
  O  O374  1  0.13090788  0.88061004  0.62447293  1
  O  O375  1  0.61719205  0.39048126  0.12578931  1
  O  O376  1  0.62076166  0.38987166  0.62735967  1
  O  O377  1  0.60722856  0.89266360  0.14378121  1
  O  O378  1  0.62624900  0.88257614  0.63031565  1
  O  O379  1  0.11547466  0.24581643  0.26047575  1
  O  O380  1  0.12458786  0.23639184  0.76342295  1
  O  O381  1  0.11805406  0.75302388  0.25389248  1
  O  O382  1  0.12697277  0.74682403  0.76686209  1
  O  O383  1  0.61692629  0.24813214  0.25876096  1
  O  O384  1  0.61610903  0.26896928  0.73870298  1
  O  O385  1  0.62287941  0.76320200  0.25021419  1
  O  O386  1  0.61652759  0.75630973  0.74989754  1
  O  O387  1  0.38096587  0.23850122  0.24814278  1
  O  O388  1  0.38039765  0.24380033  0.74306662  1
  O  O389  1  0.38084314  0.75799880  0.23389085  1
  O  O390  1  0.38135515  0.73977048  0.74418207  1
  O  O391  1  0.88031256  0.24472145  0.24490026  1
  O  O392  1  0.88017057  0.24925694  0.75158988  1
  O  O393  1  0.88134630  0.74672399  0.24470163  1
  O  O394  1  0.87314457  0.73923833  0.74145791  1
  O  O395  1  0.37430038  0.49023068  0.48513041  1
  O  O396  1  0.38446428  0.49760488  0.99836535  1
  O  O397  1  0.38026269  0.99834118  0.49737594  1
  O  O398  1  0.37550908  0.98836400  0.99196311  1
  O  O399  1  0.88824407  0.49808603  0.49953157  1
  O  O400  1  0.89588517  0.53161745  1.03646084  1
  O  O401  1  0.88302613  0.99540816  0.49517865  1
  O  O402  1  0.88407890  0.99980920  1.00876817  1
  O  O403  1  0.11906382  0.00389138  0.00282577  1
  O  O404  1  0.12029534  0.00265022  0.50873033  1
  O  O405  1  0.14427400  0.52142432  0.00954531  1
  O  O406  1  0.11806524  0.51404361  0.49258765  1
  O  O407  1  0.62560635  0.00148688  0.01570548  1
  O  O408  1  0.62401929  0.01429361  0.50353323  1
  O  O409  1  0.61511510  0.50561189  0.01135964  1
  O  O410  1  0.62520359  0.50952817  0.51428408  1
  O  O411  1  0.36431603  0.36984516  0.12208966  1
  O  O412  1  0.36822189  0.37069480  0.61579599  1
  O  O413  1  0.37796162  0.87453141  0.11751769  1
  O  O414  1  0.36770937  0.86899948  0.62490720  1
  O  O415  1  0.86911621  0.35441265  0.12686343  1
  O  O416  1  0.87851503  0.37380930  0.60557763  1
  O  O417  1  0.87847446  0.85933858  0.13110561  1
  O  O418  1  0.87300501  0.86881072  0.61620867  1
  O  O419  1  0.13315624  0.12947169  0.37817099  1
  O  O420  1  0.12755316  0.12507643  0.88369985  1
  O  O421  1  0.13459895  0.63218526  0.38020067  1
  O  O422  1  0.13173194  0.63697952  0.88346909  1
  O  O423  1  0.62932562  0.13795072  0.38249512  1
  O  O424  1  0.63529747  0.11232400  0.87613945  1
  O  O425  1  0.62814400  0.62846147  0.38668971  1
  O  O426  1  0.63315348  0.62118583  0.88007667  1
