# generated using pymatgen
data_V85Zn86O256
_symmetry_space_group_name_H-M   'P 1'
_cell_length_a   16.94619705
_cell_length_b   16.95493462
_cell_length_c   16.96683418
_cell_angle_alpha   89.96315483
_cell_angle_beta   89.96797385
_cell_angle_gamma   90.03293904
_symmetry_Int_Tables_number   1
_chemical_formula_structural   V85Zn86O256
_chemical_formula_sum   'V85 Zn86 O256'
_cell_volume   4874.93643769
_cell_formula_units_Z   1
loop_
 _symmetry_equiv_pos_site_id
 _symmetry_equiv_pos_as_xyz
  1  'x, y, z'
loop_
 _atom_site_type_symbol
 _atom_site_label
 _atom_site_symmetry_multiplicity
 _atom_site_fract_x
 _atom_site_fract_y
 _atom_site_fract_z
 _atom_site_occupancy
  V  V0  1  0.87036316  0.50742207  0.87700289  1
  V  V1  1  0.49518013  -0.00062536  0.00171524  1
  V  V2  1  0.12267956  0.24371216  0.88086380  1
  V  V3  1  0.63192385  0.13198694  0.50393966  1
  V  V4  1  0.62257577  0.24989389  0.87156311  1
  V  V5  1  0.37057257  0.62592181  0.24676753  1
  V  V6  1  0.37544210  0.75025663  0.62339706  1
  V  V7  1  0.11929281  0.50744706  0.62528461  1
  V  V8  1  -0.00266628  0.24616500  0.74901705  1
  V  V9  1  -0.00030638  0.87420095  0.87621794  1
  V  V10  1  0.62250107  0.37790930  0.74520238  1
  V  V11  1  0.49461786  0.37669876  0.87334176  1
  V  V12  1  0.74148499  0.75012668  0.50094563  1
  V  V13  1  0.88109808  0.62804048  0.24954214  1
  V  V14  1  0.87415583  0.87510679  0.49599932  1
  V  V15  1  0.74828561  0.37408888  0.12378512  1
  V  V16  1  0.62911511  0.00125044  0.62466614  1
  V  V17  1  0.24245061  0.62646950  0.37290977  1
  V  V18  1  0.86750304  0.11999602  0.74677174  1
  V  V19  1  0.24575797  0.50666105  0.75129207  1
  V  V20  1  -0.00273102  0.37625930  0.87493661  1
  V  V21  1  0.11566021  0.63253054  0.49970914  1
  V  V22  1  0.87885089  0.62367261  0.74340620  1
  V  V23  1  0.75129212  0.75007106  0.00156485  1
  V  V24  1  0.23375003  0.25842075  0.50626286  1
  V  V25  1  -0.00484902  0.50411407  0.50404199  1
  V  V26  1  0.25969890  0.38200937  0.62630109  1
  V  V27  1  0.62408990  0.50078473  0.12446038  1
  V  V28  1  0.62995957  0.74604609  0.87527144  1
  V  V29  1  0.00182530  0.74624171  0.74397263  1
  V  V30  1  0.87516436  0.50109730  0.37458808  1
  V  V31  1  0.87701360  0.12479755  0.24706575  1
  V  V32  1  0.49733364  0.75203788  0.24873354  1
  V  V33  1  0.51311055  0.62309365  0.62182759  1
  V  V34  1  0.37581469  0.00452285  0.86715270  1
  V  V35  1  0.24690657  0.75018187  0.49434087  1
  V  V36  1  0.62885949  -0.00962495  0.12670659  1
  V  V37  1  0.24806648  0.86572463  0.12554166  1
  V  V38  1  0.87698599  0.24837870  0.12336470  1
  V  V39  1  0.12112877  0.37717022  0.74875944  1
  V  V40  1  0.37126503  0.49874300  0.38654165  1
  V  V41  1  0.12781728  0.87418259  0.75180266  1
  V  V42  1  0.49450352  0.37670868  0.37863732  1
  V  V43  1  0.37194455  0.62688466  0.74948099  1
  V  V44  1  0.00696975  0.62995441  0.12268445  1
  V  V45  1  0.12779197  0.86183762  0.24826786  1
  V  V46  1  0.25603268  0.25266118  0.00377669  1
  V  V47  1  0.75170533  0.12602200  0.37612153  1
  V  V48  1  0.48947924  0.13769582  0.12398618  1
  V  V49  1  0.86991085  0.24836833  0.61995811  1
  V  V50  1  0.24485350  0.48462561  0.25072071  1
  V  V51  1  0.87509584  0.75454776  0.13131279  1
  V  V52  1  0.37090134  0.23372857  0.62338905  1
  V  V53  1  0.25055019  0.87609676  0.62379638  1
  V  V54  1  0.87246107  0.36990237  0.49721114  1
  V  V55  1  0.00543186  0.86543699  0.36926632  1
  V  V56  1  0.24952253  0.12511090  0.86941421  1
  V  V57  1  0.75505022  0.87677640  0.62763857  1
  V  V58  1  0.86740327  -0.00173755  0.87155918  1
  V  V59  1  0.63348120  0.25338610  0.38320110  1
  V  V60  1  0.49490968  0.62690494  0.12314671  1
  V  V61  1  0.63077255  0.62255490  -0.00362467  1
  V  V62  1  0.74998569  0.25012169  -0.00345474  1
  V  V63  1  0.12184663  0.26072165  0.36319405  1
  V  V64  1  0.00858429  0.00613424  0.00403834  1
  V  V65  1  0.15008359  0.09585899  0.46499710  1
  V  V66  1  0.74617289  0.50635035  0.75073739  1
  V  V67  1  0.36726345  0.86275147  0.00211695  1
  V  V68  1  0.62251688  0.36820816  0.25104639  1
  V  V69  1  0.49916734  0.87342856  0.87535300  1
  V  V70  1  0.62451963  0.12395353  -0.00032635  1
  V  V71  1  0.87072961  0.87741803  0.00444524  1
  V  V72  1  0.12049643  0.00535338  0.63008698  1
  V  V73  1  0.75019441  0.50177552  0.24902346  1
  V  V74  1  0.12398381  0.48717898  0.13122859  1
  V  V75  1  0.18679330  0.05086038  0.18678614  1
  V  V76  1  0.38032041  0.87897828  0.49009946  1
  V  V77  1  0.50229293  0.74909157  0.74969370  1
  V  V78  1  0.74339150  0.62636266  0.37901140  1
  V  V79  1  0.51753414  0.50360136  0.50329275  1
  V  V80  1  0.74637206  0.37900687  0.62216506  1
  V  V81  1  0.00799136  0.50528170  -0.00107406  1
  V  V82  1  0.24810603  0.62846905  0.89413117  1
  V  V83  1  0.63165129  0.88110258  0.75259640  1
  V  V84  1  0.12774155  0.74790042  0.89116822  1
  Zn  Zn85  1  0.00983250  0.25776129  0.23863300  1
  Zn  Zn86  1  0.74653086  0.12014255  0.86920615  1
  Zn  Zn87  1  0.46254055  0.22066904  0.27963634  1
  Zn  Zn88  1  0.61915149  0.74504834  0.37715291  1
  Zn  Zn89  1  0.49729683  0.49953858  -0.00230801  1
  Zn  Zn90  1  0.49792908  0.00974280  0.49507417  1
  Zn  Zn91  1  0.30371136  0.32009802  0.16562693  1
  Zn  Zn92  1  0.25999120  0.00556334  0.74274050  1
  Zn  Zn93  1  0.87919307  0.74569193  0.62182829  1
  Zn  Zn94  1  0.87502094  -0.00145036  0.37191598  1
  Zn  Zn95  1  0.87408808  0.37802232  -0.00175554  1
  Zn  Zn96  1  0.75546753  -0.00589080  0.24353610  1
  Zn  Zn97  1  0.63953409  0.86196569  0.24521805  1
  Zn  Zn98  1  -0.00193657  0.00007408  0.49749792  1
  Zn  Zn99  1  0.49781435  0.11862323  0.63093410  1
  Zn  Zn100  1  0.00134506  0.12579509  0.61404439  1
  Zn  Zn101  1  0.01279478  0.12364665  0.12210259  1
  Zn  Zn102  1  0.50216940  0.87712386  0.36737256  1
  Zn  Zn103  1  0.48771506  0.24508550  0.75081205  1
  Zn  Zn104  1  0.37296962  0.49927144  0.87244306  1
  Zn  Zn105  1  0.00230790  0.37998756  0.36528663  1
  Zn  Zn106  1  0.37347079  0.37719868  0.00605019  1
  Zn  Zn107  1  0.33904966  0.08175336  0.30518706  1
  Zn  Zn108  1  0.18904680  0.18829881  0.69249655  1
  Zn  Zn109  1  0.18860618  0.68565625  0.18299090  1
  Zn  Zn110  1  0.18568659  0.68999743  0.68555490  1
  Zn  Zn111  1  0.68524577  0.18353329  0.18755984  1
  Zn  Zn112  1  0.68774788  0.19275344  0.68764434  1
  Zn  Zn113  1  0.68917221  0.68702647  0.18524653  1
  Zn  Zn114  1  0.69190516  0.69040879  0.68920008  1
  Zn  Zn115  1  0.32426255  0.27794219  0.33709426  1
  Zn  Zn116  1  0.30852964  0.31171168  0.80816029  1
  Zn  Zn117  1  0.31006183  0.81058267  0.30889767  1
  Zn  Zn118  1  0.31049879  0.81141234  0.81570297  1
  Zn  Zn119  1  0.81538617  0.31270687  0.30931972  1
  Zn  Zn120  1  0.81156668  0.31536125  0.81047370  1
  Zn  Zn121  1  0.80857195  0.81559667  0.31304981  1
  Zn  Zn122  1  0.81308405  0.80865711  0.81518450  1
  Zn  Zn123  1  0.18484102  0.43860629  0.43918423  1
  Zn  Zn124  1  0.18494922  0.43752328  0.93653593  1
  Zn  Zn125  1  0.18862653  0.93347762  0.43190279  1
  Zn  Zn126  1  0.19084625  0.93749029  0.93621984  1
  Zn  Zn127  1  0.69058466  0.43818408  0.43746600  1
  Zn  Zn128  1  0.68499209  0.43708031  0.93339897  1
  Zn  Zn129  1  0.65699432  0.95426536  0.41480704  1
  Zn  Zn130  1  0.68829273  0.93494715  0.94042081  1
  Zn  Zn131  1  0.30891947  0.06562576  0.05315049  1
  Zn  Zn132  1  0.30076625  0.05697072  0.54053157  1
  Zn  Zn133  1  0.31698800  0.54080723  0.06875748  1
  Zn  Zn134  1  0.31123245  0.56634560  0.56343484  1
  Zn  Zn135  1  0.81297659  0.06372294  0.05991076  1
  Zn  Zn136  1  0.80875285  0.05950890  0.56041366  1
  Zn  Zn137  1  0.81397110  0.56526824  0.06222908  1
  Zn  Zn138  1  0.80796156  0.56233805  0.56383866  1
  Zn  Zn139  1  0.43710262  0.43729941  0.19330818  1
  Zn  Zn140  1  0.43943465  0.44163446  0.68834277  1
  Zn  Zn141  1  0.42738869  0.94180104  0.18301249  1
  Zn  Zn142  1  0.44235869  0.93527183  0.68324526  1
  Zn  Zn143  1  0.93743916  0.43720936  0.18451092  1
  Zn  Zn144  1  0.93455275  0.43774820  0.68604776  1
  Zn  Zn145  1  0.94129841  0.93743213  0.18897577  1
  Zn  Zn146  1  0.93822484  0.93572035  0.68815795  1
  Zn  Zn147  1  0.05297287  0.05998588  0.31063466  1
  Zn  Zn148  1  0.05784545  0.06160136  0.81386936  1
  Zn  Zn149  1  0.06205256  0.56258784  0.31221956  1
  Zn  Zn150  1  0.06289661  0.56827184  0.81698404  1
  Zn  Zn151  1  0.52068715  0.03982586  0.29367539  1
  Zn  Zn152  1  0.55913413  0.06392500  0.81016701  1
  Zn  Zn153  1  0.56031697  0.56154517  0.31020673  1
  Zn  Zn154  1  0.56298465  0.56213211  0.81104711  1
  Zn  Zn155  1  0.44010502  0.19440179  0.45508505  1
  Zn  Zn156  1  0.43434852  0.18859666  0.93595560  1
  Zn  Zn157  1  0.43476683  0.68526597  0.43577955  1
  Zn  Zn158  1  0.43923381  0.68399107  0.93642447  1
  Zn  Zn159  1  0.94805403  0.18342397  0.43760955  1
  Zn  Zn160  1  0.93539049  0.18367703  0.93577864  1
  Zn  Zn161  1  0.93304676  0.69106164  0.43604518  1
  Zn  Zn162  1  0.93840371  0.68722229  0.93594077  1
  Zn  Zn163  1  0.06195584  0.31263144  0.05901333  1
  Zn  Zn164  1  0.05640306  0.32026988  0.56535693  1
  Zn  Zn165  1  0.05759887  0.81914967  0.06837850  1
  Zn  Zn166  1  0.06107664  0.81683643  0.56220448  1
  Zn  Zn167  1  0.56203714  0.31461448  0.05769702  1
  Zn  Zn168  1  0.55832610  0.31459843  0.56181144  1
  Zn  Zn169  1  0.55663848  0.80901023  0.06247009  1
  Zn  Zn170  1  0.56406602  0.81274586  0.56481567  1
  O  O171  1  0.12808067  0.11287770  0.13493230  1
  O  O172  1  0.12071788  0.10844605  0.64365654  1
  O  O173  1  0.10953030  0.62004344  0.13102809  1
  O  O174  1  0.12787918  0.61501726  0.61587552  1
  O  O175  1  0.61877465  0.11974474  0.11042979  1
  O  O176  1  0.63411886  0.11747192  0.62056540  1
  O  O177  1  0.61988461  0.61887244  0.11637871  1
  O  O178  1  0.61191868  0.62859948  0.63359156  1
  O  O179  1  0.38866531  0.38201796  0.37718954  1
  O  O180  1  0.38769122  0.37383950  0.86523785  1
  O  O181  1  0.37660738  0.86845077  0.38794732  1
  O  O182  1  0.37872264  0.87938017  0.88430809  1
  O  O183  1  0.87121645  0.38257647  0.38341107  1
  O  O184  1  0.88063627  0.38698569  0.87386635  1
  O  O185  1  0.88403099  0.87485532  0.38101623  1
  O  O186  1  0.87962770  0.87985072  0.88132393  1
  O  O187  1  0.23621362  0.03672490  0.42660464  1
  O  O188  1  0.25898127  0.00703806  0.87308906  1
  O  O189  1  0.25312120  0.50542962  0.37160795  1
  O  O190  1  0.24529270  0.51180567  0.86647101  1
  O  O191  1  0.74801860  0.01656585  0.36999980  1
  O  O192  1  0.76280130  -0.00078284  0.87933140  1
  O  O193  1  0.75723473  0.50761205  0.37075078  1
  O  O194  1  0.75916838  0.49406371  0.86468061  1
  O  O195  1  0.23366757  0.50952481  0.13948818  1
  O  O196  1  0.24071402  0.49864018  0.63000914  1
  O  O197  1  0.24697546  0.99322910  0.11973013  1
  O  O198  1  0.24204699  0.99246550  0.62527439  1
  O  O199  1  0.74405141  0.49471658  0.12755414  1
  O  O200  1  0.75475808  0.48757576  0.63452170  1
  O  O201  1  0.73144579  1.00703209  0.12030442  1
  O  O202  1  0.74346235  0.98556101  0.62585347  1
  O  O203  1  -0.01233141  0.36818740  0.25343099  1
  O  O204  1  -0.00004438  0.36577405  0.75356633  1
  O  O205  1  0.01166598  0.87641586  0.25971947  1
  O  O206  1  0.00641109  0.86746612  0.75813970  1
  O  O207  1  0.51250754  0.38714522  0.26461279  1
  O  O208  1  0.50800354  0.37244999  0.75179631  1
  O  O209  1  0.49296419  0.85637736  0.24222017  1
  O  O210  1  0.50976878  0.86702894  0.75445304  1
  O  O211  1  0.51531894  0.13413751  0.22824201  1
  O  O212  1  0.50828853  0.13372730  0.74187224  1
  O  O213  1  0.49061437  0.62818782  0.24336631  1
  O  O214  1  0.49171117  0.62927588  0.74409986  1
  O  O215  1  0.98694172  0.13355116  0.24622557  1
  O  O216  1  0.98863991  0.13629361  0.74968648  1
  O  O217  1  0.98701384  0.62062952  0.24335800  1
  O  O218  1  0.99214922  0.63384840  0.75347511  1
  O  O219  1  0.36164567  0.25556296  -0.00415916  1
  O  O220  1  0.35339624  0.25247512  0.51584704  1
  O  O221  1  0.38026036  0.76493690  -0.00505989  1
  O  O222  1  0.36626024  0.75396191  0.50550834  1
  O  O223  1  0.86663455  0.24954921  0.00614308  1
  O  O224  1  0.88323748  0.25825407  0.50768738  1
  O  O225  1  0.86874927  0.75624020  0.00324400  1
  O  O226  1  0.86824972  0.75983855  0.50308911  1
  O  O227  1  0.12882718  0.25625660  0.50363396  1
  O  O228  1  0.12770866  0.25393502  0.98343531  1
  O  O229  1  0.13226876  0.74210980  0.50765818  1
  O  O230  1  0.11680916  0.75836902  0.98922407  1
  O  O231  1  0.62680239  0.24710159  0.49495968  1
  O  O232  1  0.63109923  0.24278204  0.99278716  1
  O  O233  1  0.63766862  0.75110367  0.50079203  1
  O  O234  1  0.63183047  0.74463777  0.99686988  1
  O  O235  1  0.49889858  0.23693080  0.11175485  1
  O  O236  1  0.47733486  0.25304910  0.61891684  1
  O  O237  1  0.50058492  0.73392464  0.12963947  1
  O  O238  1  0.49540054  0.74269047  0.63011770  1
  O  O239  1  0.99134519  0.24396577  0.11933554  1
  O  O240  1  0.98921047  0.24945885  0.63277793  1
  O  O241  1  0.98735764  0.74128211  0.11845413  1
  O  O242  1  0.99904183  0.75589777  0.63995362  1
  O  O243  1  0.01369310  0.25539573  0.37468064  1
  O  O244  1  0.00281278  0.25359124  0.86839076  1
  O  O245  1  -0.00254834  0.76598343  0.37607403  1
  O  O246  1  0.00737124  0.75435624  0.86677565  1
  O  O247  1  0.51525841  0.26350582  0.37994123  1
  O  O248  1  0.50552541  0.25725321  0.87196399  1
  O  O249  1  0.49974805  0.74540148  0.36325544  1
  O  O250  1  0.50783531  0.75546087  0.86957480  1
  O  O251  1  0.22658489  0.14684408  0.52583268  1
  O  O252  1  0.25194819  0.13972621  0.98314435  1
  O  O253  1  0.24013004  0.63205677  0.49468864  1
  O  O254  1  0.25890413  0.61932238  0.99121080  1
  O  O255  1  0.74253752  0.12636709  0.49224039  1
  O  O256  1  0.74279718  0.13531093  0.99623265  1
  O  O257  1  0.75798169  0.63477195  0.49061891  1
  O  O258  1  0.73812788  0.63102568  1.00173234  1
  O  O259  1  0.25153439  0.35809208  -0.01751131  1
  O  O260  1  0.24119940  0.36831867  0.51374425  1
  O  O261  1  0.26118670  0.87700677  0.00443677  1
  O  O262  1  0.25951833  0.86710637  0.50144058  1
  O  O263  1  0.74734971  0.36347766  0.00297238  1
  O  O264  1  0.76232829  0.38180495  0.50836832  1
  O  O265  1  0.76255676  0.86759612  -0.00063301  1
  O  O266  1  0.75814977  0.86606987  0.50838877  1
  O  O267  1  0.13228656  0.50193193  0.24463127  1
  O  O268  1  0.12406192  0.50038109  0.74199001  1
  O  O269  1  0.12575630  0.99244952  0.24983958  1
  O  O270  1  0.12245594  0.98553747  0.74864451  1
  O  O271  1  0.63195947  0.49369363  0.24419964  1
  O  O272  1  0.63313446  0.48839159  0.75394001  1
  O  O273  1  0.61919655  0.99868034  0.22971126  1
  O  O274  1  0.62440091  0.98655193  0.74661134  1
  O  O275  1  0.41046755  0.00343707  0.27267156  1
  O  O276  1  0.37826654  -0.01142176  0.76307743  1
  O  O277  1  0.36663048  0.51034813  0.26477468  1
  O  O278  1  0.36748960  0.51140240  0.75116525  1
  O  O279  1  0.87522315  0.01084838  0.24938360  1
  O  O280  1  0.88093034  0.00849537  0.75791493  1
  O  O281  1  0.86819425  0.50825512  0.25335561  1
  O  O282  1  0.86989255  0.50584983  0.75569530  1
  O  O283  1  0.12073685  0.36521579  0.38008438  1
  O  O284  1  0.11520694  0.36984044  0.86546159  1
  O  O285  1  0.11631811  0.87593630  0.36513517  1
  O  O286  1  0.12289632  0.86790272  0.86751388  1
  O  O287  1  0.62318222  0.37241466  0.36961756  1
  O  O288  1  0.61494685  0.37029919  0.86644588  1
  O  O289  1  0.62282975  0.85990919  0.36297798  1
  O  O290  1  0.62069675  0.86899822  0.86992547  1
  O  O291  1  0.39134674  0.11756340  0.11786891  1
  O  O292  1  0.37074888  0.13195481  0.61652047  1
  O  O293  1  0.38284356  0.61477079  0.13521343  1
  O  O294  1  0.37949944  0.63129313  0.63467805  1
  O  O295  1  0.87407242  0.13265972  0.13001192  1
  O  O296  1  0.87583477  0.13114196  0.62797051  1
  O  O297  1  0.88165670  0.63114881  0.13204265  1
  O  O298  1  0.87197562  0.62548114  0.63882123  1
  O  O299  1  0.23860748  0.25110213  0.10145622  1
  O  O300  1  0.25165128  0.26261342  0.62534797  1
  O  O301  1  0.24693932  0.76539619  0.12449792  1
  O  O302  1  0.25430800  0.75550487  0.61469457  1
  O  O303  1  0.75259030  0.25327541  0.11521614  1
  O  O304  1  0.76341316  0.26271465  0.62990934  1
  O  O305  1  0.76077858  0.74326336  0.11119415  1
  O  O306  1  0.75344752  0.75857715  0.61890409  1
  O  O307  1  0.23301304  0.25346052  0.39707429  1
  O  O308  1  0.23933508  0.24300214  0.87106688  1
  O  O309  1  0.25229073  0.74189742  0.38675206  1
  O  O310  1  0.23978740  0.74062260  0.87337809  1
  O  O311  1  0.74130942  0.24392396  0.36956297  1
  O  O312  1  0.74368504  0.25039318  0.88158161  1
  O  O313  1  0.75241290  0.74100631  0.38475374  1
  O  O314  1  0.74324531  0.75217600  0.88910239  1
  O  O315  1  -0.00298474  0.11015668  -0.00135368  1
  O  O316  1  0.02124825  0.11803840  0.49857419  1
  O  O317  1  -0.00664658  0.61626117  0.00915884  1
  O  O318  1  0.00806156  0.62230583  0.49511388  1
  O  O319  1  0.50604953  0.11795521  0.00201095  1
  O  O320  1  0.51551839  0.12698672  0.51024938  1
  O  O321  1  0.50956988  0.62421833  0.00667675  1
  O  O322  1  0.49531472  0.61389848  0.50805849  1
  O  O323  1  0.50626337  0.39295406  0.49264033  1
  O  O324  1  0.49901211  0.37761708  0.98690314  1
  O  O325  1  0.48457369  0.86643484  0.50081514  1
  O  O326  1  0.49050712  0.88137946  0.99614580  1
  O  O327  1  0.98629086  0.38644250  0.49863866  1
  O  O328  1  0.99589199  0.38446757  0.99144996  1
  O  O329  1  0.99313517  0.87450198  0.48970431  1
  O  O330  1  0.98823267  0.88188375  0.99430331  1
  O  O331  1  0.49328890  0.50027676  0.38672289  1
  O  O332  1  0.49879085  0.49030670  0.87248984  1
  O  O333  1  0.53744457  0.98760027  0.39077014  1
  O  O334  1  0.49633561  0.99378878  0.88378294  1
  O  O335  1  0.99294493  0.50134934  0.38640590  1
  O  O336  1  0.99464644  0.49801146  0.88196048  1
  O  O337  1  0.99492689  0.98619991  0.37776207  1
  O  O338  1  0.98823570  0.99398580  0.88202992  1
  O  O339  1  -0.00513487  0.00145919  0.10770599  1
  O  O340  1  0.00719008  0.00015167  0.62291282  1
  O  O341  1  0.00282239  0.50810361  0.11696446  1
  O  O342  1  0.00399601  0.49871703  0.61327396  1
  O  O343  1  0.50825077  0.00618082  0.11169125  1
  O  O344  1  0.51625432  -0.00252795  0.61998016  1
  O  O345  1  0.51014038  0.51085854  0.12587922  1
  O  O346  1  0.49688940  0.50689207  0.61066713  1
  O  O347  1  0.25179598  0.38571118  0.25598760  1
  O  O348  1  0.23997013  0.38650515  0.74496040  1
  O  O349  1  0.23945214  0.87499484  0.24456577  1
  O  O350  1  0.24228789  0.87553569  0.74382594  1
  O  O351  1  0.74359850  0.38241473  0.24369334  1
  O  O352  1  0.74434605  0.38430606  0.74259285  1
  O  O353  1  0.75169021  0.88055871  0.24446155  1
  O  O354  1  0.74287470  0.86578437  0.74176526  1
  O  O355  1  0.24745166  0.10609215  0.24470325  1
  O  O356  1  0.25071492  0.12142325  0.76220504  1
  O  O357  1  0.25330056  0.62284155  0.25852885  1
  O  O358  1  0.25673710  0.62319181  0.75005008  1
  O  O359  1  0.75917282  0.12339612  0.25556961  1
  O  O360  1  0.76336880  0.13008606  0.75047439  1
  O  O361  1  0.75963576  0.62039981  0.25509786  1
  O  O362  1  0.75577600  0.61222858  0.74702504  1
  O  O363  1  0.38351519  0.16928798  0.36105611  1
  O  O364  1  0.36819872  0.11441926  0.87660658  1
  O  O365  1  0.36078008  0.61767187  0.37198293  1
  O  O366  1  0.36706826  0.62942972  0.86232604  1
  O  O367  1  0.86872085  0.12790011  0.36756136  1
  O  O368  1  0.87172479  0.11618447  0.86549716  1
  O  O369  1  0.86888888  0.62079393  0.36651772  1
  O  O370  1  0.87828408  0.61315050  0.86488192  1
  O  O371  1  0.11836724  0.38778780  0.12403314  1
  O  O372  1  0.12799182  0.38987274  0.63088761  1
  O  O373  1  0.12900248  0.87533906  0.13904808  1
  O  O374  1  0.12974769  0.88211298  0.63305771  1
  O  O375  1  0.62745222  0.37953834  0.13156822  1
  O  O376  1  0.63450934  0.36898211  0.63189727  1
  O  O377  1  0.61948206  0.88764740  0.12004421  1
  O  O378  1  0.63302912  0.88039360  0.63264879  1
  O  O379  1  0.12907915  0.25313152  0.26590862  1
  O  O380  1  0.11335452  0.25626740  0.75395189  1
  O  O381  1  0.12710968  0.76274254  0.24988179  1
  O  O382  1  0.11942725  0.75892699  0.75346785  1
  O  O383  1  0.62948916  0.26342910  0.25601283  1
  O  O384  1  0.62765211  0.26352293  0.75633671  1
  O  O385  1  0.61215110  0.74489003  0.24587604  1
  O  O386  1  0.62307485  0.75774450  0.75697244  1
  O  O387  1  0.37525712  0.27558177  0.23906754  1
  O  O388  1  0.36895584  0.25448592  0.72790835  1
  O  O389  1  0.37863856  0.73340431  0.25472393  1
  O  O390  1  0.38052087  0.74615249  0.74434845  1
  O  O391  1  0.86989217  0.24466990  0.23285640  1
  O  O392  1  0.88047523  0.24540256  0.74318789  1
  O  O393  1  0.86923480  0.74204464  0.23895997  1
  O  O394  1  0.88302902  0.74018616  0.75213754  1
  O  O395  1  0.37450671  0.50500081  0.48898519  1
  O  O396  1  0.37990247  0.49638797  0.98683638  1
  O  O397  1  0.38147471  0.98354151  0.50342387  1
  O  O398  1  0.38226979  0.99288422  0.98879061  1
  O  O399  1  0.88008064  0.49707932  0.49628295  1
  O  O400  1  0.88046353  0.50071583  0.99136457  1
  O  O401  1  0.87354091  0.98616370  0.49808160  1
  O  O402  1  0.87860784  0.99283706  0.99331668  1
  O  O403  1  0.10633113  -0.00769163  -0.00936604  1
  O  O404  1  0.12054092  -0.00263363  0.51316242  1
  O  O405  1  0.11329842  0.49848340  0.00661222  1
  O  O406  1  0.11526013  0.50844295  0.50638499  1
  O  O407  1  0.61736168  0.00552332  0.00263200  1
  O  O408  1  0.63279957  0.01218532  0.51359578  1
  O  O409  1  0.62448576  0.50729585  0.00445841  1
  O  O410  1  0.61591568  0.50558511  0.49674985  1
  O  O411  1  0.36407167  0.40320235  0.11784799  1
  O  O412  1  0.36067806  0.38136733  0.62799244  1
  O  O413  1  0.36619555  0.87994525  0.11015786  1
  O  O414  1  0.36957490  0.86834472  0.61712249  1
  O  O415  1  0.86470363  0.36723998  0.11864418  1
  O  O416  1  0.86901443  0.36825138  0.61794353  1
  O  O417  1  0.88301557  0.86500002  0.11704965  1
  O  O418  1  0.86910285  0.87230503  0.61930152  1
  O  O419  1  0.11872799  0.13749915  0.37471991  1
  O  O420  1  0.13047227  0.13397323  0.86690014  1
  O  O421  1  0.13481735  0.62075634  0.38443274  1
  O  O422  1  0.13576886  0.63596269  0.87458443  1
  O  O423  1  0.63425579  0.13925201  0.38582452  1
  O  O424  1  0.62672255  0.12778375  0.88495246  1
  O  O425  1  0.64011586  0.62450769  0.36814238  1
  O  O426  1  0.61905188  0.63389016  0.88374476  1
