# generated using pymatgen
data_V85Zn86O256
_symmetry_space_group_name_H-M   'P 1'
_cell_length_a   16.93474576
_cell_length_b   16.92990340
_cell_length_c   16.93275162
_cell_angle_alpha   90.05503985
_cell_angle_beta   89.96431846
_cell_angle_gamma   89.96334216
_symmetry_Int_Tables_number   1
_chemical_formula_structural   V85Zn86O256
_chemical_formula_sum   'V85 Zn86 O256'
_cell_volume   4854.67683615
_cell_formula_units_Z   1
loop_
 _symmetry_equiv_pos_site_id
 _symmetry_equiv_pos_as_xyz
  1  'x, y, z'
loop_
 _atom_site_type_symbol
 _atom_site_label
 _atom_site_symmetry_multiplicity
 _atom_site_fract_x
 _atom_site_fract_y
 _atom_site_fract_z
 _atom_site_occupancy
  V  V0  1  0.62505370  0.11953912  0.50966272  1
  V  V1  1  0.49539759  0.12480441  0.13588947  1
  V  V2  1  0.12453413  0.62661332  -0.00167319  1
  V  V3  1  0.37563422  0.87808121  -0.01152758  1
  V  V4  1  0.12406310  0.24630926  0.87401476  1
  V  V5  1  0.86734691  0.50045170  0.87123242  1
  V  V6  1  0.00133845  0.24753234  0.73985815  1
  V  V7  1  0.24156208  0.74914790  0.50163639  1
  V  V8  1  0.74492636  0.62406706  0.86685046  1
  V  V9  1  0.61763896  0.87726217  0.73667394  1
  V  V10  1  0.25564202  0.37331773  0.10807760  1
  V  V11  1  -0.00845571  0.00011934  -0.00378093  1
  V  V12  1  0.25276557  0.75217169  0.00156386  1
  V  V13  1  0.49275518  0.74908582  0.75130334  1
  V  V14  1  0.87450568  0.37692620  -0.00111200  1
  V  V15  1  0.12818061  0.37371691  0.24678368  1
  V  V16  1  -0.00165150  0.24990277  0.25221983  1
  V  V17  1  0.62124331  0.75880511  0.86967005  1
  V  V18  1  0.25586812  0.00379206  0.76977203  1
  V  V19  1  0.13020042  0.12562826  0.50160230  1
  V  V20  1  0.62605262  0.24916752  0.86475665  1
  V  V21  1  0.12368135  0.75256693  0.87482866  1
  V  V22  1  0.50044419  0.87068063  0.37914784  1
  V  V23  1  0.24271892  0.62569364  0.37628596  1
  V  V24  1  0.37153627  0.75192589  0.62578016  1
  V  V25  1  0.36619840  0.87663918  0.50268074  1
  V  V26  1  0.62675867  0.00044242  0.13196654  1
  V  V27  1  0.12746217  0.87680337  0.74605097  1
  V  V28  1  0.36908158  0.25353253  0.63502120  1
  V  V29  1  0.87363318  0.87537911  0.50276806  1
  V  V30  1  0.00092376  0.74990873  0.24779943  1
  V  V31  1  0.61958992  0.50413444  0.12621260  1
  V  V32  1  0.25184874  0.01239114  0.25582105  1
  V  V33  1  0.13277313  0.38205642  0.74286281  1
  V  V34  1  0.62062799  0.62438100  -0.00046857  1
  V  V35  1  0.87843014  0.38305209  0.49816858  1
  V  V36  1  0.12221273  0.12726193  -0.00211875  1
  V  V37  1  -0.00013247  0.37664559  0.87271524  1
  V  V38  1  0.75022973  0.12559230  0.37628474  1
  V  V39  1  0.74444275  -0.00114314  0.74987249  1
  V  V40  1  -0.01083116  0.87666635  0.87509411  1
  V  V41  1  0.00767891  0.62377493  0.61804402  1
  V  V42  1  0.87273961  0.12686690  0.25179810  1
  V  V43  1  0.88230808  0.11528207  0.75002898  1
  V  V44  1  0.62745381  0.38571647  0.75143234  1
  V  V45  1  0.12604562  0.50044983  0.12156125  1
  V  V46  1  0.62959996  0.61581481  0.49524146  1
  V  V47  1  0.75372999  0.24979137  0.50423813  1
  V  V48  1  0.00216011  0.38174614  0.37531462  1
  V  V49  1  0.29759483  0.18990857  -0.05646970  1
  V  V50  1  0.56375234  0.81673025  0.20370088  1
  V  V51  1  0.62138897  0.24840518  0.37865073  1
  V  V52  1  0.37678647  0.50143149  0.86892384  1
  V  V53  1  0.37038239  0.25007455  0.13465632  1
  V  V54  1  0.25416005  0.50155567  0.24730448  1
  V  V55  1  0.36772912  0.37682963  0.50525647  1
  V  V56  1  -0.00009349  0.00679740  0.51033863  1
  V  V57  1  0.38722038  0.63251700  0.24446329  1
  V  V58  1  0.13503214  0.24300677  0.37202224  1
  V  V59  1  0.49886933  0.13048440  0.63627641  1
  V  V60  1  0.62679653  0.12332327  0.00155496  1
  V  V61  1  0.49466276  0.61796164  0.61969871  1
  V  V62  1  -0.00102042  0.12473845  0.12514354  1
  V  V63  1  0.87259225  0.61860612  0.25998166  1
  V  V64  1  0.74652979  0.37888632  0.12422107  1
  V  V65  1  0.75334567  0.38165560  0.63067119  1
  V  V66  1  0.49186986  0.49918515  0.00337090  1
  V  V67  1  0.25466168  0.62579867  0.86737094  1
  V  V68  1  0.37468990  0.01309010  0.37507901  1
  V  V69  1  0.86529656  0.75423408  0.12324913  1
  V  V70  1  0.87798183  0.00121477  0.37636297  1
  V  V71  1  0.12714932  0.87419393  0.25213386  1
  V  V72  1  0.49875018  0.37805043  0.38474923  1
  V  V73  1  0.37949276  0.50418516  0.38027844  1
  V  V74  1  0.62261303  0.37512838  0.25261254  1
  V  V75  1  0.25375188  0.87245229  0.12838801  1
  V  V76  1  0.49775883  0.37330060  0.87482744  1
  V  V77  1  0.87377903  0.25155063  0.12700493  1
  V  V78  1  0.63054466  0.75200345  0.37891876  1
  V  V79  1  0.49662880  -0.00104477  -0.01036698  1
  V  V80  1  0.13803833  0.00302060  0.62586961  1
  V  V81  1  0.74795451  -0.01311446  0.25040983  1
  V  V82  1  0.87353636  0.62401587  0.74625342  1
  V  V83  1  0.74782749  0.24820259  -0.00112347  1
  V  V84  1  0.50098066  -0.00179997  0.51101076  1
  Zn  Zn85  1  -0.00362965  0.62470706  0.12307941  1
  Zn  Zn86  1  -0.00177240  0.50264589  -0.00143551  1
  Zn  Zn87  1  0.75648987  0.11725474  0.87718027  1
  Zn  Zn88  1  0.88081385  0.24670227  0.62374703  1
  Zn  Zn89  1  0.74725434  0.75432132  -0.00132162  1
  Zn  Zn90  1  -0.00154883  0.75077759  0.74862515  1
  Zn  Zn91  1  0.00200143  0.87658439  0.37659240  1
  Zn  Zn92  1  0.00291690  0.50858509  0.49094052  1
  Zn  Zn93  1  0.25946066  0.50287634  0.74056755  1
  Zn  Zn94  1  0.25244513  0.24653816  0.49924407  1
  Zn  Zn95  1  0.74745662  0.51012701  0.26695005  1
  Zn  Zn96  1  0.37360057  0.12446905  0.76098940  1
  Zn  Zn97  1  0.87276775  0.74928463  0.62512277  1
  Zn  Zn98  1  0.38964987  0.75090942  0.12645385  1
  Zn  Zn99  1  0.75257897  0.74440225  0.50104581  1
  Zn  Zn100  1  0.62390811  0.49998791  0.62450658  1
  Zn  Zn101  1  0.13741479  0.50181159  0.60601141  1
  Zn  Zn102  1  0.74866379  0.87548723  0.62351693  1
  Zn  Zn103  1  0.85995288  0.88220439  0.00198779  1
  Zn  Zn104  1  0.12208927  0.74793195  0.37926746  1
  Zn  Zn105  1  0.49355349  0.24508505  0.25763674  1
  Zn  Zn106  1  0.12461066  0.00056063  0.12578867  1
  Zn  Zn107  1  0.18735051  0.18998643  0.18168906  1
  Zn  Zn108  1  0.18964900  0.18397076  0.68798411  1
  Zn  Zn109  1  0.19072443  0.68680226  0.18888633  1
  Zn  Zn110  1  0.18747540  0.68928946  0.68653197  1
  Zn  Zn111  1  0.68643860  0.18680460  0.19057052  1
  Zn  Zn112  1  0.69266631  0.18571375  0.68738334  1
  Zn  Zn113  1  0.69198557  0.68031874  0.18709622  1
  Zn  Zn114  1  0.68655239  0.68905434  0.68238123  1
  Zn  Zn115  1  0.31238447  0.31679166  0.31040600  1
  Zn  Zn116  1  0.31707701  0.31972468  0.81092029  1
  Zn  Zn117  1  0.31541512  0.81255973  0.31595512  1
  Zn  Zn118  1  0.30822727  0.81458169  0.80851956  1
  Zn  Zn119  1  0.80098438  0.33893272  0.32479926  1
  Zn  Zn120  1  0.81387579  0.30828707  0.81007354  1
  Zn  Zn121  1  0.81624809  0.80983807  0.31581741  1
  Zn  Zn122  1  0.80789067  0.81143769  0.81078011  1
  Zn  Zn123  1  0.18884003  0.43751849  0.43466464  1
  Zn  Zn124  1  0.18771018  0.43936762  0.93128312  1
  Zn  Zn125  1  0.18761853  0.93920870  0.43568979  1
  Zn  Zn126  1  0.18121809  0.93736679  0.93969345  1
  Zn  Zn127  1  0.68912699  0.43800642  0.44096307  1
  Zn  Zn128  1  0.68508894  0.43878581  0.93813207  1
  Zn  Zn129  1  0.68688298  0.93744136  0.43673435  1
  Zn  Zn130  1  0.68859155  0.93676502  0.93304437  1
  Zn  Zn131  1  0.31614532  0.05737961  0.07211308  1
  Zn  Zn132  1  0.31302959  0.06613918  0.56454480  1
  Zn  Zn133  1  0.31296667  0.56624238  0.06186194  1
  Zn  Zn134  1  0.31178217  0.56432681  0.56062500  1
  Zn  Zn135  1  0.81053194  0.06128119  0.06631012  1
  Zn  Zn136  1  0.81337381  0.06094439  0.57071691  1
  Zn  Zn137  1  0.80955074  0.56722564  0.06279051  1
  Zn  Zn138  1  0.81260006  0.56124363  0.56173864  1
  Zn  Zn139  1  0.43730676  0.43411537  0.19099477  1
  Zn  Zn140  1  0.44093595  0.43431412  0.69061248  1
  Zn  Zn141  1  0.43009807  0.94442605  0.18449729  1
  Zn  Zn142  1  0.43215234  0.93538528  0.69077972  1
  Zn  Zn143  1  0.93970868  0.43850612  0.18680285  1
  Zn  Zn144  1  0.93945720  0.44102837  0.68626643  1
  Zn  Zn145  1  0.93744350  0.93720405  0.18668947  1
  Zn  Zn146  1  0.93967847  0.93898172  0.68627828  1
  Zn  Zn147  1  0.06308901  0.06199115  0.31547133  1
  Zn  Zn148  1  0.06225704  0.06091382  0.81267515  1
  Zn  Zn149  1  0.06224541  0.56324939  0.30809186  1
  Zn  Zn150  1  0.05807633  0.56402711  0.81119672  1
  Zn  Zn151  1  0.56217990  0.05826714  0.31796496  1
  Zn  Zn152  1  0.56742568  0.06245753  0.81164910  1
  Zn  Zn153  1  0.56204849  0.56248631  0.31470161  1
  Zn  Zn154  1  0.55733053  0.56601877  0.80896941  1
  Zn  Zn155  1  0.43872231  0.18961511  0.44788378  1
  Zn  Zn156  1  0.45713410  0.18900547  0.94394167  1
  Zn  Zn157  1  0.43807554  0.68839300  0.43930623  1
  Zn  Zn158  1  0.43786205  0.68768997  0.93854844  1
  Zn  Zn159  1  0.94264897  0.19000241  0.43860743  1
  Zn  Zn160  1  0.93679492  0.18809547  0.93233313  1
  Zn  Zn161  1  0.93811480  0.69162030  0.43566548  1
  Zn  Zn162  1  0.93678123  0.68938168  0.93707758  1
  Zn  Zn163  1  0.06366059  0.31214161  0.06025003  1
  Zn  Zn164  1  0.06797900  0.31545013  0.55918354  1
  Zn  Zn165  1  0.06029693  0.81478675  0.06494312  1
  Zn  Zn166  1  0.05656721  0.81510927  0.56691477  1
  Zn  Zn167  1  0.55862450  0.31315871  0.06125711  1
  Zn  Zn168  1  0.55968159  0.31146571  0.56651058  1
  Zn  Zn169  1  0.57355978  0.82506465  0.04131786  1
  Zn  Zn170  1  0.55937426  0.80668963  0.56067357  1
  O  O171  1  0.11713427  0.12554940  0.11524049  1
  O  O172  1  0.12615241  0.11607987  0.61743764  1
  O  O173  1  0.12690919  0.61713965  0.11685408  1
  O  O174  1  0.11026692  0.62501624  0.62998392  1
  O  O175  1  0.61989883  0.11810285  0.12084155  1
  O  O176  1  0.61678079  0.13266199  0.61659419  1
  O  O177  1  0.62932318  0.61511103  0.11533652  1
  O  O178  1  0.61683383  0.62297083  0.61250582  1
  O  O179  1  0.38051874  0.38269537  0.38059816  1
  O  O180  1  0.38580517  0.38400299  0.87593469  1
  O  O181  1  0.38260205  0.88201192  0.38332077  1
  O  O182  1  0.36742579  0.87127579  0.88958093  1
  O  O183  1  0.89322644  0.35873316  0.38781000  1
  O  O184  1  0.87984903  0.38107549  0.87704285  1
  O  O185  1  0.87780357  0.88540517  0.38182830  1
  O  O186  1  0.88631794  0.86717735  0.87835841  1
  O  O187  1  0.25801295  -0.00169388  0.36342634  1
  O  O188  1  0.24550350  0.00199321  0.86834657  1
  O  O189  1  0.25929848  0.50731247  0.36784479  1
  O  O190  1  0.25959103  0.50819834  0.87353359  1
  O  O191  1  0.75596162  0.00806974  0.36953234  1
  O  O192  1  0.74691672  0.00133998  0.85883616  1
  O  O193  1  0.75880807  0.44569997  0.35641366  1
  O  O194  1  0.76021318  0.50556167  0.87940803  1
  O  O195  1  0.24294456  0.49526875  0.12567033  1
  O  O196  1  0.24745797  0.50868661  0.62991063  1
  O  O197  1  0.24924849  0.98937188  0.13774145  1
  O  O198  1  0.24036330  0.99868603  0.62723345  1
  O  O199  1  0.73852762  0.49182313  0.12445112  1
  O  O200  1  0.74621447  0.48525814  0.62024352  1
  O  O201  1  0.73561022  1.00461821  0.13395613  1
  O  O202  1  0.75237639  0.99538053  0.64209461  1
  O  O203  1  0.00630705  0.36847544  0.25371463  1
  O  O204  1  0.00578967  0.36859757  0.75836863  1
  O  O205  1  0.00973703  0.86986349  0.25014076  1
  O  O206  1  0.00645661  0.87624189  0.75937684  1
  O  O207  1  0.50641629  0.36967933  0.26268703  1
  O  O208  1  0.51143511  0.37691355  0.76422209  1
  O  O209  1  0.49766885  0.87658510  0.25757396  1
  O  O210  1  0.50506156  0.86408400  0.74616598  1
  O  O211  1  0.50655648  0.12569374  0.24001595  1
  O  O212  1  0.49501527  0.11707818  0.73992345  1
  O  O213  1  0.48581573  0.62248603  0.25205314  1
  O  O214  1  0.50598715  0.63681729  0.73213213  1
  O  O215  1  0.99385401  0.12957788  0.24570712  1
  O  O216  1  0.99084982  0.13096548  0.75370615  1
  O  O217  1  0.99253135  0.63282031  0.24537998  1
  O  O218  1  0.99114777  0.62729983  0.74167837  1
  O  O219  1  0.36330790  0.23971261  0.00396250  1
  O  O220  1  0.37176351  0.25819084  0.51022702  1
  O  O221  1  0.37182013  0.75719044  0.00599291  1
  O  O222  1  0.36771207  0.75896528  0.50481325  1
  O  O223  1  0.86777952  0.25639811  0.00422037  1
  O  O224  1  0.86818313  0.25304042  0.50426871  1
  O  O225  1  0.87409720  0.74871161  0.01413015  1
  O  O226  1  0.87193993  0.76183571  0.49738048  1
  O  O227  1  0.12864153  0.24376898  0.49121292  1
  O  O228  1  0.12053387  0.23713135  0.99176909  1
  O  O229  1  0.13795391  0.76096405  0.50149701  1
  O  O230  1  0.13099456  0.74542423  0.99674840  1
  O  O231  1  0.63089362  0.24381498  0.49418064  1
  O  O232  1  0.63223460  0.24527983  0.99500860  1
  O  O233  1  0.62714061  0.74043411  0.49333246  1
  O  O234  1  0.62243198  0.74049856  0.98761303  1
  O  O235  1  0.49104859  0.24267314  0.12490966  1
  O  O236  1  0.48755707  0.24005779  0.62169968  1
  O  O237  1  0.51098473  0.76530804  0.13376896  1
  O  O238  1  0.48951429  0.74303640  0.62949792  1
  O  O239  1  0.99510475  0.24613027  0.13155363  1
  O  O240  1  1.00458372  0.25400446  0.63740350  1
  O  O241  1  0.99370658  0.74857180  0.13535384  1
  O  O242  1  0.99489558  0.73834055  0.62815045  1
  O  O243  1  0.01184497  0.25513485  0.36672623  1
  O  O244  1  0.00751639  0.25780478  0.86630573  1
  O  O245  1  0.00317776  0.75389986  0.36179337  1
  O  O246  1  0.00758886  0.75753224  0.87406370  1
  O  O247  1  0.50637911  0.25409493  0.37777076  1
  O  O248  1  0.51380367  0.26036238  0.88029905  1
  O  O249  1  0.50669811  0.76316829  0.38024065  1
  O  O250  1  0.50669318  0.73956030  0.86090289  1
  O  O251  1  0.23672467  0.12473126  0.49987220  1
  O  O252  1  0.24337672  0.12173135  1.00161291  1
  O  O253  1  0.25763189  0.63701245  0.48692035  1
  O  O254  1  0.24056745  0.63066711  0.99345577  1
  O  O255  1  0.74373115  0.12933605  0.49978287  1
  O  O256  1  0.74592534  0.13114963  0.99823501  1
  O  O257  1  0.73474462  0.62306142  0.50097907  1
  O  O258  1  0.73778390  0.62695251  0.98812491  1
  O  O259  1  0.24607601  0.37847735  0.00926770  1
  O  O260  1  0.26498318  0.37128075  0.49379806  1
  O  O261  1  0.25441409  0.87457963  0.00922454  1
  O  O262  1  0.26046236  0.86909426  0.49365077  1
  O  O263  1  0.75154964  0.36839116  0.00823373  1
  O  O264  1  0.75855542  0.36573581  0.50849642  1
  O  O265  1  0.74671113  0.86909360  -0.00159820  1
  O  O266  1  0.76424149  0.88258194  0.50126884  1
  O  O267  1  0.13205012  0.49652282  0.23874048  1
  O  O268  1  0.12312450  0.48513797  0.75624184  1
  O  O269  1  0.13538234  0.99306448  0.25118208  1
  O  O270  1  0.13312875  0.99736496  0.74481945  1
  O  O271  1  0.62698271  0.49537888  0.24311454  1
  O  O272  1  0.62521431  0.48900073  0.75077254  1
  O  O273  1  0.63425898  1.00460279  0.24474127  1
  O  O274  1  0.63101084  0.99008446  0.75093207  1
  O  O275  1  0.36139037  -0.00126755  0.25898687  1
  O  O276  1  0.36032420  0.00047003  0.75285401  1
  O  O277  1  0.37181330  0.50780008  0.25744083  1
  O  O278  1  0.37768287  0.49837679  0.76402953  1
  O  O279  1  0.86948447  0.00707487  0.25465385  1
  O  O280  1  0.87100311  0.01036969  0.74961532  1
  O  O281  1  0.87508927  0.51586902  0.24026889  1
  O  O282  1  0.87757899  0.51090770  0.75944277  1
  O  O283  1  0.12025420  0.36589057  0.36462558  1
  O  O284  1  0.11739409  0.36626455  0.86981635  1
  O  O285  1  0.12514164  0.87289297  0.36263932  1
  O  O286  1  0.11713933  0.87045893  0.86782580  1
  O  O287  1  0.61457878  0.36547729  0.37687995  1
  O  O288  1  0.62353805  0.36954929  0.86856392  1
  O  O289  1  0.61380858  0.86768432  0.37988188  1
  O  O290  1  0.62216146  0.86177628  0.86634509  1
  O  O291  1  0.38423186  0.13369166  0.12368446  1
  O  O292  1  0.38188412  0.13710886  0.62647226  1
  O  O293  1  0.37271038  0.62884309  0.13895042  1
  O  O294  1  0.38920022  0.63387189  0.61604454  1
  O  O295  1  0.87927402  0.13258105  0.13064809  1
  O  O296  1  0.87192437  0.12986434  0.64356119  1
  O  O297  1  0.87668304  0.63669101  0.13048761  1
  O  O298  1  0.88001452  0.62354297  0.63261724  1
  O  O299  1  0.25807051  0.25984237  0.12617901  1
  O  O300  1  0.26509462  0.24687697  0.62360689  1
  O  O301  1  0.25033026  0.76114134  0.12036872  1
  O  O302  1  0.26277819  0.74157361  0.61732227  1
  O  O303  1  0.75139377  0.25290848  0.11325772  1
  O  O304  1  0.74917841  0.25740249  0.61426862  1
  O  O305  1  0.76213269  0.74816019  0.12493235  1
  O  O306  1  0.75395964  0.75558403  0.61970219  1
  O  O307  1  0.23842958  0.25367896  0.37222049  1
  O  O308  1  0.24439394  0.25442167  0.88088169  1
  O  O309  1  0.24892717  0.74291271  0.38253722  1
  O  O310  1  0.24464490  0.74434468  0.88212479  1
  O  O311  1  0.74241266  0.24731836  0.38774134  1
  O  O312  1  0.74455828  0.25163546  0.88716525  1
  O  O313  1  0.73473788  0.75701561  0.37762593  1
  O  O314  1  0.73813928  0.74033189  0.87355794  1
  O  O315  1  0.00402438  0.12060970  0.00225853  1
  O  O316  1  0.01285937  0.11730293  0.49673356  1
  O  O317  1  0.01293865  0.62526405  0.00067534  1
  O  O318  1  -0.00715934  0.62615735  0.51319092  1
  O  O319  1  0.50724610  0.11447650  0.01382976  1
  O  O320  1  0.50778575  0.11734115  0.51024828  1
  O  O321  1  0.51253612  0.61610557  -0.00423302  1
  O  O322  1  0.51011165  0.63080200  0.51236615  1
  O  O323  1  0.48994027  0.37040609  0.49068375  1
  O  O324  1  0.50900521  0.38655005  0.98630340  1
  O  O325  1  0.49202863  0.88162020  0.49620440  1
  O  O326  1  0.49192117  0.89021874  0.99941584  1
  O  O327  1  0.99402160  0.37169919  0.49127095  1
  O  O328  1  0.99511758  0.37426631  0.98690104  1
  O  O329  1  0.99037438  0.88421503  0.49824463  1
  O  O330  1  1.00040937  0.88478141  0.99327308  1
  O  O331  1  0.49152517  0.49006210  0.37142649  1
  O  O332  1  0.49451737  0.49704239  0.88168381  1
  O  O333  1  0.49372954  0.99093605  0.38471216  1
  O  O334  1  0.50133702  1.01078553  0.89159397  1
  O  O335  1  1.00196404  0.48558697  0.36864388  1
  O  O336  1  0.98926099  0.49259370  0.87657392  1
  O  O337  1  0.99365251  0.99941896  0.38513251  1
  O  O338  1  1.00419181  0.99088229  0.88480139  1
  O  O339  1  0.00253819  0.00796461  0.11889168  1
  O  O340  1  0.01059048  -0.00128776  0.61427307  1
  O  O341  1  0.01439927  0.49971190  0.12031604  1
  O  O342  1  0.00242751  0.51466680  0.62356327  1
  O  O343  1  0.50876214  0.00640801  0.12364859  1
  O  O344  1  0.49055177  0.00743253  0.61474448  1
  O  O345  1  0.51029661  0.49135339  0.11813933  1
  O  O346  1  0.50044060  0.51466570  0.62984002  1
  O  O347  1  0.24489023  0.38418495  0.24099620  1
  O  O348  1  0.23531297  0.37894794  0.75602317  1
  O  O349  1  0.24550562  0.87839560  0.24549909  1
  O  O350  1  0.23944823  0.89000939  0.75486879  1
  O  O351  1  0.73931591  0.35897277  0.22877024  1
  O  O352  1  0.74280304  0.36786344  0.74127003  1
  O  O353  1  0.75585559  0.88805779  0.25496317  1
  O  O354  1  0.73927943  0.88164582  0.74934787  1
  O  O355  1  0.24406543  0.11012332  0.24415679  1
  O  O356  1  0.25188868  0.10900835  0.75038064  1
  O  O357  1  0.25951832  0.61969674  0.25648366  1
  O  O358  1  0.24511021  0.62592203  0.76474835  1
  O  O359  1  0.75598072  0.12178963  0.25821172  1
  O  O360  1  0.75707578  0.11590503  0.75255373  1
  O  O361  1  0.76505909  0.62374145  0.25312341  1
  O  O362  1  0.75365761  0.62545809  0.75978891  1
  O  O363  1  0.38437627  0.11221909  0.38168405  1
  O  O364  1  0.36545788  0.14085530  0.88378487  1
  O  O365  1  0.37124878  0.61996325  0.36755218  1
  O  O366  1  0.36526524  0.61671539  0.88217574  1
  O  O367  1  0.87040435  0.12094020  0.37239614  1
  O  O368  1  0.87148908  0.13297535  0.85683163  1
  O  O369  1  0.88119091  0.62639987  0.35913637  1
  O  O370  1  0.86718213  0.61830756  0.87132307  1
  O  O371  1  0.13162408  0.38066170  0.12711620  1
  O  O372  1  0.12146665  0.37785206  0.64061947  1
  O  O373  1  0.13282139  0.87804767  0.13534030  1
  O  O374  1  0.11833394  0.88371154  0.63963591  1
  O  O375  1  0.62877438  0.38119386  0.12834831  1
  O  O376  1  0.62979033  0.37567615  0.63381701  1
  O  O377  1  0.61761514  0.87863823  0.13909330  1
  O  O378  1  0.62269431  0.87172292  0.63349345  1
  O  O379  1  0.11954591  0.25274932  0.25377864  1
  O  O380  1  0.12184347  0.25722116  0.75605130  1
  O  O381  1  0.11834822  0.75691677  0.24877405  1
  O  O382  1  0.12530121  0.76077957  0.75584361  1
  O  O383  1  0.62372629  0.25258346  0.26595430  1
  O  O384  1  0.63256717  0.25492981  0.76208495  1
  O  O385  1  0.62312012  0.74853621  0.25523955  1
  O  O386  1  0.61631933  0.75660897  0.75218054  1
  O  O387  1  0.37591991  0.25078942  0.23986758  1
  O  O388  1  0.37245134  0.24783555  0.73957512  1
  O  O389  1  0.37436302  0.73717089  0.24896359  1
  O  O390  1  0.38053941  0.75597312  0.74032130  1
  O  O391  1  0.87954757  0.24685075  0.24434957  1
  O  O392  1  0.88613900  0.24339293  0.74704984  1
  O  O393  1  0.88066513  0.74352385  0.24238197  1
  O  O394  1  0.87532890  0.73559120  0.75247736  1
  O  O395  1  0.37396313  0.49415545  0.48786120  1
  O  O396  1  0.38800047  0.50618149  0.99551461  1
  O  O397  1  0.37923003  0.99430062  0.49535193  1
  O  O398  1  0.38854140  0.99455118  1.00646096  1
  O  O399  1  0.87946443  0.48649970  0.50036277  1
  O  O400  1  0.87563646  0.49413092  0.99434681  1
  O  O401  1  0.88335774  0.99978218  0.49789694  1
  O  O402  1  0.88634834  0.99995265  1.00585366  1
  O  O403  1  0.11552409  0.01253062  0.00173898  1
  O  O404  1  0.12098125  0.00432291  0.50637771  1
  O  O405  1  0.12482133  0.50887103  0.00376271  1
  O  O406  1  0.11536631  0.49162067  0.49578493  1
  O  O407  1  0.61488009  0.00091229  0.00910736  1
  O  O408  1  0.61506070  0.00924102  0.49676164  1
  O  O409  1  0.61700532  0.50607702  0.00622112  1
  O  O410  1  0.62288022  0.51133559  0.49892439  1
  O  O411  1  0.36804453  0.36564224  0.12553852  1
  O  O412  1  0.38316242  0.36318404  0.62013420  1
  O  O413  1  0.36780088  0.87198848  0.11880220  1
  O  O414  1  0.37856909  0.86582592  0.61335416  1
  O  O415  1  0.86713951  0.37174002  0.11926221  1
  O  O416  1  0.87021620  0.37168451  0.62002633  1
  O  O417  1  0.88023684  0.85863070  0.12425353  1
  O  O418  1  0.87643935  0.87295109  0.61686146  1
  O  O419  1  0.12216301  0.13438517  0.38234506  1
  O  O420  1  0.12139411  0.13818969  0.87942033  1
  O  O421  1  0.13842389  0.62710943  0.36713044  1
  O  O422  1  0.12927953  0.63033830  0.88150756  1
  O  O423  1  0.62820569  0.13087973  0.38707876  1
  O  O424  1  0.62755709  0.13401730  0.88249258  1
  O  O425  1  0.61632986  0.63300669  0.38805049  1
  O  O426  1  0.63025837  0.62838250  0.87743077  1
