# generated using pymatgen
data_V85Zn86O256
_symmetry_space_group_name_H-M   'P 1'
_cell_length_a   16.96772142
_cell_length_b   16.97601386
_cell_length_c   16.99810704
_cell_angle_alpha   89.94876247
_cell_angle_beta   89.96858596
_cell_angle_gamma   89.96258979
_symmetry_Int_Tables_number   1
_chemical_formula_structural   V85Zn86O256
_chemical_formula_sum   'V85 Zn86 O256'
_cell_volume   4896.20366641
_cell_formula_units_Z   1
loop_
 _symmetry_equiv_pos_site_id
 _symmetry_equiv_pos_as_xyz
  1  'x, y, z'
loop_
 _atom_site_type_symbol
 _atom_site_label
 _atom_site_symmetry_multiplicity
 _atom_site_fract_x
 _atom_site_fract_y
 _atom_site_fract_z
 _atom_site_occupancy
  V  V0  1  0.87502050  0.38311756  0.49335518  1
  V  V1  1  0.74092155  0.89227316  0.63377693  1
  V  V2  1  0.24773578  0.37683189  0.62278911  1
  V  V3  1  0.87649294  -0.00158826  0.38525479  1
  V  V4  1  0.74281676  0.49742234  0.74803475  1
  V  V5  1  0.00080269  0.24181406  0.74767777  1
  V  V6  1  0.12472817  0.24639461  0.87560899  1
  V  V7  1  0.12668416  0.11694881  0.00627659  1
  V  V8  1  0.50323223  0.12333719  0.12682865  1
  V  V9  1  0.49387830  0.25821517  0.75167526  1
  V  V10  1  0.50659674  0.87310972  0.38081262  1
  V  V11  1  0.87338375  0.37055295  -0.00773707  1
  V  V12  1  0.12249384  0.37385548  0.74865452  1
  V  V13  1  0.86099360  0.75274255  0.62480201  1
  V  V14  1  -0.00391518  -0.00847496  0.01033210  1
  V  V15  1  0.55943746  0.91841826  0.81624736  1
  V  V16  1  0.24659902  0.37167123  0.12971780  1
  V  V17  1  0.24685090  0.24623896  0.49588982  1
  V  V18  1  0.00793927  0.12046149  0.61053188  1
  V  V19  1  0.75115687  0.75042443  -0.00038609  1
  V  V20  1  0.49018526  0.74682171  0.25151833  1
  V  V21  1  -0.00912194  0.61891086  0.12838172  1
  V  V22  1  0.36430321  0.51361624  0.36325216  1
  V  V23  1  0.25149680  0.75048139  0.49912989  1
  V  V24  1  0.00015834  0.62386128  0.62701865  1
  V  V25  1  0.50154223  0.37812791  0.37309641  1
  V  V26  1  0.75146445  -0.00006336  0.25268118  1
  V  V27  1  0.37313358  0.25495751  0.62504100  1
  V  V28  1  0.87513801  0.24903259  0.62290675  1
  V  V29  1  0.00668040  0.87866919  0.38089505  1
  V  V30  1  0.50478816  0.50354841  0.50021927  1
  V  V31  1  0.49768961  0.38400155  0.87862337  1
  V  V32  1  0.00735560  0.50054832  -0.00118241  1
  V  V33  1  -0.00023071  0.75191678  0.75001454  1
  V  V34  1  0.12034670  0.24159028  0.37656073  1
  V  V35  1  0.88272895  0.12552609  0.25373654  1
  V  V36  1  0.62149948  0.74708313  0.88014672  1
  V  V37  1  0.62547875  0.25211112  0.87570775  1
  V  V38  1  0.74609085  0.25302442  0.49305729  1
  V  V39  1  0.62366689  0.12611083  0.50113594  1
  V  V40  1  0.14761133  0.53204623  0.15240450  1
  V  V41  1  0.50377604  0.24894974  0.25659617  1
  V  V42  1  0.76198804  0.87457688  0.12351294  1
  V  V43  1  0.37577706  0.87660043  0.50532607  1
  V  V44  1  0.50359351  -0.01509817  0.00263108  1
  V  V45  1  0.37588416  0.38029015  0.00135296  1
  V  V46  1  0.13346994  0.62528659  0.49718354  1
  V  V47  1  0.87236944  0.62178402  0.75198464  1
  V  V48  1  0.25183439  0.24805317  0.00026879  1
  V  V49  1  -0.00432554  0.87473078  0.87552492  1
  V  V50  1  0.74924399  0.24605004  0.00265205  1
  V  V51  1  0.37171940  0.61884514  0.75468742  1
  V  V52  1  0.13415376  0.73560868  0.87352664  1
  V  V53  1  0.24637245  -0.00309049  0.74381751  1
  V  V54  1  0.87050305  0.00507841  0.87121934  1
  V  V55  1  0.75473508  0.50998430  0.25965092  1
  V  V56  1  0.12783136  0.75142967  0.36809289  1
  V  V57  1  0.37164954  0.75103844  0.62667646  1
  V  V58  1  0.62766205  0.50870254  0.12254665  1
  V  V59  1  0.50423140  0.75105293  0.75163583  1
  V  V60  1  0.12222158  0.36048342  0.24409651  1
  V  V61  1  0.64000913  0.74558462  0.38014844  1
  V  V62  1  0.50203423  0.51108520  -0.00026773  1
  V  V63  1  0.37595592  -0.00058749  0.87424842  1
  V  V64  1  0.12446375  0.50015404  0.62327475  1
  V  V65  1  0.62508044  0.87349088  0.25201913  1
  V  V66  1  0.49468903  0.12865959  0.62448430  1
  V  V67  1  0.75052291  0.37475621  0.12637592  1
  V  V68  1  0.62602428  -0.00351677  0.12710234  1
  V  V69  1  0.88392651  0.24496697  0.12789986  1
  V  V70  1  0.74582712  0.62184364  0.88219755  1
  V  V71  1  0.37834845  0.00293062  0.37158521  1
  V  V72  1  0.37946256  0.25167638  0.12677294  1
  V  V73  1  0.62733730  0.37316081  0.25208091  1
  V  V74  1  0.87406855  0.74499456  0.12492791  1
  V  V75  1  0.62953017  0.12442242  -0.00081578  1
  V  V76  1  0.74285881  0.12594788  0.37456358  1
  V  V77  1  0.50598058  0.62293277  0.62417763  1
  V  V78  1  -0.00198154  0.37358980  0.36428241  1
  V  V79  1  0.35680548  0.86927813  -0.00328352  1
  V  V80  1  0.00046388  0.50133893  0.49349447  1
  V  V81  1  0.74200448  0.37973771  0.62175015  1
  V  V82  1  0.37531432  0.38029469  0.49647328  1
  V  V83  1  0.63745155  0.62692833  0.50075426  1
  V  V84  1  0.49193482  0.62831902  0.13296072  1
  Zn  Zn85  1  0.36981100  0.12635828  0.25137143  1
  Zn  Zn86  1  0.24386633  0.11696316  0.37388203  1
  Zn  Zn87  1  0.91094016  0.55139861  0.32900185  1
  Zn  Zn88  1  -0.03658618  0.72044303  0.28667695  1
  Zn  Zn89  1  0.62170925  0.00318017  0.64195194  1
  Zn  Zn90  1  0.87349339  0.49513033  0.87518495  1
  Zn  Zn91  1  0.31636110  0.54828040  0.91452862  1
  Zn  Zn92  1  0.50202220  0.00024957  0.50545477  1
  Zn  Zn93  1  0.87194679  0.87459739  0.50392521  1
  Zn  Zn94  1  0.23703476  -0.00808970  0.24131985  1
  Zn  Zn95  1  0.85227825  0.11233194  0.74537464  1
  Zn  Zn96  1  0.10726534  0.98110280  0.58991405  1
  Zn  Zn97  1  -0.00402342  0.37085010  0.87291027  1
  Zn  Zn98  1  0.37169487  0.12748848  0.75168221  1
  Zn  Zn99  1  0.24575619  0.72109502  -0.00136080  1
  Zn  Zn100  1  0.13045937  0.87268519  0.74149621  1
  Zn  Zn101  1  0.18089684  -0.06127460  0.08630143  1
  Zn  Zn102  1  0.62012257  0.38118573  0.74446245  1
  Zn  Zn103  1  0.24589400  0.50459719  0.75509865  1
  Zn  Zn104  1  0.00737711  0.11563708  0.13388414  1
  Zn  Zn105  1  0.30885882  0.80524163  0.16116860  1
  Zn  Zn106  1  0.25242515  0.12591741  0.87350850  1
  Zn  Zn107  1  0.19066181  0.18075980  0.19064609  1
  Zn  Zn108  1  0.18849954  0.18246461  0.68599433  1
  Zn  Zn109  1  0.16679005  0.69878335  0.17627884  1
  Zn  Zn110  1  0.18886149  0.68939900  0.68668014  1
  Zn  Zn111  1  0.68877817  0.18848750  0.18848659  1
  Zn  Zn112  1  0.68260132  0.19294604  0.68508865  1
  Zn  Zn113  1  0.68357802  0.68793664  0.19012658  1
  Zn  Zn114  1  0.68424815  0.68623603  0.69272141  1
  Zn  Zn115  1  0.31306303  0.31458842  0.31204311  1
  Zn  Zn116  1  0.30783012  0.32778618  0.81795764  1
  Zn  Zn117  1  0.31481292  0.81558043  0.32577979  1
  Zn  Zn118  1  0.31596953  0.81533136  0.81332237  1
  Zn  Zn119  1  0.81312608  0.31251431  0.31124318  1
  Zn  Zn120  1  0.79719814  0.28439828  0.79760080  1
  Zn  Zn121  1  0.81642059  0.81542336  0.31168182  1
  Zn  Zn122  1  0.81271970  0.81583065  0.81312984  1
  Zn  Zn123  1  0.18644442  0.43341481  0.43294170  1
  Zn  Zn124  1  0.18365141  0.43341477  0.93896095  1
  Zn  Zn125  1  0.19361608  0.93319221  0.43158575  1
  Zn  Zn126  1  0.18154840  0.93653779  0.91581844  1
  Zn  Zn127  1  0.68498663  0.44163743  0.43455970  1
  Zn  Zn128  1  0.68556978  0.43688730  0.93890551  1
  Zn  Zn129  1  0.69163049  0.93729487  0.44866086  1
  Zn  Zn130  1  0.69582099  0.93746160  0.94305038  1
  Zn  Zn131  1  0.31921350  0.06491478  0.06043724  1
  Zn  Zn132  1  0.27580981  0.04074465  0.53975889  1
  Zn  Zn133  1  0.31150662  0.57151928  0.08003223  1
  Zn  Zn134  1  0.31662597  0.56314416  0.56246041  1
  Zn  Zn135  1  0.81671564  0.05901266  0.06233940  1
  Zn  Zn136  1  0.81017319  0.06487841  0.56608899  1
  Zn  Zn137  1  0.81351465  0.55737036  0.06088109  1
  Zn  Zn138  1  0.81573139  0.56013673  0.56479826  1
  Zn  Zn139  1  0.43716150  0.44213879  0.18776993  1
  Zn  Zn140  1  0.43863721  0.44106065  0.68357466  1
  Zn  Zn141  1  0.41642038  0.92880968  0.19370050  1
  Zn  Zn142  1  0.42894316  0.94402252  0.68262898  1
  Zn  Zn143  1  0.93727952  0.43197444  0.18223715  1
  Zn  Zn144  1  0.93471705  0.43470493  0.68503704  1
  Zn  Zn145  1  1.05875955  0.90885932  0.20604450  1
  Zn  Zn146  1  0.93832490  0.93759132  0.68782906  1
  Zn  Zn147  1  0.06412734  0.05750329  0.31632743  1
  Zn  Zn148  1  0.06043357  0.06234054  0.81303666  1
  Zn  Zn149  1  0.09051180  0.56129777  0.30802699  1
  Zn  Zn150  1  0.05844908  0.55790879  0.81305460  1
  Zn  Zn151  1  0.56092635  0.06009624  0.31516064  1
  Zn  Zn152  1  0.55678806  0.08203771  0.81632795  1
  Zn  Zn153  1  0.56591081  0.56263971  0.31455932  1
  Zn  Zn154  1  0.56243084  0.56518603  0.81293279  1
  Zn  Zn155  1  0.43527917  0.19073254  0.43851771  1
  Zn  Zn156  1  0.44140028  0.18701675  0.94132094  1
  Zn  Zn157  1  0.44026817  0.68688219  0.43623568  1
  Zn  Zn158  1  0.43963171  0.69158612  0.93850917  1
  Zn  Zn159  1  0.93432252  0.19116877  0.43610089  1
  Zn  Zn160  1  0.94043043  0.17997976  0.93925547  1
  Zn  Zn161  1  0.93964238  0.68989198  0.45093272  1
  Zn  Zn162  1  0.93526028  0.68622867  0.93681975  1
  Zn  Zn163  1  0.05986291  0.30872091  0.05842255  1
  Zn  Zn164  1  0.06045388  0.31150042  0.55772582  1
  Zn  Zn165  1  0.05885856  0.79998783  0.05172822  1
  Zn  Zn166  1  0.05820383  0.81020388  0.56171447  1
  Zn  Zn167  1  0.56321694  0.31678488  0.06535612  1
  Zn  Zn168  1  0.56314972  0.31216536  0.55851475  1
  Zn  Zn169  1  0.56870719  0.80746288  0.06580384  1
  Zn  Zn170  1  0.56782668  0.81144824  0.56565921  1
  O  O171  1  0.12304829  0.13325647  0.10946638  1
  O  O172  1  0.10882608  0.12785749  0.62354429  1
  O  O173  1  0.10184978  0.62135951  0.10672409  1
  O  O174  1  0.12200033  0.61992811  0.61762604  1
  O  O175  1  0.62116901  0.11767725  0.12098318  1
  O  O176  1  0.61292216  0.12862688  0.62179594  1
  O  O177  1  0.61976076  0.61192265  0.12818381  1
  O  O178  1  0.61299759  0.63366564  0.61817860  1
  O  O179  1  0.38609627  0.38116836  0.37860138  1
  O  O180  1  0.39108867  0.36877540  0.88585505  1
  O  O181  1  0.38977827  0.87991023  0.38957319  1
  O  O182  1  0.37543905  0.88776778  0.88604225  1
  O  O183  1  0.88229582  0.36865133  0.38510826  1
  O  O184  1  0.87228621  0.36614528  0.88689999  1
  O  O185  1  0.87726348  0.88327552  0.38264972  1
  O  O186  1  0.88782147  0.88158397  0.87160002  1
  O  O187  1  0.26734434  -0.00442141  0.36444771  1
  O  O188  1  0.26095823  0.00521185  0.86720177  1
  O  O189  1  0.26577066  0.49574491  0.38136370  1
  O  O190  1  0.25839033  0.46760871  0.86281325  1
  O  O191  1  0.75259547  0.00797866  0.37371608  1
  O  O192  1  0.77168017  -0.00452906  0.88360399  1
  O  O193  1  0.75008167  0.49765618  0.35938019  1
  O  O194  1  0.75104383  0.50516935  0.86948995  1
  O  O195  1  0.23931397  0.48683865  0.12051691  1
  O  O196  1  0.24424111  0.49166404  0.62531412  1
  O  O197  1  0.26128200  1.00050150  0.12833243  1
  O  O198  1  0.26617380  1.00306585  0.64634050  1
  O  O199  1  0.74385302  0.49310389  0.13033934  1
  O  O200  1  0.75612915  0.49000531  0.63466321  1
  O  O201  1  0.74711498  0.99186386  0.13020037  1
  O  O202  1  0.74520799  0.99816651  0.63632095  1
  O  O203  1  -0.00243494  0.36745276  0.25948032  1
  O  O204  1  0.00910906  0.36603733  0.74680369  1
  O  O205  1  -0.01197748  0.85729184  0.27914982  1
  O  O206  1  -0.00410094  0.86099497  0.75491870  1
  O  O207  1  0.50712784  0.37137283  0.25506149  1
  O  O208  1  0.49923972  0.37565936  0.75834720  1
  O  O209  1  0.50636865  0.86751753  0.26013667  1
  O  O210  1  0.49367265  0.86831372  0.74995437  1
  O  O211  1  0.50846576  0.13690470  0.24493242  1
  O  O212  1  0.49332571  0.14120127  0.74274871  1
  O  O213  1  0.51229315  0.63587508  0.24491199  1
  O  O214  1  0.49427257  0.63134775  0.74234341  1
  O  O215  1  0.98580795  0.12066501  0.25198834  1
  O  O216  1  0.99808578  0.13646591  0.74296883  1
  O  O217  1  1.00399966  0.61831646  0.23291509  1
  O  O218  1  0.98986651  0.62829416  0.74631521  1
  O  O219  1  0.37469688  0.25786052  0.00800076  1
  O  O220  1  0.37053932  0.26366617  0.50435616  1
  O  O221  1  0.36453509  0.76635297  -0.01699452  1
  O  O222  1  0.37261031  0.75323922  0.50748199  1
  O  O223  1  0.86908451  0.24909245  0.00554055  1
  O  O224  1  0.86827952  0.25885690  0.50775759  1
  O  O225  1  0.85922474  0.74267581  0.00634992  1
  O  O226  1  0.87411875  0.74856080  0.52303046  1
  O  O227  1  0.13556101  0.25945054  0.48901325  1
  O  O228  1  0.12862209  0.24236761  0.99068349  1
  O  O229  1  0.13575180  0.74276102  0.49949460  1
  O  O230  1  0.12751525  0.74652663  0.97691241  1
  O  O231  1  0.63396865  0.23951547  0.50280293  1
  O  O232  1  0.62597169  0.24342798  0.99735554  1
  O  O233  1  0.62195135  0.74229349  0.48840779  1
  O  O234  1  0.63472018  0.74866223  0.98932291  1
  O  O235  1  0.49866270  0.24688981  0.13503022  1
  O  O236  1  0.49476881  0.25295114  0.63403753  1
  O  O237  1  0.50984679  0.73984981  0.13739090  1
  O  O238  1  0.49322182  0.74482841  0.63267483  1
  O  O239  1  0.98607486  0.24127717  0.11914983  1
  O  O240  1  0.99411822  0.24347129  0.62683484  1
  O  O241  1  0.98637260  0.73127478  0.11202593  1
  O  O242  1  0.98960357  0.74151757  0.63466076  1
  O  O243  1  0.00903702  0.26135821  0.38373166  1
  O  O244  1  0.00543910  0.24822611  0.86560836  1
  O  O245  1  0.01566056  0.75697812  0.38783291  1
  O  O246  1  0.00149775  0.75336927  0.86755627  1
  O  O247  1  0.49644143  0.25938242  0.36309069  1
  O  O248  1  0.50613920  0.25801079  0.87065645  1
  O  O249  1  0.50734273  0.75948718  0.37144755  1
  O  O250  1  0.51080405  0.74936473  0.86828771  1
  O  O251  1  0.26236359  0.14512727  0.49199655  1
  O  O252  1  0.24501662  0.13107271  0.99566145  1
  O  O253  1  0.24519295  0.63682385  0.50859424  1
  O  O254  1  0.26055272  0.60857996  0.98987275  1
  O  O255  1  0.74425861  0.13483606  0.49593978  1
  O  O256  1  0.73708456  0.12837076  1.00787240  1
  O  O257  1  0.73626627  0.61722934  0.50782222  1
  O  O258  1  0.75303376  0.62620762  0.98666899  1
  O  O259  1  0.25505116  0.36667750  0.01148847  1
  O  O260  1  0.25378801  0.37020101  0.50851680  1
  O  O261  1  0.25460469  0.88200436  -0.00400575  1
  O  O262  1  0.26378680  0.86038232  0.49734881  1
  O  O263  1  0.75571731  0.36993758  0.00811752  1
  O  O264  1  0.75422636  0.37303405  0.50049443  1
  O  O265  1  0.74425702  0.86212161  0.01191409  1
  O  O266  1  0.75519030  0.87968633  0.52496500  1
  O  O267  1  0.10460157  0.47087758  0.23303192  1
  O  O268  1  0.12460373  0.49172764  0.74263035  1
  O  O269  1  0.12139154  0.99257416  0.24740663  1
  O  O270  1  0.14069537  1.00198134  0.75495726  1
  O  O271  1  0.63326409  0.49071873  0.24479169  1
  O  O272  1  0.63801851  0.49959346  0.75259491  1
  O  O273  1  0.63087469  0.99377601  0.24694348  1
  O  O274  1  0.60865948  0.99463499  0.76133500  1
  O  O275  1  0.40317507  0.01228857  0.26887777  1
  O  O276  1  0.37141703  0.00363206  0.76088064  1
  O  O277  1  0.37576063  0.49739680  0.26449399  1
  O  O278  1  0.37613254  0.51645965  0.74374417  1
  O  O279  1  0.86244554  0.01212434  0.26723355  1
  O  O280  1  0.87925235  0.00137324  0.76464604  1
  O  O281  1  0.86080943  0.49175381  0.24660055  1
  O  O282  1  0.86665395  0.50523662  0.75240695  1
  O  O283  1  0.11671815  0.36853536  0.36422310  1
  O  O284  1  0.11961962  0.35970992  0.86862341  1
  O  O285  1  0.11551424  0.86788090  0.38144271  1
  O  O286  1  0.11080388  0.86389076  0.86245023  1
  O  O287  1  0.61110469  0.38057291  0.36684976  1
  O  O288  1  0.61172945  0.37041126  0.87562202  1
  O  O289  1  0.62264819  0.86752236  0.37684753  1
  O  O290  1  0.63008157  0.86749884  0.87482384  1
  O  O291  1  0.38964756  0.13411052  0.12517694  1
  O  O292  1  0.38804977  0.13898492  0.62513732  1
  O  O293  1  0.39300641  0.61652018  0.14030208  1
  O  O294  1  0.38681187  0.63269357  0.63182745  1
  O  O295  1  0.87442827  0.12846557  0.13582765  1
  O  O296  1  0.88082345  0.13481243  0.62874302  1
  O  O297  1  0.88208148  0.62720244  0.12223914  1
  O  O298  1  0.87618979  0.63193166  0.63659221  1
  O  O299  1  0.26003621  0.25298782  0.12008954  1
  O  O300  1  0.25329851  0.25635268  0.61658807  1
  O  O301  1  0.25234357  0.72774972  0.11317750  1
  O  O302  1  0.26605485  0.74777172  0.62122856  1
  O  O303  1  0.75473020  0.25539371  0.11840119  1
  O  O304  1  0.75751351  0.25972429  0.61031411  1
  O  O305  1  0.74948032  0.75193238  0.11704124  1
  O  O306  1  0.76031547  0.74818720  0.63181422  1
  O  O307  1  0.23984204  0.25600390  0.38126813  1
  O  O308  1  0.24231264  0.25097686  0.88193968  1
  O  O309  1  0.24230814  0.75286464  0.38589084  1
  O  O310  1  0.23615934  0.75099219  0.86752103  1
  O  O311  1  0.75398666  0.24384329  0.38641039  1
  O  O312  1  0.73044886  0.26528989  0.89004919  1
  O  O313  1  0.73763530  0.75627428  0.37428137  1
  O  O314  1  0.74468880  0.74372637  0.88021156  1
  O  O315  1  0.00945592  0.10813966  0.00240633  1
  O  O316  1  -0.00535170  0.12985941  0.51270029  1
  O  O317  1  -0.01263945  0.60428233  0.00207993  1
  O  O318  1  0.01007458  0.61895141  0.51016374  1
  O  O319  1  0.51229251  0.11678428  0.00739817  1
  O  O320  1  0.50762147  0.13006944  0.50783784  1
  O  O321  1  0.49418762  0.61689306  0.00933031  1
  O  O322  1  0.50633815  0.62001294  0.50723337  1
  O  O323  1  0.49840116  0.38298141  0.49174861  1
  O  O324  1  0.49630784  0.38527730  0.99645895  1
  O  O325  1  0.49751294  0.87481915  0.49609597  1
  O  O326  1  0.50859743  0.88410815  1.00042437  1
  O  O327  1  0.99288223  0.38299797  0.49029139  1
  O  O328  1  0.98979333  0.38078392  0.99977341  1
  O  O329  1  0.99072997  0.87059250  0.48746952  1
  O  O330  1  1.00443183  0.88496897  0.99020745  1
  O  O331  1  0.49341144  0.49486054  0.38000531  1
  O  O332  1  0.50640613  0.49585859  0.88602343  1
  O  O333  1  0.50274673  0.98687081  0.38482856  1
  O  O334  1  0.50043540  0.99273132  0.87874388  1
  O  O335  1  1.00382851  0.49392574  0.37357270  1
  O  O336  1  0.99567907  0.49219647  0.88510967  1
  O  O337  1  0.99184641  0.98772696  0.37672951  1
  O  O338  1  0.99642089  0.99104670  0.88129065  1
  O  O339  1  -0.00127902  -0.00557253  0.11110060  1
  O  O340  1  -0.00153576  0.01496356  0.62599532  1
  O  O341  1  -0.00418033  0.50639358  0.11473009  1
  O  O342  1  0.00505859  0.50476530  0.61827720  1
  O  O343  1  0.50606227  0.00405452  0.11802340  1
  O  O344  1  0.50051114  0.01474162  0.62442851  1
  O  O345  1  0.50888514  0.50538179  0.12024454  1
  O  O346  1  0.49844137  0.51026109  0.61370953  1
  O  O347  1  0.23976053  0.36784331  0.23738022  1
  O  O348  1  0.24064984  0.36960962  0.73329977  1
  O  O349  1  0.30278567  0.88640719  0.23831621  1
  O  O350  1  0.25094161  0.89124784  0.75636185  1
  O  O351  1  0.74264761  0.37887287  0.24543728  1
  O  O352  1  0.74780180  0.37973096  0.73930708  1
  O  O353  1  0.74487757  0.88186721  0.24357453  1
  O  O354  1  0.75276424  0.86765947  0.73147239  1
  O  O355  1  0.25451434  0.11823327  0.25710361  1
  O  O356  1  0.25435576  0.11864249  0.75471133  1
  O  O357  1  0.18285057  0.59443261  0.23147877  1
  O  O358  1  0.26760126  0.62394278  0.74378863  1
  O  O359  1  0.75085798  0.12067309  0.26005375  1
  O  O360  1  0.76247307  0.17754898  0.75834704  1
  O  O361  1  0.74490969  0.60795013  0.24646244  1
  O  O362  1  0.75465707  0.61649744  0.75713014  1
  O  O363  1  0.37812423  0.11436481  0.37749389  1
  O  O364  1  0.38085028  0.11205323  0.87750647  1
  O  O365  1  0.37787149  0.61261666  0.37705305  1
  O  O366  1  0.38460716  0.62544993  0.85788904  1
  O  O367  1  0.86416714  0.12356775  0.37126065  1
  O  O368  1  0.88190222  0.10903488  0.87154656  1
  O  O369  1  0.89306718  0.65451862  0.35795740  1
  O  O370  1  0.86677451  0.62326276  0.86335001  1
  O  O371  1  0.13366300  0.35801699  0.13054287  1
  O  O372  1  0.12985348  0.37926824  0.62684252  1
  O  O373  1  0.11933745  0.85557858  0.12745947  1
  O  O374  1  0.11411825  0.87752144  0.62992609  1
  O  O375  1  0.62969635  0.38468678  0.13365621  1
  O  O376  1  0.63780691  0.37209395  0.62298417  1
  O  O377  1  0.63281156  0.88007977  0.13289954  1
  O  O378  1  0.63553185  0.88230451  0.62630532  1
  O  O379  1  0.12420854  0.25388695  0.25865361  1
  O  O380  1  0.11899311  0.25221542  0.75518898  1
  O  O381  1  0.12204095  0.74720384  0.26843030  1
  O  O382  1  0.11443755  0.74787792  0.75353077  1
  O  O383  1  0.61959063  0.26496722  0.24499307  1
  O  O384  1  0.60903224  0.25746278  0.75909881  1
  O  O385  1  0.62191576  0.75588239  0.26437997  1
  O  O386  1  0.61131662  0.74866808  0.75784069  1
  O  O387  1  0.38577409  0.24976617  0.24410295  1
  O  O388  1  0.38243467  0.25727470  0.74768559  1
  O  O389  1  0.38888220  0.75122324  0.25493504  1
  O  O390  1  0.38391259  0.74394495  0.74537786  1
  O  O391  1  0.86449068  0.23841804  0.23929689  1
  O  O392  1  0.89012469  0.26725567  0.73018914  1
  O  O393  1  0.86674044  0.75366155  0.22853194  1
  O  O394  1  0.88050696  0.74074149  0.74507850  1
  O  O395  1  0.38670351  0.49701525  0.49419728  1
  O  O396  1  0.38585609  0.49233308  1.00360852  1
  O  O397  1  0.37455324  0.99145087  0.49286198  1
  O  O398  1  0.38685749  0.99182519  0.99224123  1
  O  O399  1  0.88310032  0.49382912  0.49869077  1
  O  O400  1  0.87977759  0.48510600  0.99724976  1
  O  O401  1  0.86757273  1.00463999  0.48795631  1
  O  O402  1  0.89090754  1.00271140  0.99177407  1
  O  O403  1  0.12009364  0.00221371  -0.00311171  1
  O  O404  1  0.16916969  0.01297768  0.50453896  1
  O  O405  1  0.10767010  0.48776781  0.00656876  1
  O  O406  1  0.12205204  0.50624896  0.50255497  1
  O  O407  1  0.62185431  0.00613670  0.00431571  1
  O  O408  1  0.62597352  0.01703115  0.50711459  1
  O  O409  1  0.61577645  0.49493122  0.01166647  1
  O  O410  1  0.61225363  0.51004585  0.49155993  1
  O  O411  1  0.36876243  0.37110237  0.12190383  1
  O  O412  1  0.36684160  0.37434179  0.61848538  1
  O  O413  1  0.38600308  0.87144430  0.09725648  1
  O  O414  1  0.38299535  0.86643989  0.61293580  1
  O  O415  1  0.87021682  0.36272258  0.11549519  1
  O  O416  1  0.86849251  0.37106034  0.60964154  1
  O  O417  1  0.86156594  0.86410087  0.11998379  1
  O  O418  1  0.86936483  0.86433263  0.62810377  1
  O  O419  1  0.12258937  0.13832077  0.37467550  1
  O  O420  1  0.12421627  0.13379830  0.88470177  1
  O  O421  1  0.12273295  0.63336230  0.39204930  1
  O  O422  1  0.12173580  0.63671580  0.86463958  1
  O  O423  1  0.63588349  0.12269667  0.38322498  1
  O  O424  1  0.62145584  0.13934571  0.88731615  1
  O  O425  1  0.62323702  0.63861467  0.38392075  1
  O  O426  1  0.63432468  0.63550211  0.86970739  1
