# generated using pymatgen
data_Na31Fe20(SO4)36
_symmetry_space_group_name_H-M   'P 1'
_cell_length_a   18.06221707
_cell_length_b   18.05801604
_cell_length_c   19.70261303
_cell_angle_alpha   107.58497764
_cell_angle_beta   107.58568705
_cell_angle_gamma   90.73608273
_symmetry_Int_Tables_number   1
_chemical_formula_structural   Na31Fe20(SO4)36
_chemical_formula_sum   'Na62 Fe40 S72 O288'
_cell_volume   5801.29516507
_cell_formula_units_Z   2
loop_
 _symmetry_equiv_pos_site_id
 _symmetry_equiv_pos_as_xyz
  1  'x, y, z'
loop_
 _atom_site_type_symbol
 _atom_site_label
 _atom_site_symmetry_multiplicity
 _atom_site_fract_x
 _atom_site_fract_y
 _atom_site_fract_z
 _atom_site_occupancy
  Na  Na0  1  0.13370665  0.36814289  0.08502688  1
  Na  Na1  1  0.13804301  0.36802006  0.41414297  1
  Na  Na2  1  0.13854510  0.35966951  0.74306211  1
  Na  Na3  1  0.13686608  0.86643966  0.08657323  1
  Na  Na4  1  0.12487269  0.84403602  0.40808894  1
  Na  Na5  1  0.13746582  0.86815161  0.75479325  1
  Na  Na6  1  0.63226301  0.37137144  0.08536045  1
  Na  Na7  1  0.63314757  0.36213676  0.42276077  1
  Na  Na8  1  0.64605062  0.36142192  0.74617626  1
  Na  Na9  1  0.64049197  0.87544697  0.09576050  1
  Na  Na10  1  0.62669186  0.87185705  0.41316367  1
  Na  Na11  1  0.63075054  0.86846569  0.74989030  1
  Na  Na12  1  0.37537536  0.13859583  0.26833646  1
  Na  Na13  1  0.35822345  0.13686276  0.58374663  1
  Na  Na14  1  0.35787185  0.12839986  0.91386304  1
  Na  Na15  1  0.36401253  0.63460864  0.25058888  1
  Na  Na16  1  0.34979422  0.62744652  0.55952924  1
  Na  Na17  1  0.36701000  0.64116739  0.91730487  1
  Na  Na18  1  0.87017838  0.13772958  0.25646375  1
  Na  Na19  1  0.85223551  0.14642245  0.57975507  1
  Na  Na20  1  0.86382997  0.13476296  0.91526381  1
  Na  Na21  1  0.87744277  0.64679380  0.25820006  1
  Na  Na22  1  0.86483455  0.62953723  0.58158854  1
  Na  Na23  1  0.86606713  0.62654443  0.90746619  1
  Na  Na24  1  0.99379548  0.54474018  0.08571669  1
  Na  Na25  1  0.95709182  -0.00264655  0.40363019  1
  Na  Na26  1  1.00031703  0.50674596  0.43012948  1
  Na  Na27  1  0.46387658  0.00865881  0.08420665  1
  Na  Na28  1  0.99212451  0.04684413  0.10159665  1
  Na  Na29  1  0.98149059  0.50144332  0.75570204  1
  Na  Na30  1  0.98612395  0.01387849  0.74138023  1
  Na  Na31  1  0.51787557  0.48754696  0.74536132  1
  Na  Na32  1  0.47938348  0.49164350  0.41946159  1
  Na  Na33  1  0.00981683  0.95468159  0.56398437  1
  Na  Na34  1  0.49743287  0.99695748  0.90701485  1
  Na  Na35  1  0.06032789  0.50382294  0.27023844  1
  Na  Na36  1  0.52689835  0.47003831  0.58308551  1
  Na  Na37  1  0.02016686  0.98963646  0.91839450  1
  Na  Na38  1  0.50515391  0.49616736  0.24091530  1
  Na  Na39  1  0.00406467  0.99648964  0.25479468  1
  Na  Na40  1  0.50558153  0.49365506  0.92933910  1
  Na  Na41  1  0.50297713  1.00296093  0.56983643  1
  Na  Na42  1  0.24336829  0.24490449  0.34058592  1
  Na  Na43  1  0.74177071  0.73718998  0.67025753  1
  Na  Na44  1  0.25804023  0.75423403  0.64750184  1
  Na  Na45  1  0.22896918  0.72110975  0.34935048  1
  Na  Na46  1  0.74969512  0.25168865  -0.00126007  1
  Na  Na47  1  0.24513306  0.24549431  0.00329898  1
  Na  Na48  1  0.25443928  0.75993706  -0.00168773  1
  Na  Na49  1  0.77167286  0.77411186  0.33023272  1
  Na  Na50  1  0.74069908  0.23779553  0.34995239  1
  Na  Na51  1  0.74989856  0.75005304  0.00142703  1
  Na  Na52  1  0.24171406  0.23852084  0.17620159  1
  Na  Na53  1  0.76226760  0.26037780  0.82040788  1
  Na  Na54  1  0.24343689  0.24226174  0.51091578  1
  Na  Na55  1  0.76042419  0.76051445  0.49258031  1
  Na  Na56  1  0.76982537  0.77208332  0.16719912  1
  Na  Na57  1  0.74562999  0.24637997  0.17266205  1
  Na  Na58  1  0.25985428  0.25843639  0.82029182  1
  Na  Na59  1  0.23859175  0.74190353  0.17371410  1
  Na  Na60  1  0.26363051  0.76771913  0.82884400  1
  Na  Na61  1  0.73591567  0.73259894  0.83452472  1
  Fe  Fe62  1  0.97123573  0.80314444  0.12476671  1
  Fe  Fe63  1  0.96531659  0.31056313  0.45669097  1
  Fe  Fe64  1  0.96295538  0.80783261  0.78563279  1
  Fe  Fe65  1  0.46237741  0.30555326  0.78189382  1
  Fe  Fe66  1  0.46235022  0.30770531  0.11707008  1
  Fe  Fe67  1  0.46611803  0.81094094  0.12166079  1
  Fe  Fe68  1  0.46313154  0.80552352  0.78202223  1
  Fe  Fe69  1  0.96589588  0.30892194  0.78439099  1
  Fe  Fe70  1  0.96993555  0.30316288  0.12647342  1
  Fe  Fe71  1  0.46454594  0.80298987  0.45016375  1
  Fe  Fe72  1  0.19469254  0.03166774  0.38445117  1
  Fe  Fe73  1  0.19305611  0.03333127  0.71409342  1
  Fe  Fe74  1  0.69278284  0.03493722  0.37440581  1
  Fe  Fe75  1  0.68876630  0.03826772  0.71128491  1
  Fe  Fe76  1  0.18503938  0.53810791  0.70906838  1
  Fe  Fe77  1  0.19162490  0.53595445  0.04171589  1
  Fe  Fe78  1  0.69684480  0.53629743  0.05172267  1
  Fe  Fe79  1  0.69396688  0.03332061  0.04669207  1
  Fe  Fe80  1  0.20079709  0.03112769  0.04929174  1
  Fe  Fe81  1  0.69388977  0.53399103  0.38343484  1
  Fe  Fe82  1  0.53379874  0.19802750  0.54028938  1
  Fe  Fe83  1  0.03430541  0.19506663  0.88080235  1
  Fe  Fe84  1  0.53521073  0.68949093  0.87860065  1
  Fe  Fe85  1  0.03213539  0.70012466  0.54463755  1
  Fe  Fe86  1  0.53640406  0.69317896  0.21440497  1
  Fe  Fe87  1  0.53322102  0.18951881  0.87572324  1
  Fe  Fe88  1  0.53492058  0.68954720  0.54785349  1
  Fe  Fe89  1  0.53165657  0.19699156  0.21756989  1
  Fe  Fe90  1  0.03578759  0.69301754  0.87744076  1
  Fe  Fe91  1  0.03571363  0.19049939  0.54719005  1
  Fe  Fe92  1  0.31298489  0.96213388  0.29028242  1
  Fe  Fe93  1  0.30600842  0.46568209  0.61569024  1
  Fe  Fe94  1  0.79912511  0.46157882  0.62004477  1
  Fe  Fe95  1  0.30979806  0.46592181  0.95067864  1
  Fe  Fe96  1  0.80096184  0.96798417  0.61614528  1
  Fe  Fe97  1  0.80762546  0.46536712  0.95287712  1
  Fe  Fe98  1  0.80826733  0.96475697  0.95182689  1
  Fe  Fe99  1  0.30221783  0.46486912  0.28544196  1
  Fe  Fe100  1  0.31116266  0.96124866  0.62033019  1
  Fe  Fe101  1  0.80891219  0.46873244  0.28884195  1
  S  S102  1  0.35891613  0.14308664  0.08375343  1
  S  S103  1  0.36173031  0.13619665  0.42153794  1
  S  S104  1  0.35864755  0.13857192  0.75003048  1
  S  S105  1  0.36171796  0.64140775  0.08109099  1
  S  S106  1  0.36490736  0.63442726  0.41130756  1
  S  S107  1  0.35732732  0.63967367  0.75029140  1
  S  S108  1  0.85499430  0.14302140  0.08162076  1
  S  S109  1  0.86141801  0.14239040  0.41664065  1
  S  S110  1  0.86004017  0.14022127  0.75151868  1
  S  S111  1  0.85678828  0.64188317  0.08213348  1
  S  S112  1  0.85645943  0.64313542  0.42178394  1
  S  S113  1  0.86002185  0.63919548  0.74706061  1
  S  S114  1  0.14417864  0.35470113  0.24694361  1
  S  S115  1  0.14046988  0.35911233  0.58385756  1
  S  S116  1  0.14326492  0.35767396  0.91465709  1
  S  S117  1  0.14487767  0.85916897  0.25173438  1
  S  S118  1  0.14437902  0.85921639  0.58690848  1
  S  S119  1  0.13851025  0.86077804  0.91786381  1
  S  S120  1  0.63815686  0.36252348  0.24768188  1
  S  S121  1  0.64061767  0.35539665  0.58595989  1
  S  S122  1  0.63842742  0.35956685  0.91618459  1
  S  S123  1  0.63998232  0.85931613  0.25127957  1
  S  S124  1  0.63883986  0.85948596  0.58416028  1
  S  S125  1  0.64078090  0.85889577  0.91365870  1
  S  S126  1  0.06594478  0.16628800  0.04106755  1
  S  S127  1  0.06752648  0.16727636  0.37793590  1
  S  S128  1  0.06606951  0.16835254  0.70946215  1
  S  S129  1  0.06680762  0.67028930  0.03717772  1
  S  S130  1  0.06060494  0.66325150  0.38312245  1
  S  S131  1  0.06924447  0.67715532  0.71083880  1
  S  S132  1  0.56574162  0.17083356  0.04034516  1
  S  S133  1  0.57168109  0.17020490  0.37721971  1
  S  S134  1  0.56770258  0.17229015  0.70757669  1
  S  S135  1  0.57132166  0.67263929  0.04354454  1
  S  S136  1  0.57025567  0.66787967  0.37516706  1
  S  S137  1  0.55799444  0.66390095  0.70634550  1
  S  S138  1  0.32917488  0.43431719  0.11946139  1
  S  S139  1  0.33478503  0.43081395  0.45882648  1
  S  S140  1  0.33474152  0.43578916  0.79187930  1
  S  S141  1  0.33221145  0.93426028  0.12757203  1
  S  S142  1  0.32813992  0.92489777  0.45784073  1
  S  S143  1  0.33192141  0.93432472  0.79015875  1
  S  S144  1  0.82990460  0.43152372  0.12424196  1
  S  S145  1  0.82658798  0.43079172  0.45674371  1
  S  S146  1  0.83726522  0.43215415  0.79469054  1
  S  S147  1  0.83462514  0.93960510  0.12274820  1
  S  S148  1  0.82262602  0.94136032  0.45904547  1
  S  S149  1  0.82890412  0.93338042  0.78893599  1
  S  S150  1  0.43462021  0.33426917  0.28927748  1
  S  S151  1  0.43418434  0.32876250  0.62406128  1
  S  S152  1  0.43252061  0.32778125  0.95396814  1
  S  S153  1  0.43096787  0.82438356  0.28784548  1
  S  S154  1  0.43445228  0.82648781  0.62206917  1
  S  S155  1  0.44312446  0.83363408  0.95836141  1
  S  S156  1  0.93117876  0.33505749  0.29429099  1
  S  S157  1  0.93471111  0.33399358  0.62803142  1
  S  S158  1  0.93228754  0.32786482  0.95957735  1
  S  S159  1  0.93866159  0.83830989  0.28802049  1
  S  S160  1  0.93343271  0.83405309  0.62686993  1
  S  S161  1  0.92968455  0.82960847  0.95747730  1
  S  S162  1  0.17463147  0.06253568  0.21337274  1
  S  S163  1  0.16555714  0.06203945  0.54159192  1
  S  S164  1  0.16392275  0.06708103  0.87466626  1
  S  S165  1  0.17142779  0.56446550  0.20342867  1
  S  S166  1  0.16426278  0.56726197  0.54453137  1
  S  S167  1  0.17297153  0.56955941  0.87462954  1
  S  S168  1  0.66525462  0.07273553  0.20658316  1
  S  S169  1  0.66645234  0.07169457  0.54058103  1
  S  S170  1  0.66818425  0.06643859  0.87517665  1
  S  S171  1  0.67289322  0.57182454  0.21321624  1
  S  S172  1  0.66539722  0.56198808  0.54125056  1
  S  S173  1  0.66779257  0.56178650  0.87713654  1
  O  O174  1  0.36700757  0.22355783  0.07672811  1
  O  O175  1  0.36246033  0.20917870  0.40460533  1
  O  O176  1  0.36727965  0.21922481  0.74579774  1
  O  O177  1  0.37224488  0.71976268  0.07108014  1
  O  O178  1  0.37812922  0.71160302  0.39932035  1
  O  O179  1  0.36409912  0.72101673  0.74569904  1
  O  O180  1  0.86652761  0.22258307  0.07491752  1
  O  O181  1  0.87218127  0.22317297  0.41119016  1
  O  O182  1  0.87035155  0.22076045  0.74948797  1
  O  O183  1  0.86765538  0.72173534  0.07540083  1
  O  O184  1  0.85700642  0.72148919  0.41537108  1
  O  O185  1  0.87291051  0.71732232  0.73618343  1
  O  O186  1  0.27750258  0.13404152  0.08757855  1
  O  O187  1  0.28614403  0.12206931  0.43673052  1
  O  O188  1  0.28063972  0.12889563  0.76078251  1
  O  O189  1  0.28192659  0.63383414  0.08807837  1
  O  O190  1  0.28857950  0.62851852  0.42014611  1
  O  O191  1  0.28090455  0.63011527  0.76333970  1
  O  O192  1  0.77164248  0.13466936  0.08099180  1
  O  O193  1  0.77924172  0.13292959  0.41768534  1
  O  O194  1  0.78135119  0.12913980  0.76012926  1
  O  O195  1  0.77519146  0.63649080  0.08695781  1
  O  O196  1  0.78097535  0.62579764  0.43550765  1
  O  O197  1  0.78618902  0.63629527  0.76248230  1
  O  O198  1  0.13960945  0.27499589  0.25040521  1
  O  O199  1  0.13157750  0.28066971  0.59278271  1
  O  O200  1  0.13356087  0.27889422  0.92406993  1
  O  O201  1  0.14114993  0.78433107  0.26511441  1
  O  O202  1  0.12977746  0.78092617  0.59613612  1
  O  O203  1  0.12626444  0.78209586  0.92695224  1
  O  O204  1  0.63080255  0.28305190  0.25491062  1
  O  O205  1  0.62683667  0.27293816  0.59014614  1
  O  O206  1  0.62841232  0.28032058  0.92384763  1
  O  O207  1  0.62758744  0.78241627  0.26427690  1
  O  O208  1  0.63006743  0.78154465  0.59461494  1
  O  O209  1  0.63376041  0.77725620  0.91706790  1
  O  O210  1  0.22020570  0.36824483  0.23180902  1
  O  O211  1  0.21930605  0.36907270  0.57509310  1
  O  O212  1  0.22316669  0.36667424  0.90771355  1
  O  O213  1  0.22265183  0.87222058  0.24074358  1
  O  O214  1  0.22752994  0.86523502  0.58931885  1
  O  O215  1  0.21349924  0.86704704  0.90559032  1
  O  O216  1  0.71579241  0.37320943  0.23748600  1
  O  O217  1  0.72312974  0.36337801  0.58700625  1
  O  O218  1  0.71801968  0.36790513  0.90898403  1
  O  O219  1  0.71654038  0.86439317  0.24113547  1
  O  O220  1  0.71747300  0.86771292  0.57512627  1
  O  O221  1  0.71713536  0.86808828  0.90010864  1
  O  O222  1  0.41473735  0.13777345  0.15525743  1
  O  O223  1  0.42460145  0.13797808  0.49345612  1
  O  O224  1  0.41886964  0.12861800  0.81661140  1
  O  O225  1  0.41977233  0.63417688  0.14985041  1
  O  O226  1  0.42675317  0.62600709  0.47879811  1
  O  O227  1  0.41938826  0.63014004  0.81612479  1
  O  O228  1  0.90872312  0.13351617  0.14963194  1
  O  O229  1  0.91611656  0.13682543  0.48898344  1
  O  O230  1  0.91975169  0.12746045  0.81750581  1
  O  O231  1  0.91289963  0.62890475  0.14682661  1
  O  O232  1  0.91980521  0.63597803  0.48917754  1
  O  O233  1  0.92495538  0.62872250  0.81117495  1
  O  O234  1  0.37144534  0.08519651  0.01935444  1
  O  O235  1  0.37310788  0.07177565  0.35922926  1
  O  O236  1  0.36363974  0.08181198  0.67964571  1
  O  O237  1  0.36921012  0.58174566  0.01309161  1
  O  O238  1  0.37491194  0.57311752  0.34429534  1
  O  O239  1  0.36253829  0.58368055  0.67983196  1
  O  O240  1  0.86597019  0.08439917  0.01353786  1
  O  O241  1  0.87601559  0.08475093  0.35320052  1
  O  O242  1  0.86716595  0.08279090  0.68207355  1
  O  O243  1  0.86287226  0.58379449  0.01154506  1
  O  O244  1  0.86421249  0.58462736  0.35313787  1
  O  O245  1  0.86176658  0.57842596  0.67713364  1
  O  O246  1  0.08161189  0.36443760  0.17964681  1
  O  O247  1  0.08123158  0.36599537  0.51541526  1
  O  O248  1  0.08545219  0.36198832  0.84477256  1
  O  O249  1  0.08536075  0.86277808  0.18083371  1
  O  O250  1  0.09178716  0.86916651  0.51876916  1
  O  O251  1  0.07446032  0.87240992  0.85358896  1
  O  O252  1  0.57708269  0.37070777  0.18009208  1
  O  O253  1  0.58706388  0.36436770  0.51702264  1
  O  O254  1  0.57934618  0.36813818  0.84855951  1
  O  O255  1  0.57895515  0.86529862  0.18293085  1
  O  O256  1  0.57891438  0.86702621  0.51617947  1
  O  O257  1  0.57811433  0.87154277  0.85022852  1
  O  O258  1  0.13817736  0.41306438  0.31468939  1
  O  O259  1  0.13445420  0.41881291  0.65239697  1
  O  O260  1  0.13521028  0.41721799  0.98175290  1
  O  O261  1  0.13290100  0.92299305  0.31535443  1
  O  O262  1  0.13195955  0.91915176  0.65419704  1
  O  O263  1  0.13290332  0.91971083  0.98798947  1
  O  O264  1  0.62964177  0.42153093  0.31530292  1
  O  O265  1  0.62681110  0.41104265  0.65206751  1
  O  O266  1  0.63046005  0.41920919  0.98446162  1
  O  O267  1  0.63338828  0.92132307  0.31848452  1
  O  O268  1  0.63197218  0.92027988  0.65184533  1
  O  O269  1  0.63784138  0.91438612  0.98562071  1
  O  O270  1  0.02577461  0.19364722  0.09746749  1
  O  O271  1  0.03512825  0.19894321  0.44294824  1
  O  O272  1  0.02748184  0.19865331  0.76936660  1
  O  O273  1  0.02872823  0.69683694  0.09542982  1
  O  O274  1  0.02628885  0.70272824  0.44503434  1
  O  O275  1  0.03339173  0.70964972  0.77259741  1
  O  O276  1  0.52840752  0.19918447  0.10069947  1
  O  O277  1  0.53400024  0.18815688  0.43723056  1
  O  O278  1  0.52675517  0.19840032  0.76587084  1
  O  O279  1  0.53548391  0.70129356  0.10474425  1
  O  O280  1  0.53832156  0.69964349  0.43896221  1
  O  O281  1  0.52576168  0.70395145  0.76988383  1
  O  O282  1  0.30101048  0.47166961  0.05845456  1
  O  O283  1  0.31019985  0.46110867  0.39440738  1
  O  O284  1  0.30560923  0.46863774  0.72910380  1
  O  O285  1  0.30259103  0.97223139  0.06905427  1
  O  O286  1  0.29727158  0.96020606  0.39652333  1
  O  O287  1  0.30168856  0.97033593  0.72801788  1
  O  O288  1  0.80074063  0.47040170  0.06376967  1
  O  O289  1  0.79649537  0.46781260  0.39522220  1
  O  O290  1  0.81662055  0.46911283  0.73558994  1
  O  O291  1  0.79984353  0.96927663  0.05511789  1
  O  O292  1  0.78979437  0.97775515  0.39959117  1
  O  O293  1  0.80001403  0.96982725  0.72797394  1
  O  O294  1  0.46870028  0.30018031  0.22523670  1
  O  O295  1  0.47211884  0.29740272  0.56585764  1
  O  O296  1  0.46952265  0.29666492  0.89334356  1
  O  O297  1  0.46857989  0.79448944  0.22715825  1
  O  O298  1  0.46961840  0.79315971  0.55987261  1
  O  O299  1  0.47455248  0.79280031  0.89484603  1
  O  O300  1  0.96603365  0.31336226  0.23358832  1
  O  O301  1  0.97121952  0.30411656  0.56682968  1
  O  O302  1  0.97073529  0.30098613  0.89925456  1
  O  O303  1  0.97067162  0.79960186  0.22579244  1
  O  O304  1  0.97246152  0.80468901  0.56948275  1
  O  O305  1  0.96316384  0.79763388  0.89437120  1
  O  O306  1  0.21312673  0.03096429  0.27681442  1
  O  O307  1  0.19798442  0.02816479  0.60467832  1
  O  O308  1  0.18149607  0.03293568  0.93579909  1
  O  O309  1  0.20401819  0.52814730  0.26278961  1
  O  O310  1  0.19872781  0.53646123  0.61086948  1
  O  O311  1  0.20102343  0.52963771  0.93348134  1
  O  O312  1  0.68740126  0.03718163  0.26667210  1
  O  O313  1  0.69189705  0.02999994  0.59968451  1
  O  O314  1  0.69833456  0.02712162  0.93396163  1
  O  O315  1  0.70309746  0.53445411  0.27366271  1
  O  O316  1  0.69484205  0.52469548  0.59949246  1
  O  O317  1  0.70039604  0.53004198  0.94196651  1
  O  O318  1  0.08664287  0.08499533  0.03919698  1
  O  O319  1  0.08985039  0.08659064  0.37687782  1
  O  O320  1  0.07994262  0.08501112  0.70314331  1
  O  O321  1  0.08693935  0.58901046  0.03284269  1
  O  O322  1  0.07205541  0.58274673  0.38562309  1
  O  O323  1  0.08219574  0.59524280  0.70723114  1
  O  O324  1  0.58541631  0.08921842  0.03344983  1
  O  O325  1  0.59590263  0.09023704  0.36552619  1
  O  O326  1  0.58180367  0.08864400  0.69724445  1
  O  O327  1  0.59183568  0.59176579  0.03894637  1
  O  O328  1  0.58485180  0.58465841  0.36808094  1
  O  O329  1  0.56521952  0.58245187  0.70357120  1
  O  O330  1  0.41062538  0.41472436  0.12441521  1
  O  O331  1  0.41896931  0.42231952  0.47695378  1
  O  O332  1  0.41788606  0.41826037  0.79966810  1
  O  O333  1  0.41232475  0.91352230  0.12627194  1
  O  O334  1  0.41032554  0.90775887  0.46266587  1
  O  O335  1  0.41104049  0.90904966  0.78929995  1
  O  O336  1  0.90906004  0.40972685  0.12663809  1
  O  O337  1  0.90854538  0.41512647  0.46153476  1
  O  O338  1  0.92099573  0.41465764  0.80750425  1
  O  O339  1  0.91521736  0.91934412  0.12382742  1
  O  O340  1  0.90275353  0.92562514  0.46146809  1
  O  O341  1  0.91258170  0.91976067  0.79772975  1
  O  O342  1  0.41138851  0.41313010  0.28477812  1
  O  O343  1  0.41578496  0.41057859  0.62722957  1
  O  O344  1  0.41490272  0.40884505  0.95576052  1
  O  O345  1  0.41289542  0.90443649  0.29216859  1
  O  O346  1  0.41625717  0.90661998  0.62245153  1
  O  O347  1  0.43936969  0.91597901  0.96226508  1
  O  O348  1  0.91298808  0.41881904  0.30831012  1
  O  O349  1  0.91192903  0.41374491  0.63074011  1
  O  O350  1  0.91436418  0.40985434  0.96903102  1
  O  O351  1  0.91702989  0.91580084  0.28165690  1
  O  O352  1  0.91287826  0.91525039  0.62757557  1
  O  O353  1  0.91736441  0.91332151  0.96301874  1
  O  O354  1  0.09279993  0.07021552  0.21007049  1
  O  O355  1  0.08264505  0.07709325  0.53673998  1
  O  O356  1  0.07947024  0.08426024  0.85778180  1
  O  O357  1  0.09005407  0.57718050  0.19896984  1
  O  O358  1  0.08816214  0.59842414  0.54957310  1
  O  O359  1  0.09093866  0.58626705  0.86647575  1
  O  O360  1  0.58251380  0.09247021  0.19210220  1
  O  O361  1  0.58518401  0.09310821  0.53917446  1
  O  O362  1  0.58704834  0.08398047  0.87279050  1
  O  O363  1  0.59085774  0.58754187  0.20913586  1
  O  O364  1  0.58231114  0.57920139  0.53625257  1
  O  O365  1  0.58613898  0.58210212  0.87571972  1
  O  O366  1  0.13667084  0.21950114  0.05683458  1
  O  O367  1  0.13872598  0.22026860  0.39351310  1
  O  O368  1  0.13907420  0.21804012  0.72834630  1
  O  O369  1  0.13845410  0.72292603  0.05363094  1
  O  O370  1  0.13498653  0.71047624  0.39936541  1
  O  O371  1  0.14268553  0.72643230  0.72819587  1
  O  O372  1  0.63604128  0.22515832  0.05753889  1
  O  O373  1  0.63787865  0.22836054  0.39497144  1
  O  O374  1  0.64055776  0.22345972  0.73067635  1
  O  O375  1  0.64038393  0.72686689  0.05728181  1
  O  O376  1  0.64172880  0.71765452  0.38837264  1
  O  O377  1  0.63351384  0.71002748  0.72149851  1
  O  O378  1  0.27576689  0.36352067  0.10142414  1
  O  O379  1  0.28503149  0.35769886  0.44362158  1
  O  O380  1  0.28369215  0.36590293  0.78012495  1
  O  O381  1  0.28041539  0.86226575  0.11179753  1
  O  O382  1  0.27734314  0.85502231  0.44539695  1
  O  O383  1  0.27688052  0.86446050  0.77330922  1
  O  O384  1  0.77344750  0.36238750  0.10620113  1
  O  O385  1  0.77477085  0.35943698  0.43866517  1
  O  O386  1  0.78478570  0.36134757  0.77777690  1
  O  O387  1  0.78200794  0.86831492  0.10815824  1
  O  O388  1  0.77167194  0.86906029  0.44449900  1
  O  O389  1  0.77899917  0.86039313  0.77145831  1
  O  O390  1  0.36564960  0.28084222  0.27678322  1
  O  O391  1  0.36403420  0.27748884  0.61148795  1
  O  O392  1  0.36084088  0.27615682  0.93791737  1
  O  O393  1  0.36066585  0.77070214  0.27056520  1
  O  O394  1  0.36565301  0.77416466  0.61023070  1
  O  O395  1  0.36611731  0.79029400  0.94315932  1
  O  O396  1  0.85958892  0.28221874  0.27628463  1
  O  O397  1  0.86983742  0.27957234  0.61925603  1
  O  O398  1  0.85949097  0.27454830  0.93795434  1
  O  O399  1  0.86730681  0.78605455  0.27650542  1
  O  O400  1  0.86243469  0.78217374  0.61221316  1
  O  O401  1  0.85541042  0.78145474  0.94104261  1
  O  O402  1  0.22146137  0.13705281  0.22748704  1
  O  O403  1  0.21468338  0.13412551  0.55563527  1
  O  O404  1  0.21687926  0.13871275  0.89352556  1
  O  O405  1  0.22169306  0.63790652  0.22013749  1
  O  O406  1  0.22054328  0.63131776  0.55270637  1
  O  O407  1  0.22554277  0.64184937  0.89526703  1
  O  O408  1  0.71986385  0.14356821  0.22483849  1
  O  O409  1  0.72071499  0.13992091  0.55926264  1
  O  O410  1  0.72010053  0.13841777  0.89296015  1
  O  O411  1  0.72382929  0.64321257  0.22849470  1
  O  O412  1  0.71485947  0.63531914  0.55696229  1
  O  O413  1  0.71883748  0.63367782  0.89129558  1
  O  O414  1  0.49084673  0.33095134  0.02704468  1
  O  O415  1  0.49639573  0.34644881  0.36058550  1
  O  O416  1  0.49354472  0.33742814  0.70022547  1
  O  O417  1  0.49873213  0.82937751  0.03053947  1
  O  O418  1  0.49039406  0.82580789  0.36036028  1
  O  O419  1  0.49580033  0.83186368  0.69481476  1
  O  O420  1  0.98947792  0.32388899  0.03047971  1
  O  O421  1  0.99083148  0.33276616  0.36548756  1
  O  O422  1  0.99885310  0.34338228  0.70167593  1
  O  O423  1  0.98818866  0.82779646  0.02836808  1
  O  O424  1  0.99651787  0.84936366  0.36184416  1
  O  O425  1  0.99120427  0.84352186  0.70304692  1
  O  O426  1  0.17634366  0.00551294  0.14050756  1
  O  O427  1  0.16502045  0.00098028  0.47079265  1
  O  O428  1  0.16915651  0.00780447  0.80461319  1
  O  O429  1  0.17089468  0.50787761  0.12869251  1
  O  O430  1  0.14799350  0.50035737  0.47645636  1
  O  O431  1  0.17409695  0.51187511  0.80237584  1
  O  O432  1  0.66769033  0.01281268  0.13527597  1
  O  O433  1  0.66079902  0.01268126  0.46677728  1
  O  O434  1  0.66574351  0.00990414  0.80124581  1
  O  O435  1  0.67063766  0.51216065  0.14038505  1
  O  O436  1  0.66070638  0.50518813  0.46600763  1
  O  O437  1  0.66109404  0.50048597  0.80693555  1
  O  O438  1  0.00655515  0.16033886  0.30760717  1
  O  O439  1  0.00873671  0.16999628  0.63758750  1
  O  O440  1  0.00938111  0.15828058  0.96434421  1
  O  O441  1  0.00481460  0.66011375  0.31069116  1
  O  O442  1  0.01059606  0.67965706  0.63970758  1
  O  O443  1  0.00875256  0.66604974  0.96271024  1
  O  O444  1  0.50967135  0.17064656  0.30656285  1
  O  O445  1  0.51200541  0.17534659  0.63484148  1
  O  O446  1  0.50636718  0.16775139  0.96718942  1
  O  O447  1  0.50868394  0.66535432  0.30342378  1
  O  O448  1  0.50111227  0.66729218  0.63467810  1
  O  O449  1  0.50996381  0.66669928  0.97046589  1
  O  O450  1  0.33244814  0.49317061  0.19194688  1
  O  O451  1  0.32256930  0.49128485  0.52645516  1
  O  O452  1  0.33855375  0.49759111  0.86453877  1
  O  O453  1  0.33960309  0.99133970  0.20252080  1
  O  O454  1  0.33361948  0.98762030  0.53060755  1
  O  O455  1  0.34143254  0.99404932  0.86205541  1
  O  O456  1  0.83274773  0.49070245  0.19688412  1
  O  O457  1  0.82594736  0.48897061  0.52854888  1
  O  O458  1  0.83464150  0.49122191  0.86653200  1
  O  O459  1  0.83791115  1.00297525  0.19003655  1
  O  O460  1  0.82517637  0.99923791  0.53352660  1
  O  O461  1  0.82788369  0.99174841  0.86109298  1
