# generated using pymatgen
data_Na31Fe20(SO4)36
_symmetry_space_group_name_H-M   'P 1'
_cell_length_a   18.08276515
_cell_length_b   18.07612515
_cell_length_c   19.71609489
_cell_angle_alpha   107.58545229
_cell_angle_beta   107.59927276
_cell_angle_gamma   90.74552152
_symmetry_Int_Tables_number   1
_chemical_formula_structural   Na31Fe20(SO4)36
_chemical_formula_sum   'Na62 Fe40 S72 O288'
_cell_volume   5817.06347638
_cell_formula_units_Z   2
loop_
 _symmetry_equiv_pos_site_id
 _symmetry_equiv_pos_as_xyz
  1  'x, y, z'
loop_
 _atom_site_type_symbol
 _atom_site_label
 _atom_site_symmetry_multiplicity
 _atom_site_fract_x
 _atom_site_fract_y
 _atom_site_fract_z
 _atom_site_occupancy
  Na  Na0  1  0.12820948  0.36278656  0.07357443  1
  Na  Na1  1  0.14893042  0.36327237  0.43093879  1
  Na  Na2  1  0.13499218  0.37113474  0.74575269  1
  Na  Na3  1  0.13912937  0.87662608  0.08837835  1
  Na  Na4  1  0.13250849  0.85993622  0.41175386  1
  Na  Na5  1  0.13781114  0.87338920  0.75588844  1
  Na  Na6  1  0.63275006  0.36521342  0.07960211  1
  Na  Na7  1  0.63560114  0.36130090  0.41291094  1
  Na  Na8  1  0.63899816  0.36379832  0.75292555  1
  Na  Na9  1  0.63715669  0.86702942  0.08486571  1
  Na  Na10  1  0.61592608  0.85899247  0.40274271  1
  Na  Na11  1  0.63239584  0.86912555  0.75594079  1
  Na  Na12  1  0.34513803  0.12448913  0.23517898  1
  Na  Na13  1  0.34915978  0.14739408  0.57978212  1
  Na  Na14  1  0.36984315  0.13453297  0.91998822  1
  Na  Na15  1  0.36948509  0.63279942  0.25131861  1
  Na  Na16  1  0.37505633  0.64412494  0.59728460  1
  Na  Na17  1  0.36292200  0.62615613  0.90221739  1
  Na  Na18  1  0.86253629  0.14116646  0.25578936  1
  Na  Na19  1  0.86302342  0.13528733  0.58458599  1
  Na  Na20  1  0.85730070  0.14163215  0.91423061  1
  Na  Na21  1  0.86356569  0.63476746  0.24971436  1
  Na  Na22  1  0.87520780  0.62916850  0.58571370  1
  Na  Na23  1  0.86909809  0.63214187  0.91410729  1
  Na  Na24  1  0.48748725  0.51934657  0.41542352  1
  Na  Na25  1  0.99336228  0.01060989  0.41585709  1
  Na  Na26  1  0.47723362  0.50491665  0.76827911  1
  Na  Na27  1  0.47418077  0.00139432  0.09788025  1
  Na  Na28  1  0.48953853  0.00737909  0.74574511  1
  Na  Na29  1  0.97327786  0.01520748  0.05137211  1
  Na  Na30  1  0.49417221  0.53577820  0.07392161  1
  Na  Na31  1  1.00946823  0.48473449  0.44194709  1
  Na  Na32  1  0.98902474  0.04677243  0.87443858  1
  Na  Na33  1  0.01398855  0.48789211  0.91395107  1
  Na  Na34  1  0.01021872  0.49234804  0.24006057  1
  Na  Na35  1  0.50804278  0.95973869  0.55587916  1
  Na  Na36  1  0.49958789  0.51045475  0.23584483  1
  Na  Na37  1  0.00163703  0.99433089  0.59904512  1
  Na  Na38  1  0.45483957  1.01144310  0.31119870  1
  Na  Na39  1  0.02424915  0.99397367  0.24051745  1
  Na  Na40  1  0.50261550  0.93888710  0.90300974  1
  Na  Na41  1  0.50884663  0.48918692  0.58840026  1
  Na  Na42  1  0.22290055  0.22392851  -0.00255980  1
  Na  Na43  1  0.23818831  0.23625875  0.34843401  1
  Na  Na44  1  0.25403090  0.75209350  -0.00104010  1
  Na  Na45  1  0.73607378  0.73764687  0.33878222  1
  Na  Na46  1  0.76010509  0.76273526  -0.00435127  1
  Na  Na47  1  0.75515208  0.25834933  -0.01003625  1
  Na  Na48  1  0.74287827  0.24028423  0.67640644  1
  Na  Na49  1  0.26281665  0.75310098  0.66965012  1
  Na  Na50  1  0.28294761  0.78052095  0.33222300  1
  Na  Na51  1  0.75081700  0.75395435  0.66827950  1
  Na  Na52  1  0.74589886  0.24327302  0.17249847  1
  Na  Na53  1  0.76350488  0.76584236  0.83372634  1
  Na  Na54  1  0.26162180  0.76619827  0.16433421  1
  Na  Na55  1  0.24742623  0.25415757  0.82800808  1
  Na  Na56  1  0.23106439  0.23266559  0.16844203  1
  Na  Na57  1  0.73912714  0.74497010  0.17247258  1
  Na  Na58  1  0.26527622  0.76121639  0.49395151  1
  Na  Na59  1  0.75803717  0.25655749  0.48992133  1
  Na  Na60  1  0.23719287  0.72905721  0.82843452  1
  Na  Na61  1  0.73946191  0.73937360  0.50285817  1
  Fe  Fe62  1  0.46736151  0.30841310  0.78447231  1
  Fe  Fe63  1  0.47177147  0.80045948  0.13117087  1
  Fe  Fe64  1  0.96478231  0.80395257  0.45164000  1
  Fe  Fe65  1  0.96500469  0.80722518  0.11625550  1
  Fe  Fe66  1  0.96763533  0.81362292  0.79064461  1
  Fe  Fe67  1  0.46614281  0.30521067  0.11699068  1
  Fe  Fe68  1  0.96278393  0.30710688  0.11239290  1
  Fe  Fe69  1  0.96646071  0.30654293  0.45614165  1
  Fe  Fe70  1  0.96848971  0.29931932  0.78993439  1
  Fe  Fe71  1  0.46413083  0.30867102  0.45263086  1
  Fe  Fe72  1  0.19239186  0.03554874  0.38166651  1
  Fe  Fe73  1  0.69204421  0.03476484  0.71388662  1
  Fe  Fe74  1  0.69592291  0.52971432  0.37965066  1
  Fe  Fe75  1  0.19472602  0.53771600  0.04899189  1
  Fe  Fe76  1  0.68984840  0.53749405  0.04325344  1
  Fe  Fe77  1  0.19330504  0.53472133  0.38170474  1
  Fe  Fe78  1  0.19261993  0.04097116  0.71580355  1
  Fe  Fe79  1  0.68954292  0.03714636  0.37879074  1
  Fe  Fe80  1  0.69791158  0.02978027  0.04269809  1
  Fe  Fe81  1  0.69846751  0.53348481  0.71466223  1
  Fe  Fe82  1  0.04021677  0.68794910  0.87502384  1
  Fe  Fe83  1  0.53098883  0.18927616  0.54513560  1
  Fe  Fe84  1  0.03989110  0.19472755  0.55330461  1
  Fe  Fe85  1  0.53464233  0.19631124  0.88068646  1
  Fe  Fe86  1  0.03377364  0.68701414  0.21021104  1
  Fe  Fe87  1  0.03859397  0.69172372  0.55153471  1
  Fe  Fe88  1  0.52724423  0.70501230  0.54572658  1
  Fe  Fe89  1  0.02932998  0.19340023  0.21048625  1
  Fe  Fe90  1  0.53663484  0.19252591  0.21466022  1
  Fe  Fe91  1  0.53408206  0.69965656  0.87595243  1
  Fe  Fe92  1  0.80974238  0.46188275  0.28504747  1
  Fe  Fe93  1  0.30270436  0.96625185  0.95396688  1
  Fe  Fe94  1  0.80934503  0.96530504  0.62116858  1
  Fe  Fe95  1  0.30654540  0.96742439  0.61995351  1
  Fe  Fe96  1  0.29952222  0.46381649  0.62079188  1
  Fe  Fe97  1  0.81368443  0.46465600  0.62151757  1
  Fe  Fe98  1  0.30566070  0.46724062  0.94811012  1
  Fe  Fe99  1  0.30525460  0.46386696  0.28393396  1
  Fe  Fe100  1  0.80912031  0.46549022  0.95262609  1
  Fe  Fe101  1  0.80690402  0.96861396  0.28523443  1
  S  S102  1  0.36215459  0.14142429  0.08472522  1
  S  S103  1  0.35810644  0.14564537  0.41554806  1
  S  S104  1  0.36112492  0.14422881  0.74843871  1
  S  S105  1  0.36126276  0.63794601  0.08432412  1
  S  S106  1  0.35772507  0.63931853  0.41633732  1
  S  S107  1  0.36535890  0.63612527  0.74746763  1
  S  S108  1  0.85467985  0.14724259  0.08337566  1
  S  S109  1  0.86234472  0.13915040  0.42025238  1
  S  S110  1  0.85640106  0.13714033  0.74685696  1
  S  S111  1  0.85795892  0.64232639  0.08279364  1
  S  S112  1  0.86125997  0.63752256  0.41664662  1
  S  S113  1  0.86091599  0.64154992  0.75154407  1
  S  S114  1  0.13904947  0.36094786  0.24985510  1
  S  S115  1  0.13861542  0.35880304  0.57960898  1
  S  S116  1  0.14065056  0.36273272  0.91830057  1
  S  S117  1  0.13491049  0.85587958  0.25239100  1
  S  S118  1  0.13913549  0.85917379  0.58267033  1
  S  S119  1  0.14444618  0.85704303  0.91479838  1
  S  S120  1  0.64069059  0.35764355  0.24803361  1
  S  S121  1  0.64121887  0.35806062  0.58171087  1
  S  S122  1  0.64057788  0.36243289  0.91696463  1
  S  S123  1  0.64433610  0.86171777  0.24947911  1
  S  S124  1  0.64546022  0.85974983  0.58236996  1
  S  S125  1  0.64598490  0.85663544  0.92103158  1
  S  S126  1  0.05499783  0.17032574  0.03986301  1
  S  S127  1  0.06234915  0.16853001  0.37426201  1
  S  S128  1  0.06499821  0.17192152  0.70825591  1
  S  S129  1  0.06922742  0.67204691  0.04251172  1
  S  S130  1  0.06550720  0.66593153  0.37563542  1
  S  S131  1  0.06811859  0.67630371  0.71301700  1
  S  S132  1  0.57039424  0.16975961  0.04255710  1
  S  S133  1  0.56650351  0.17129659  0.37689437  1
  S  S134  1  0.56540907  0.16923622  0.70552438  1
  S  S135  1  0.56805455  0.67495731  0.04097848  1
  S  S136  1  0.56598675  0.65422841  0.37409646  1
  S  S137  1  0.57886946  0.67113857  0.70733987  1
  S  S138  1  0.32850351  0.42930966  0.12108000  1
  S  S139  1  0.33253150  0.43444162  0.45727353  1
  S  S140  1  0.33357785  0.42604218  0.79185151  1
  S  S141  1  0.33939721  0.92872515  0.12851108  1
  S  S142  1  0.32172100  0.93894062  0.45811892  1
  S  S143  1  0.33218066  0.94027584  0.78955838  1
  S  S144  1  0.82938738  0.43488864  0.12382114  1
  S  S145  1  0.83017543  0.43055902  0.45713847  1
  S  S146  1  0.83116708  0.43099799  0.78994730  1
  S  S147  1  0.83559826  0.93803552  0.12781323  1
  S  S148  1  0.83175336  0.93035196  0.45627071  1
  S  S149  1  0.83082918  0.93732461  0.79195563  1
  S  S150  1  0.43141797  0.33005412  0.28893459  1
  S  S151  1  0.43705943  0.33549307  0.62545515  1
  S  S152  1  0.43285092  0.33296463  0.95792523  1
  S  S153  1  0.43325817  0.81914337  0.28721175  1
  S  S154  1  0.43758614  0.83781074  0.62694062  1
  S  S155  1  0.42888586  0.82541323  0.96158117  1
  S  S156  1  0.93617953  0.33347188  0.29194500  1
  S  S157  1  0.92951284  0.32454153  0.62373396  1
  S  S158  1  0.93113386  0.33796554  0.95892331  1
  S  S159  1  0.92824139  0.82928749  0.29024554  1
  S  S160  1  0.93191846  0.82617062  0.62101415  1
  S  S161  1  0.93868116  0.82633772  0.95539605  1
  S  S162  1  0.15646763  0.06722715  0.20584391  1
  S  S163  1  0.16275284  0.06299955  0.53957136  1
  S  S164  1  0.17761859  0.06988074  0.87516972  1
  S  S165  1  0.17092462  0.56867913  0.21161879  1
  S  S166  1  0.17525944  0.57050520  0.54344358  1
  S  S167  1  0.17115916  0.56467856  0.87695231  1
  S  S168  1  0.67193115  0.07047871  0.20752671  1
  S  S169  1  0.66760062  0.06501360  0.54066240  1
  S  S170  1  0.66351165  0.06845351  0.87399966  1
  S  S171  1  0.67112414  0.56059044  0.20686289  1
  S  S172  1  0.67115096  0.56235834  0.54263269  1
  S  S173  1  0.67193715  0.57043619  0.87527019  1
  O  O174  1  0.37359232  0.21842457  0.07225819  1
  O  O175  1  0.36895956  0.22808860  0.41339235  1
  O  O176  1  0.37450200  0.22078166  0.73852422  1
  O  O177  1  0.37300268  0.72077059  0.08267009  1
  O  O178  1  0.36549441  0.71543734  0.40692202  1
  O  O179  1  0.37725941  0.70812455  0.73064899  1
  O  O180  1  0.86070394  0.22953226  0.08054380  1
  O  O181  1  0.86955272  0.21861331  0.41403934  1
  O  O182  1  0.86895339  0.21598175  0.73896920  1
  O  O183  1  0.86778729  0.72158179  0.07520056  1
  O  O184  1  0.86918716  0.71667550  0.40790160  1
  O  O185  1  0.86631828  0.72227217  0.74589903  1
  O  O186  1  0.28603848  0.13557485  0.09557042  1
  O  O187  1  0.27744536  0.13596491  0.41897275  1
  O  O188  1  0.28112958  0.13734948  0.75374150  1
  O  O189  1  0.28123564  0.63275563  0.09173343  1
  O  O190  1  0.27839251  0.62709366  0.42374083  1
  O  O191  1  0.29242205  0.62977566  0.76400552  1
  O  O192  1  0.77355963  0.13312216  0.08544666  1
  O  O193  1  0.78416132  0.12723509  0.42934806  1
  O  O194  1  0.77285405  0.12975397  0.74505126  1
  O  O195  1  0.77978479  0.63422669  0.09300431  1
  O  O196  1  0.78188514  0.62918539  0.42476118  1
  O  O197  1  0.78351073  0.63072598  0.76309066  1
  O  O198  1  0.12926453  0.28130221  0.25579753  1
  O  O199  1  0.13030356  0.27587836  0.57850516  1
  O  O200  1  0.13394818  0.28867401  0.93191171  1
  O  O201  1  0.11738764  0.77931170  0.26352242  1
  O  O202  1  0.13270608  0.78105053  0.59292773  1
  O  O203  1  0.13695069  0.77252774  0.91307306  1
  O  O204  1  0.63009851  0.27817400  0.25340213  1
  O  O205  1  0.63055857  0.27885148  0.58828715  1
  O  O206  1  0.63017608  0.28432594  0.92707708  1
  O  O207  1  0.64441154  0.78566084  0.26080397  1
  O  O208  1  0.63417762  0.77958754  0.58801413  1
  O  O209  1  0.63035218  0.77954880  0.93281906  1
  O  O210  1  0.21733763  0.36861654  0.23948508  1
  O  O211  1  0.21374938  0.37095006  0.56413221  1
  O  O212  1  0.21869859  0.37413154  0.90798291  1
  O  O213  1  0.21376652  0.85850104  0.24757882  1
  O  O214  1  0.21867892  0.87015716  0.57683229  1
  O  O215  1  0.22130712  0.86565561  0.90045348  1
  O  O216  1  0.71929773  0.36679841  0.23921817  1
  O  O217  1  0.71969717  0.36754361  0.57326277  1
  O  O218  1  0.72039680  0.37193042  0.91201302  1
  O  O219  1  0.71931499  0.87804794  0.23510337  1
  O  O220  1  0.72813551  0.86623349  0.58065460  1
  O  O221  1  0.72639074  0.86142698  0.92002308  1
  O  O222  1  0.42413663  0.13470192  0.15318489  1
  O  O223  1  0.41442040  0.13785573  0.48562170  1
  O  O224  1  0.41821039  0.13732926  0.81876302  1
  O  O225  1  0.41896803  0.62074596  0.14597706  1
  O  O226  1  0.41620744  0.63196258  0.48608221  1
  O  O227  1  0.43071491  0.62898336  0.81454305  1
  O  O228  1  0.90958086  0.14244547  0.15554123  1
  O  O229  1  0.92315158  0.12859853  0.48599674  1
  O  O230  1  0.90863037  0.12782063  0.81514588  1
  O  O231  1  0.91758348  0.63454879  0.15078574  1
  O  O232  1  0.92019683  0.62956485  0.48424676  1
  O  O233  1  0.92204580  0.63182797  0.81681127  1
  O  O234  1  0.37129268  0.07946200  0.01877698  1
  O  O235  1  0.36870843  0.09165451  0.34805146  1
  O  O236  1  0.37083890  0.08180104  0.68318171  1
  O  O237  1  0.36557392  0.58445781  0.01126381  1
  O  O238  1  0.36857559  0.57645650  0.35061328  1
  O  O239  1  0.37147926  0.56863483  0.68210719  1
  O  O240  1  0.86984367  0.09276261  0.01886606  1
  O  O241  1  0.87015922  0.08107419  0.35111816  1
  O  O242  1  0.86659697  0.07866852  0.67819607  1
  O  O243  1  0.86346863  0.58399550  0.01386149  1
  O  O244  1  0.86802038  0.57890994  0.34813131  1
  O  O245  1  0.86446639  0.58481248  0.68069242  1
  O  O246  1  0.07895377  0.37347656  0.18463768  1
  O  O247  1  0.07570494  0.36882022  0.51219611  1
  O  O248  1  0.07983882  0.36828137  0.84939794  1
  O  O249  1  0.07790572  0.86415392  0.18228321  1
  O  O250  1  0.08044543  0.86224203  0.51169843  1
  O  O251  1  0.08295175  0.86955893  0.85008104  1
  O  O252  1  0.58103646  0.36892982  0.18159708  1
  O  O253  1  0.58141264  0.36849698  0.51453439  1
  O  O254  1  0.58328834  0.36724951  0.84698282  1
  O  O255  1  0.58125385  0.86345111  0.17987023  1
  O  O256  1  0.59150081  0.86964397  0.51470158  1
  O  O257  1  0.58916452  0.86419488  0.85321386  1
  O  O258  1  0.13432917  0.41900320  0.32014970  1
  O  O259  1  0.13431822  0.41282473  0.64866012  1
  O  O260  1  0.13121579  0.42723583  0.98373681  1
  O  O261  1  0.12382269  0.91857742  0.31695766  1
  O  O262  1  0.12609517  0.91962915  0.64707038  1
  O  O263  1  0.14322787  0.90893755  0.98620841  1
  O  O264  1  0.63458009  0.41519322  0.31759038  1
  O  O265  1  0.63389856  0.41752921  0.65030579  1
  O  O266  1  0.63092829  0.42229728  0.98373398  1
  O  O267  1  0.63505949  0.92287082  0.31559841  1
  O  O268  1  0.63568571  0.91761143  0.65082178  1
  O  O269  1  0.63478880  0.91765919  0.98839284  1
  O  O270  1  0.02274553  0.20775504  0.10592128  1
  O  O271  1  0.02518232  0.19888358  0.43430538  1
  O  O272  1  0.02943235  0.19827939  0.76796773  1
  O  O273  1  0.03050710  0.70059327  0.10250122  1
  O  O274  1  0.02862486  0.69552794  0.43644666  1
  O  O275  1  0.02465819  0.71064562  0.76931639  1
  O  O276  1  0.53299492  0.19981028  0.10327434  1
  O  O277  1  0.52928547  0.20088016  0.43750360  1
  O  O278  1  0.53302734  0.20146678  0.76944596  1
  O  O279  1  0.52835722  0.70225947  0.09916134  1
  O  O280  1  0.53890126  0.67569121  0.44054174  1
  O  O281  1  0.54836636  0.69422484  0.77036656  1
  O  O282  1  0.30158931  0.46859493  0.06221609  1
  O  O283  1  0.30178267  0.46948305  0.39512138  1
  O  O284  1  0.30818246  0.45499402  0.72742264  1
  O  O285  1  0.32427676  0.95806812  0.06370888  1
  O  O286  1  0.28683558  0.97494177  0.39902413  1
  O  O287  1  0.29345972  0.97725972  0.72921003  1
  O  O288  1  0.80122651  0.47353693  0.06465799  1
  O  O289  1  0.79966450  0.46731773  0.39568418  1
  O  O290  1  0.80385883  0.46901548  0.72899261  1
  O  O291  1  0.80651979  0.97615030  0.07024120  1
  O  O292  1  0.80232702  0.96596644  0.39492336  1
  O  O293  1  0.79723338  0.96858642  0.72650362  1
  O  O294  1  0.46978165  0.30171707  0.22930952  1
  O  O295  1  0.47456876  0.30472022  0.56475765  1
  O  O296  1  0.47065899  0.30462102  0.89770347  1
  O  O297  1  0.47569735  0.79616706  0.22845330  1
  O  O298  1  0.46952998  0.80652915  0.56338008  1
  O  O299  1  0.46810412  0.79936486  0.90396951  1
  O  O300  1  0.97153892  0.30411161  0.23045789  1
  O  O301  1  0.96922349  0.29530693  0.56467358  1
  O  O302  1  0.96234801  0.30862623  0.89629947  1
  O  O303  1  0.95988143  0.80064752  0.22653871  1
  O  O304  1  0.96925217  0.79443286  0.56024924  1
  O  O305  1  0.97705442  0.79146303  0.89608721  1
  O  O306  1  0.16986848  0.03856791  0.27130848  1
  O  O307  1  0.19582020  0.02895794  0.60215998  1
  O  O308  1  0.20950885  0.03111109  0.93280073  1
  O  O309  1  0.20108172  0.52973396  0.27127568  1
  O  O310  1  0.20500528  0.53587757  0.60302920  1
  O  O311  1  0.20519983  0.53435669  0.94348679  1
  O  O312  1  0.70236232  0.03873614  0.27232519  1
  O  O313  1  0.69749400  0.02548441  0.59931901  1
  O  O314  1  0.68127437  0.02965607  0.93169367  1
  O  O315  1  0.70618515  0.52491659  0.26834996  1
  O  O316  1  0.70556863  0.52802328  0.60480076  1
  O  O317  1  0.70066710  0.53262200  0.93588485  1
  O  O318  1  0.06916392  0.09031140  0.03764231  1
  O  O319  1  0.07815303  0.08626130  0.37134893  1
  O  O320  1  0.08773944  0.09086513  0.70201485  1
  O  O321  1  0.08882775  0.59144287  0.03904422  1
  O  O322  1  0.08131001  0.58295964  0.36840668  1
  O  O323  1  0.09258507  0.60317298  0.72062510  1
  O  O324  1  0.58957852  0.08939487  0.03874766  1
  O  O325  1  0.58385598  0.08955194  0.37209305  1
  O  O326  1  0.58136816  0.08681492  0.69989696  1
  O  O327  1  0.58879472  0.59461006  0.04116960  1
  O  O328  1  0.58928306  0.57111911  0.36455583  1
  O  O329  1  0.59549855  0.58699808  0.69259997  1
  O  O330  1  0.41073534  0.41135064  0.12805633  1
  O  O331  1  0.41646491  0.42089777  0.46328128  1
  O  O332  1  0.41778022  0.41059918  0.80305360  1
  O  O333  1  0.42036553  0.90003705  0.14020354  1
  O  O334  1  0.40004432  0.92116514  0.45875399  1
  O  O335  1  0.41351941  0.93407582  0.79065850  1
  O  O336  1  0.90962298  0.41321672  0.12804116  1
  O  O337  1  0.90996302  0.41054306  0.45752026  1
  O  O338  1  0.91147127  0.41022618  0.79678384  1
  O  O339  1  0.91752315  0.91838538  0.13181635  1
  O  O340  1  0.91538409  0.91520449  0.46347716  1
  O  O341  1  0.90935859  0.91210826  0.78914494  1
  O  O342  1  0.41510306  0.41291919  0.29542832  1
  O  O343  1  0.42153095  0.41811265  0.62967642  1
  O  O344  1  0.41525377  0.41514196  0.96686034  1
  O  O345  1  0.40363317  0.89417887  0.28884312  1
  O  O346  1  0.41449478  0.91833515  0.62547299  1
  O  O347  1  0.41314120  0.90847262  0.96685962  1
  O  O348  1  0.92111001  0.41708523  0.29871153  1
  O  O349  1  0.90923847  0.40402631  0.62514422  1
  O  O350  1  0.91474004  0.42104938  0.96572684  1
  O  O351  1  0.91353706  0.91281220  0.30067440  1
  O  O352  1  0.91205038  0.90571949  0.61985855  1
  O  O353  1  0.91928059  0.90361396  0.95369528  1
  O  O354  1  0.07140517  0.08587946  0.18757606  1
  O  O355  1  0.08068283  0.08025920  0.53833154  1
  O  O356  1  0.10341377  0.09739243  0.87943233  1
  O  O357  1  0.08863303  0.58313658  0.20819136  1
  O  O358  1  0.09330474  0.59013552  0.53754988  1
  O  O359  1  0.09134376  0.58583068  0.87953885  1
  O  O360  1  0.58888289  0.08549269  0.19945218  1
  O  O361  1  0.58657806  0.08300013  0.53783799  1
  O  O362  1  0.58077338  0.08943092  0.85966512  1
  O  O363  1  0.58889673  0.56937397  0.19978182  1
  O  O364  1  0.58854904  0.57455089  0.53686404  1
  O  O365  1  0.59118011  0.58932442  0.86874219  1
  O  O366  1  0.12855079  0.22155995  0.05808827  1
  O  O367  1  0.13294393  0.21924144  0.38869067  1
  O  O368  1  0.13301667  0.22584626  0.72009002  1
  O  O369  1  0.13947348  0.72614147  0.05991664  1
  O  O370  1  0.13718808  0.71700039  0.39301999  1
  O  O371  1  0.13409878  0.73517262  0.72654817  1
  O  O372  1  0.64004335  0.22450983  0.05915595  1
  O  O373  1  0.63766236  0.22305526  0.39373417  1
  O  O374  1  0.63564628  0.21966216  0.71764031  1
  O  O375  1  0.63996077  0.72758030  0.06012916  1
  O  O376  1  0.63553561  0.70852701  0.38814633  1
  O  O377  1  0.65029410  0.72283292  0.72189983  1
  O  O378  1  0.27541909  0.35895586  0.10396303  1
  O  O379  1  0.28365218  0.36145563  0.43959030  1
  O  O380  1  0.28392396  0.35681360  0.78313660  1
  O  O381  1  0.28040538  0.86198793  0.11129928  1
  O  O382  1  0.27012279  0.86616943  0.44374598  1
  O  O383  1  0.28632439  0.86461821  0.77125156  1
  O  O384  1  0.77441719  0.36596114  0.10772144  1
  O  O385  1  0.77732932  0.36154344  0.44317047  1
  O  O386  1  0.77525181  0.36267913  0.77222158  1
  O  O387  1  0.78461035  0.86613607  0.11300866  1
  O  O388  1  0.78180874  0.85818704  0.44089923  1
  O  O389  1  0.77703984  0.86806291  0.77957736  1
  O  O390  1  0.35969434  0.27870249  0.27136060  1
  O  O391  1  0.36676103  0.28579758  0.61141067  1
  O  O392  1  0.36206114  0.28015680  0.94028832  1
  O  O393  1  0.36472427  0.75818931  0.26120755  1
  O  O394  1  0.36598036  0.78598827  0.61296739  1
  O  O395  1  0.35672431  0.77361997  0.94331562  1
  O  O396  1  0.86407982  0.28405615  0.27655862  1
  O  O397  1  0.85797036  0.27076957  0.60403955  1
  O  O398  1  0.86078397  0.28852801  0.94932935  1
  O  O399  1  0.85624476  0.77910294  0.27642266  1
  O  O400  1  0.86137035  0.77274475  0.60504033  1
  O  O401  1  0.86888723  0.77144359  0.94042275  1
  O  O402  1  0.20951142  0.14084979  0.22811562  1
  O  O403  1  0.21195830  0.13200828  0.54916646  1
  O  O404  1  0.23467490  0.13681434  0.88628663  1
  O  O405  1  0.22085427  0.64134709  0.22963017  1
  O  O406  1  0.22623633  0.64097980  0.55453539  1
  O  O407  1  0.22299290  0.63629092  0.89178161  1
  O  O408  1  0.72211165  0.14166498  0.22161080  1
  O  O409  1  0.71981230  0.13698763  0.55885157  1
  O  O410  1  0.71862632  0.13822341  0.89401663  1
  O  O411  1  0.71951272  0.63558915  0.22561835  1
  O  O412  1  0.72003113  0.63601279  0.55836270  1
  O  O413  1  0.72632948  0.64030627  0.89250022  1
  O  O414  1  0.49268219  0.33276942  0.02992324  1
  O  O415  1  0.49018489  0.33205677  0.36197122  1
  O  O416  1  0.49813458  0.33968271  0.69858838  1
  O  O417  1  0.48504793  0.82803687  0.03695486  1
  O  O418  1  0.48871652  0.81923389  0.35821427  1
  O  O419  1  0.49769873  0.84778185  0.69889613  1
  O  O420  1  0.99320837  0.34098417  0.03094291  1
  O  O421  1  0.99535590  0.33536674  0.36457356  1
  O  O422  1  0.98621317  0.32683715  0.69685308  1
  O  O423  1  0.99633409  0.83109154  0.03040581  1
  O  O424  1  0.98912730  0.82777521  0.36087413  1
  O  O425  1  0.99037562  0.83192476  0.69403829  1
  O  O426  1  0.16512736  0.00782775  0.14136748  1
  O  O427  1  0.15335429  0.00089119  0.46598340  1
  O  O428  1  0.16714427  0.01025813  0.79876613  1
  O  O429  1  0.16991448  0.51106876  0.13886997  1
  O  O430  1  0.16691166  0.50907019  0.46840853  1
  O  O431  1  0.16606215  0.50342498  0.80845253  1
  O  O432  1  0.67274488  0.00846105  0.13776254  1
  O  O433  1  0.66614167  0.00804197  0.46719225  1
  O  O434  1  0.66464580  0.00974729  0.80138825  1
  O  O435  1  0.67528428  0.50536930  0.13442555  1
  O  O436  1  0.67279481  0.50348706  0.47124118  1
  O  O437  1  0.67040256  0.51012598  0.80296617  1
  O  O438  1  0.00338397  0.16422354  0.30045118  1
  O  O439  1  0.00380702  0.16370021  0.63358669  1
  O  O440  1  -0.00461017  0.17156900  0.97080846  1
  O  O441  1  0.00620602  0.66428642  0.30287907  1
  O  O442  1  0.00964722  0.66769969  0.63678797  1
  O  O443  1  0.01061833  0.66792381  0.96930137  1
  O  O444  1  0.50763777  0.16839500  0.30402355  1
  O  O445  1  0.50302743  0.16794507  0.63486773  1
  O  O446  1  0.51097795  0.16807717  0.97008352  1
  O  O447  1  0.50302625  0.64799056  0.30521841  1
  O  O448  1  0.51709790  0.67393183  0.63720692  1
  O  O449  1  0.51213258  0.66905973  0.96649234  1
  O  O450  1  0.33206709  0.48852340  0.19495417  1
  O  O451  1  0.33298899  0.49236566  0.52922262  1
  O  O452  1  0.33471155  0.49076631  0.86172062  1
  O  O453  1  0.34458919  0.99260613  0.19677422  1
  O  O454  1  0.32332068  0.99697741  0.53244502  1
  O  O455  1  0.33217583  0.99354357  0.86415336  1
  O  O456  1  0.83641625  0.49381251  0.19837850  1
  O  O457  1  0.83617278  0.49122348  0.53003573  1
  O  O458  1  0.83274795  0.49203821  0.86169209  1
  O  O459  1  0.84183088  0.99583651  0.20336735  1
  O  O460  1  0.83329866  0.98991195  0.52851598  1
  O  O461  1  0.84145396  1.00043746  0.86172738  1
