# generated using pymatgen
data_Na31Fe20(SO4)36
_symmetry_space_group_name_H-M   'P 1'
_cell_length_a   18.08526039
_cell_length_b   18.09089482
_cell_length_c   19.71162375
_cell_angle_alpha   107.59139706
_cell_angle_beta   107.55634190
_cell_angle_gamma   90.74943733
_symmetry_Int_Tables_number   1
_chemical_formula_structural   Na31Fe20(SO4)36
_chemical_formula_sum   'Na62 Fe40 S72 O288'
_cell_volume   5822.59341643
_cell_formula_units_Z   2
loop_
 _symmetry_equiv_pos_site_id
 _symmetry_equiv_pos_as_xyz
  1  'x, y, z'
loop_
 _atom_site_type_symbol
 _atom_site_label
 _atom_site_symmetry_multiplicity
 _atom_site_fract_x
 _atom_site_fract_y
 _atom_site_fract_z
 _atom_site_occupancy
  Na  Na0  1  0.13364003  0.36442951  0.08562642  1
  Na  Na1  1  0.12780810  0.37544667  0.42089453  1
  Na  Na2  1  0.12817216  0.36983481  0.74917810  1
  Na  Na3  1  0.13033272  0.87475226  0.08041786  1
  Na  Na4  1  0.13888707  0.86663368  0.41649015  1
  Na  Na5  1  0.12772926  0.85377297  0.73719224  1
  Na  Na6  1  0.63663239  0.35745970  0.07424062  1
  Na  Na7  1  0.63589819  0.36909395  0.42641319  1
  Na  Na8  1  0.63501928  0.37663781  0.75430318  1
  Na  Na9  1  0.65053567  0.85959288  0.09270132  1
  Na  Na10  1  0.63417930  0.85411956  0.40710562  1
  Na  Na11  1  0.64282038  0.86554506  0.75143345  1
  Na  Na12  1  0.36563203  0.12382392  0.24336020  1
  Na  Na13  1  0.37452420  0.13149229  0.58587628  1
  Na  Na14  1  0.36590526  0.12938346  0.91927480  1
  Na  Na15  1  0.36670936  0.63205078  0.24843202  1
  Na  Na16  1  0.37534596  0.63933090  0.58958700  1
  Na  Na17  1  0.36025524  0.63668498  0.91023959  1
  Na  Na18  1  0.86113700  0.12617412  0.24693094  1
  Na  Na19  1  0.86487304  0.12884867  0.58051257  1
  Na  Na20  1  0.84741092  0.12631458  0.90940040  1
  Na  Na21  1  0.83624614  0.69497956  0.27553717  1
  Na  Na22  1  0.85914548  0.63645876  0.57433440  1
  Na  Na23  1  0.87013159  0.64825088  0.92859534  1
  Na  Na24  1  0.49538879  0.54824867  0.43108174  1
  Na  Na25  1  0.94254783  0.00476574  0.06431296  1
  Na  Na26  1  0.50862477  -0.01716381  0.42777565  1
  Na  Na27  1  0.95698385  0.51801309  0.62386059  1
  Na  Na28  1  0.49310738  0.50779151  0.07485133  1
  Na  Na29  1  0.48665392  -0.00165341  0.09320838  1
  Na  Na30  1  0.98707900  0.51256046  0.08868974  1
  Na  Na31  1  0.54795288  -0.01500059  0.69172841  1
  Na  Na32  1  0.98275207  0.00664565  0.75010915  1
  Na  Na33  1  0.01864214  0.96962102  0.24125556  1
  Na  Na34  1  0.51334506  0.48876712  0.25005783  1
  Na  Na35  1  -0.00688534  0.87426585  0.49580947  1
  Na  Na36  1  0.52182032  0.98882396  0.90651557  1
  Na  Na37  1  0.02489976  0.98346925  0.92916018  1
  Na  Na38  1  0.51543728  0.50379279  0.59759255  1
  Na  Na39  1  -0.00573176  0.51455685  0.89981463  1
  Na  Na40  1  -0.03563118  0.53596595  0.29208409  1
  Na  Na41  1  0.51327222  0.50062024  0.89517804  1
  Na  Na42  1  0.24161793  0.24440786  0.34042516  1
  Na  Na43  1  0.74832651  0.74822899  0.65755013  1
  Na  Na44  1  0.24799217  0.74682655  0.33668709  1
  Na  Na45  1  0.75711638  0.25802403  0.33018768  1
  Na  Na46  1  0.23860624  0.73256399  0.68557499  1
  Na  Na47  1  0.74342335  0.24756086  0.67462624  1
  Na  Na48  1  0.24196867  0.24576156  0.67236585  1
  Na  Na49  1  0.25779682  0.75930094  -0.01244167  1
  Na  Na50  1  0.76965854  0.76820633  -0.00065153  1
  Na  Na51  1  0.23661381  0.23056508  0.00916074  1
  Na  Na52  1  0.75636671  0.26076525  0.50264010  1
  Na  Na53  1  0.76676414  0.76031035  0.48021846  1
  Na  Na54  1  0.25167312  0.75005880  0.16223172  1
  Na  Na55  1  0.23687140  0.23119676  0.17315763  1
  Na  Na56  1  0.24272231  0.24039355  0.83973839  1
  Na  Na57  1  0.76484584  0.76752304  0.82938932  1
  Na  Na58  1  0.23875626  0.73764044  0.51163286  1
  Na  Na59  1  0.24426418  0.24241962  0.50592726  1
  Na  Na60  1  0.73453328  0.23651758  0.84698116  1
  Na  Na61  1  0.75579290  0.25819018  0.15598654  1
  Fe  Fe62  1  0.46988574  0.80477956  0.12106729  1
  Fe  Fe63  1  0.46373808  0.30956159  0.45248469  1
  Fe  Fe64  1  0.96498519  0.30764657  0.78443740  1
  Fe  Fe65  1  0.46493764  0.30465942  0.11505477  1
  Fe  Fe66  1  0.96156349  0.31162513  0.12100416  1
  Fe  Fe67  1  0.46297911  0.30885050  0.78246393  1
  Fe  Fe68  1  0.46770774  0.80298203  0.78516378  1
  Fe  Fe69  1  0.47307071  0.80036461  0.46012018  1
  Fe  Fe70  1  0.96523679  0.80819301  0.78546126  1
  Fe  Fe71  1  0.96277347  0.30789541  0.45545293  1
  Fe  Fe72  1  0.19190450  0.53348003  0.04566623  1
  Fe  Fe73  1  0.68241333  0.03669784  0.37506155  1
  Fe  Fe74  1  0.19690042  0.03370651  0.38096331  1
  Fe  Fe75  1  0.69540289  0.53490003  0.38944554  1
  Fe  Fe76  1  0.18532966  0.53797465  0.70877813  1
  Fe  Fe77  1  0.19313396  0.03156070  0.71108454  1
  Fe  Fe78  1  0.69435011  0.53726069  0.05170200  1
  Fe  Fe79  1  0.18863307  0.53511293  0.37949606  1
  Fe  Fe80  1  0.69688898  0.03255013  0.04709147  1
  Fe  Fe81  1  0.70303318  0.53341813  0.71343626  1
  Fe  Fe82  1  0.53336531  0.19651714  0.21566737  1
  Fe  Fe83  1  0.03563607  0.69239872  0.88067178  1
  Fe  Fe84  1  0.54240740  0.69075846  0.21576954  1
  Fe  Fe85  1  0.53400786  0.19312054  0.54799279  1
  Fe  Fe86  1  0.03216747  0.18535811  0.54337458  1
  Fe  Fe87  1  0.02743861  0.70956034  0.21341077  1
  Fe  Fe88  1  0.03294233  0.19005786  0.21129858  1
  Fe  Fe89  1  0.03222360  0.19231416  0.88175723  1
  Fe  Fe90  1  0.53377484  0.19196453  0.87891559  1
  Fe  Fe91  1  0.53668393  0.69035711  0.88054730  1
  Fe  Fe92  1  0.80423995  0.46730410  0.28803986  1
  Fe  Fe93  1  0.82591495  0.95058672  0.29863880  1
  Fe  Fe94  1  0.31123968  0.96414083  0.28822894  1
  Fe  Fe95  1  0.79656562  0.97121125  0.62339773  1
  Fe  Fe96  1  0.32133329  0.96852199  0.62819769  1
  Fe  Fe97  1  0.30557266  0.46577705  0.28442803  1
  Fe  Fe98  1  0.80713581  0.46502577  0.95242360  1
  Fe  Fe99  1  0.30722252  0.46569851  0.61807801  1
  Fe  Fe100  1  0.30074733  0.96506380  0.95579469  1
  Fe  Fe101  1  0.30431463  0.46325264  0.94820560  1
  S  S102  1  0.36012428  0.14040137  0.08327160  1
  S  S103  1  0.36062958  0.14156568  0.41537798  1
  S  S104  1  0.35718313  0.14444507  0.75139539  1
  S  S105  1  0.36311485  0.63618475  0.08204041  1
  S  S106  1  0.35603991  0.63978146  0.41612707  1
  S  S107  1  0.36330739  0.63556897  0.74999117  1
  S  S108  1  0.85651488  0.14763346  0.08600456  1
  S  S109  1  0.85459891  0.13975119  0.41557092  1
  S  S110  1  0.85818750  0.14341549  0.75027808  1
  S  S111  1  0.86044013  0.63811412  0.08473823  1
  S  S112  1  0.85795189  0.63844363  0.41465819  1
  S  S113  1  0.86277465  0.64208393  0.75292476  1
  S  S114  1  0.14075494  0.35847622  0.24812065  1
  S  S115  1  0.14083147  0.35707675  0.58236785  1
  S  S116  1  0.14085616  0.35674266  0.91764660  1
  S  S117  1  0.14839152  0.85897063  0.25003209  1
  S  S118  1  0.16295254  0.85732469  0.59173797  1
  S  S119  1  0.14109513  0.85597458  0.91390291  1
  S  S120  1  0.63741507  0.36145525  0.24980799  1
  S  S121  1  0.63671689  0.36027847  0.58652090  1
  S  S122  1  0.63574304  0.36547453  0.91559475  1
  S  S123  1  0.63955067  0.86080892  0.25057714  1
  S  S124  1  0.64215059  0.85766118  0.57810536  1
  S  S125  1  0.63898195  0.85741481  0.92211118  1
  S  S126  1  0.05731398  0.16880287  0.04335738  1
  S  S127  1  0.06921596  0.17089606  0.37569276  1
  S  S128  1  0.06900044  0.16995713  0.71051261  1
  S  S129  1  0.06835022  0.66249557  0.04357876  1
  S  S130  1  0.07596092  0.67554892  0.37282967  1
  S  S131  1  0.06000335  0.66757764  0.70795217  1
  S  S132  1  0.56479835  0.16951639  0.04242915  1
  S  S133  1  0.56465904  0.17397171  0.37758554  1
  S  S134  1  0.56858213  0.18181818  0.71480923  1
  S  S135  1  0.56694759  0.66443757  0.04049004  1
  S  S136  1  0.56489100  0.66454193  0.37230428  1
  S  S137  1  0.57290325  0.67047015  0.71357653  1
  S  S138  1  0.33118462  0.43022398  0.12104814  1
  S  S139  1  0.33061102  0.43411907  0.45624918  1
  S  S140  1  0.32673823  0.43190915  0.78924446  1
  S  S141  1  0.33495470  0.92737860  0.12540560  1
  S  S142  1  0.33653366  0.93299376  0.45957825  1
  S  S143  1  0.33113197  0.93243202  0.79427548  1
  S  S144  1  0.82682346  0.43199354  0.12444524  1
  S  S145  1  0.82731669  0.43050922  0.45622128  1
  S  S146  1  0.83184010  0.43307479  0.79451497  1
  S  S147  1  0.83166311  0.93857938  0.13106461  1
  S  S148  1  0.81606451  0.93859649  0.45480496  1
  S  S149  1  0.83360797  0.93683064  0.79102437  1
  S  S150  1  0.43130095  0.33363365  0.29048754  1
  S  S151  1  0.42924219  0.33122403  0.62189284  1
  S  S152  1  0.43191920  0.33092806  0.95514099  1
  S  S153  1  0.43231807  0.82264185  0.29088227  1
  S  S154  1  0.43786977  0.82929442  0.62704506  1
  S  S155  1  0.43200915  0.82814308  0.95956178  1
  S  S156  1  0.93214891  0.32968416  0.29070835  1
  S  S157  1  0.93429350  0.32259471  0.62079215  1
  S  S158  1  0.93270140  0.33029739  0.95758545  1
  S  S159  1  0.95028630  0.85345871  0.30676615  1
  S  S160  1  0.92186112  0.83560088  0.62397951  1
  S  S161  1  0.94337208  0.83228346  0.95678026  1
  S  S162  1  0.17249645  0.06536872  0.21175138  1
  S  S163  1  0.17894396  0.07057397  0.54564852  1
  S  S164  1  0.16885173  0.06522651  0.87393977  1
  S  S165  1  0.17052686  0.56631628  0.20697401  1
  S  S166  1  0.17393184  0.56845819  0.54704519  1
  S  S167  1  0.17119516  0.56540623  0.87669918  1
  S  S168  1  0.66435639  0.07341023  0.20826201  1
  S  S169  1  0.66729689  0.07018544  0.54192108  1
  S  S170  1  0.65504636  0.06306111  0.87251882  1
  S  S171  1  0.66341497  0.56052297  0.20518669  1
  S  S172  1  0.66774766  0.56032745  0.54598608  1
  S  S173  1  0.67791078  0.57219750  0.88034518  1
  O  O174  1  0.37301072  0.21696382  0.06962125  1
  O  O175  1  0.36961780  0.22025968  0.40635703  1
  O  O176  1  0.36432856  0.22342088  0.74271381  1
  O  O177  1  0.37185449  0.71554147  0.07547393  1
  O  O178  1  0.36872399  0.71904300  0.40986829  1
  O  O179  1  0.37354864  0.71439714  0.74169289  1
  O  O180  1  0.86483831  0.23072011  0.08834686  1
  O  O181  1  0.86838626  0.21835936  0.40656964  1
  O  O182  1  0.87361936  0.21966476  0.73839057  1
  O  O183  1  0.86477592  0.70717362  0.06234615  1
  O  O184  1  0.86190025  0.71508372  0.40399880  1
  O  O185  1  0.86841675  0.72458428  0.75012489  1
  O  O186  1  0.28313084  0.13663277  0.09231139  1
  O  O187  1  0.28095684  0.13449736  0.42285619  1
  O  O188  1  0.27590754  0.13297287  0.75419476  1
  O  O189  1  0.28510094  0.62633098  0.09188603  1
  O  O190  1  0.27432407  0.63197891  0.41847120  1
  O  O191  1  0.28382425  0.62662044  0.75649494  1
  O  O192  1  0.77871990  0.13525855  0.09544911  1
  O  O193  1  0.77643287  0.13739601  0.42647625  1
  O  O194  1  0.78322643  0.14144868  0.76297233  1
  O  O195  1  0.78328610  0.62440317  0.09425808  1
  O  O196  1  0.77598110  0.62520956  0.42032117  1
  O  O197  1  0.78381994  0.63229634  0.76204436  1
  O  O198  1  0.13298064  0.27721137  0.25223263  1
  O  O199  1  0.13386706  0.27750340  0.59003274  1
  O  O200  1  0.13215337  0.27707059  0.92493188  1
  O  O201  1  0.13438054  0.77765360  0.25264605  1
  O  O202  1  0.15404613  0.78268716  0.60426940  1
  O  O203  1  0.13341850  0.77584425  0.92113375  1
  O  O204  1  0.62838414  0.28387210  0.26047609  1
  O  O205  1  0.62254848  0.28346043  0.59872088  1
  O  O206  1  0.62483246  0.28701671  0.92266520  1
  O  O207  1  0.63149810  0.78209453  0.25946650  1
  O  O208  1  0.63926236  0.77737384  0.57805957  1
  O  O209  1  0.62505200  0.78041390  0.93367204  1
  O  O210  1  0.21853805  0.36788396  0.23669116  1
  O  O211  1  0.21864622  0.36642076  0.57142076  1
  O  O212  1  0.21964135  0.36513796  0.90860071  1
  O  O213  1  0.23096149  0.86471130  0.24853144  1
  O  O214  1  0.24674523  0.87263539  0.59602799  1
  O  O215  1  0.22229117  0.86645522  0.91129533  1
  O  O216  1  0.71624076  0.36841047  0.24112878  1
  O  O217  1  0.71215415  0.36314939  0.57509727  1
  O  O218  1  0.71380916  0.37326424  0.90571930  1
  O  O219  1  0.71767081  0.87710557  0.24584112  1
  O  O220  1  0.72192329  0.87691664  0.56960614  1
  O  O221  1  0.71567173  0.86192859  0.91255476  1
  O  O222  1  0.42084215  0.13422985  0.15184240  1
  O  O223  1  0.41832998  0.13393328  0.48407698  1
  O  O224  1  0.41258329  0.13991666  0.82203768  1
  O  O225  1  0.42398184  0.62584933  0.14787705  1
  O  O226  1  0.41111700  0.62759794  0.48204316  1
  O  O227  1  0.42168494  0.62843342  0.81904120  1
  O  O228  1  0.91704133  0.13486719  0.15271090  1
  O  O229  1  0.91445588  0.13169297  0.48300806  1
  O  O230  1  0.92140638  0.13136982  0.81425829  1
  O  O231  1  0.92074070  0.64295728  0.15822259  1
  O  O232  1  0.91448736  0.62942658  0.48049397  1
  O  O233  1  0.92071524  0.63324899  0.82216767  1
  O  O234  1  0.36824269  0.07779750  0.01724010  1
  O  O235  1  0.36865015  0.08205519  0.34805359  1
  O  O236  1  0.36994626  0.08666762  0.68534753  1
  O  O237  1  0.36931054  0.57743733  0.01253967  1
  O  O238  1  0.36421515  0.58111728  0.34613906  1
  O  O239  1  0.37280918  0.57669588  0.68279832  1
  O  O240  1  0.86462225  0.09418230  0.01721492  1
  O  O241  1  0.85714829  0.07939948  0.34687552  1
  O  O242  1  0.86097156  0.08115879  0.67992402  1
  O  O243  1  0.87645412  0.56936002  0.02622302  1
  O  O244  1  0.86279178  0.57783739  0.34313863  1
  O  O245  1  0.87115966  0.58790924  0.68505078  1
  O  O246  1  0.08005022  0.36923081  0.18298236  1
  O  O247  1  0.07988532  0.36371956  0.51526261  1
  O  O248  1  0.08181572  0.36579557  0.85043902  1
  O  O249  1  0.09429626  0.87268301  0.18477913  1
  O  O250  1  0.11502040  0.85841674  0.51782185  1
  O  O251  1  0.08553340  0.86192574  0.84241407  1
  O  O252  1  0.57829756  0.36770444  0.18046067  1
  O  O253  1  0.57427609  0.36871693  0.51942272  1
  O  O254  1  0.57566177  0.37736802  0.84927286  1
  O  O255  1  0.58186852  0.86241916  0.17821859  1
  O  O256  1  0.58349531  0.86785194  0.50939909  1
  O  O257  1  0.57762108  0.86680080  0.85503737  1
  O  O258  1  0.13742451  0.41420763  0.31940578  1
  O  O259  1  0.13562190  0.41573579  0.65162332  1
  O  O260  1  0.13486839  0.41469036  0.98673289  1
  O  O261  1  0.14206778  0.91551698  0.32079641  1
  O  O262  1  0.14243395  0.91971992  0.65179650  1
  O  O263  1  0.12761584  0.91391348  0.97780927  1
  O  O264  1  0.62751306  0.42216130  0.31569437  1
  O  O265  1  0.62991877  0.42262713  0.65378584  1
  O  O266  1  0.62879578  0.42521311  0.98390115  1
  O  O267  1  0.62284281  0.91884328  0.31466983  1
  O  O268  1  0.63428304  0.91273790  0.64653713  1
  O  O269  1  0.63189408  0.91846331  0.99014584  1
  O  O270  1  0.02320800  0.20865523  0.10514760  1
  O  O271  1  0.03161899  0.19690574  0.43604479  1
  O  O272  1  0.03308285  0.20162907  0.77189438  1
  O  O273  1  0.03547015  0.68792084  0.10564792  1
  O  O274  1  0.04248208  0.69557732  0.43237937  1
  O  O275  1  0.03018892  0.70122600  0.77413197  1
  O  O276  1  0.53055271  0.20298576  0.10518613  1
  O  O277  1  0.52891307  0.20580095  0.43923456  1
  O  O278  1  0.52573378  0.21055644  0.77269427  1
  O  O279  1  0.53170438  0.69450595  0.10266358  1
  O  O280  1  0.52469867  0.69096785  0.42883679  1
  O  O281  1  0.53989042  0.70245851  0.77872203  1
  O  O282  1  0.30125019  0.46608851  0.05987317  1
  O  O283  1  0.29922182  0.46886600  0.39408760  1
  O  O284  1  0.29802839  0.46573674  0.72724679  1
  O  O285  1  0.31170260  0.96477266  0.06660347  1
  O  O286  1  0.30743639  0.97366024  0.40094186  1
  O  O287  1  0.30882933  0.97788449  0.73963971  1
  O  O288  1  0.79289044  0.46369774  0.06084075  1
  O  O289  1  0.79283681  0.46090397  0.39022420  1
  O  O290  1  0.80097299  0.46729683  0.73460134  1
  O  O291  1  0.79928809  0.98036940  0.07547313  1
  O  O292  1  0.78083833  0.97852933  0.39645057  1
  O  O293  1  0.80745648  0.96906836  0.72635605  1
  O  O294  1  0.46653589  0.30258679  0.22847892  1
  O  O295  1  0.46224422  0.29626576  0.55937610  1
  O  O296  1  0.46699600  0.30073994  0.89375732  1
  O  O297  1  0.46876053  0.79438696  0.22965949  1
  O  O298  1  0.47271903  0.80585116  0.56628359  1
  O  O299  1  0.46393345  0.79774059  0.89567005  1
  O  O300  1  0.97262559  0.30115814  0.23246141  1
  O  O301  1  0.97408451  0.28854261  0.56132917  1
  O  O302  1  0.97070865  0.30038917  0.89737155  1
  O  O303  1  0.97852721  0.81226659  0.24187881  1
  O  O304  1  0.95444607  0.81560409  0.56322273  1
  O  O305  1  0.97569991  0.79450128  0.89197254  1
  O  O306  1  0.20421868  0.02985537  0.27516116  1
  O  O307  1  0.20825598  0.03176028  0.60447777  1
  O  O308  1  0.19925431  0.03105614  0.93432697  1
  O  O309  1  0.19972916  0.52822683  0.26706571  1
  O  O310  1  0.20744297  0.52525177  0.60463496  1
  O  O311  1  0.20008021  0.52458230  0.93581391  1
  O  O312  1  0.68599081  0.04007009  0.27023702  1
  O  O313  1  0.70019313  0.03398188  0.60118880  1
  O  O314  1  0.67702149  0.03603297  0.93927816  1
  O  O315  1  0.69417155  0.52675450  0.26740980  1
  O  O316  1  0.70394670  0.52693374  0.60628876  1
  O  O317  1  0.70675387  0.53485753  0.94138135  1
  O  O318  1  0.06427376  0.08798788  0.04149639  1
  O  O319  1  0.09275766  0.09155602  0.36981485  1
  O  O320  1  0.08965684  0.09073829  0.70994514  1
  O  O321  1  0.08289725  0.57734112  0.03159317  1
  O  O322  1  0.09287865  0.59054655  0.35475471  1
  O  O323  1  0.08483091  0.58817536  0.71031080  1
  O  O324  1  0.57828539  0.08727479  0.03712041  1
  O  O325  1  0.58034624  0.09291374  0.37428481  1
  O  O326  1  0.59354221  0.10651324  0.71556217  1
  O  O327  1  0.58033440  0.58028638  0.03398815  1
  O  O328  1  0.58315128  0.58195140  0.36834713  1
  O  O329  1  0.60057129  0.59320440  0.71540638  1
  O  O330  1  0.41428746  0.41502295  0.12696682  1
  O  O331  1  0.41284771  0.41792197  0.46141958  1
  O  O332  1  0.40811957  0.41202275  0.79545193  1
  O  O333  1  0.41725198  0.90816665  0.13441734  1
  O  O334  1  0.41549023  0.91077043  0.45964239  1
  O  O335  1  0.41214815  0.91106646  0.80110609  1
  O  O336  1  0.90913590  0.41727499  0.12699568  1
  O  O337  1  0.90428351  0.40390768  0.45330670  1
  O  O338  1  0.91284415  0.41178296  0.79765466  1
  O  O339  1  0.91398157  0.93110565  0.13517948  1
  O  O340  1  0.89551651  0.93124339  0.45417013  1
  O  O341  1  0.91766849  0.91959268  0.80026758  1
  O  O342  1  0.41637279  0.41636689  0.29528509  1
  O  O343  1  0.41068757  0.41095963  0.62079012  1
  O  O344  1  0.41334942  0.41269859  0.95945557  1
  O  O345  1  0.41522482  0.90483443  0.30007828  1
  O  O346  1  0.42183854  0.91309034  0.63959157  1
  O  O347  1  0.41348807  0.91002261  0.96653050  1
  O  O348  1  0.91080191  0.40932097  0.29229200  1
  O  O349  1  0.91380416  0.39893797  0.61824408  1
  O  O350  1  0.91602649  0.41241567  0.96263863  1
  O  O351  1  0.94733665  0.93776048  0.31011618  1
  O  O352  1  0.89794434  0.91854209  0.63643678  1
  O  O353  1  0.93112444  0.91242170  0.95529772  1
  O  O354  1  0.09303366  0.08808662  0.21282212  1
  O  O355  1  0.10063958  0.09372481  0.54455731  1
  O  O356  1  0.08653160  0.08403975  0.86970552  1
  O  O357  1  0.09016077  0.58621170  0.20026525  1
  O  O358  1  0.09897495  0.58943501  0.55152980  1
  O  O359  1  0.09107554  0.58439147  0.87517786  1
  O  O360  1  0.58140930  0.09290586  0.19549452  1
  O  O361  1  0.58616989  0.08865147  0.54082308  1
  O  O362  1  0.57194663  0.08587375  0.86319194  1
  O  O363  1  0.57885211  0.57320991  0.19830542  1
  O  O364  1  0.58581653  0.57087645  0.54235635  1
  O  O365  1  0.59563232  0.58741254  0.87546864  1
  O  O366  1  0.13318487  0.21564273  0.06025779  1
  O  O367  1  0.13824233  0.22798421  0.39380506  1
  O  O368  1  0.13916800  0.22417399  0.72604350  1
  O  O369  1  0.14083146  0.71136528  0.05792845  1
  O  O370  1  0.14876738  0.72629894  0.38838403  1
  O  O371  1  0.12790101  0.71947336  0.71738737  1
  O  O372  1  0.63621143  0.21970523  0.05711021  1
  O  O373  1  0.63620382  0.22521189  0.39306501  1
  O  O374  1  0.63578439  0.24086156  0.73422143  1
  O  O375  1  0.63844774  0.71231451  0.05420248  1
  O  O376  1  0.63531823  0.71582489  0.38740183  1
  O  O377  1  0.63939810  0.72696198  0.72546280  1
  O  O378  1  0.28111449  0.35814343  0.10536947  1
  O  O379  1  0.28004753  0.36221246  0.44135006  1
  O  O380  1  0.27403468  0.36238203  0.77670894  1
  O  O381  1  0.28133299  0.85614863  0.10742037  1
  O  O382  1  0.28123344  0.86414698  0.44241028  1
  O  O383  1  0.27508571  0.86334835  0.77163326  1
  O  O384  1  0.77757729  0.36147718  0.11312138  1
  O  O385  1  0.77252236  0.36194426  0.44420846  1
  O  O386  1  0.78037576  0.36355558  0.78479142  1
  O  O387  1  0.78447906  0.86282668  0.10878422  1
  O  O388  1  0.76760424  0.86502893  0.43584319  1
  O  O389  1  0.78283126  0.86281416  0.77091968  1
  O  O390  1  0.35908077  0.28383203  0.27523442  1
  O  O391  1  0.35906495  0.28028048  0.61122522  1
  O  O392  1  0.36177211  0.27943124  0.94213370  1
  O  O393  1  0.36086768  0.76959797  0.27222788  1
  O  O394  1  0.36758046  0.77652298  0.61081177  1
  O  O395  1  0.36320207  0.77577257  0.94789079  1
  O  O396  1  0.86108720  0.27554308  0.27174882  1
  O  O397  1  0.86543912  0.26750631  0.60581246  1
  O  O398  1  0.86185517  0.27886131  0.94127757  1
  O  O399  1  0.86811569  0.82242791  0.29114118  1
  O  O400  1  0.85285535  0.78052157  0.60941123  1
  O  O401  1  0.86807090  0.78460724  0.93974163  1
  O  O402  1  0.22663175  0.13742170  0.23124540  1
  O  O403  1  0.23457114  0.14035158  0.56268641  1
  O  O404  1  0.21960590  0.13824542  0.88906780  1
  O  O405  1  0.22550936  0.63577945  0.22345305  1
  O  O406  1  0.23356424  0.63537541  0.56527731  1
  O  O407  1  0.22522351  0.63536551  0.89644081  1
  O  O408  1  0.71805264  0.14406384  0.22527152  1
  O  O409  1  0.71770754  0.14200605  0.55581630  1
  O  O410  1  0.70802214  0.13171071  0.88475213  1
  O  O411  1  0.70834648  0.63314215  0.21678034  1
  O  O412  1  0.71491584  0.63274654  0.55627585  1
  O  O413  1  0.72807411  0.64475466  0.89826221  1
  O  O414  1  0.49282955  0.33650254  0.02817140  1
  O  O415  1  0.49067669  0.33485590  0.36234660  1
  O  O416  1  0.48972769  0.33806908  0.69485885  1
  O  O417  1  0.49504842  0.83105721  0.03072224  1
  O  O418  1  0.49102857  0.82220567  0.36270734  1
  O  O419  1  0.49784496  0.82910129  0.69924495  1
  O  O420  1  0.99184352  0.33452223  0.03121381  1
  O  O421  1  0.98931905  0.33202408  0.36394996  1
  O  O422  1  0.99327562  0.32743990  0.69504764  1
  O  O423  1  1.00013234  0.83159554  0.02699457  1
  O  O424  1  1.00411526  0.84756316  0.37662844  1
  O  O425  1  0.98362741  0.83839963  0.69635309  1
  O  O426  1  0.16893420  0.00778832  0.14141516  1
  O  O427  1  0.17468621  0.01279689  0.47182961  1
  O  O428  1  0.16509163  0.00759819  0.80009574  1
  O  O429  1  0.16968099  0.50583759  0.13466629  1
  O  O430  1  0.16941872  0.51145500  0.47141234  1
  O  O431  1  0.16894647  0.50814045  0.80352163  1
  O  O432  1  0.66507642  0.01293152  0.13756803  1
  O  O433  1  0.65733963  0.01171047  0.46617954  1
  O  O434  1  0.64963510  -0.00197136  0.80470258  1
  O  O435  1  0.66105184  0.49951753  0.13295361  1
  O  O436  1  0.66547475  0.50195231  0.47096163  1
  O  O437  1  0.67867222  0.51363629  0.80909464  1
  O  O438  1  0.00956408  0.16908037  0.30361904  1
  O  O439  1  0.01004038  0.16499903  0.63743121  1
  O  O440  1  0.00253432  0.17144954  0.97014195  1
  O  O441  1  0.01660309  0.67756026  0.29966637  1
  O  O442  1  -0.00525572  0.65572537  0.63929925  1
  O  O443  1  0.00894647  0.66179694  0.97119779  1
  O  O444  1  0.50547613  0.17266418  0.30541947  1
  O  O445  1  0.50960871  0.17746474  0.64098715  1
  O  O446  1  0.50458511  0.16997577  0.97113708  1
  O  O447  1  0.50760900  0.65751293  0.29604596  1
  O  O448  1  0.50859748  0.65838418  0.64400684  1
  O  O449  1  0.50579727  0.66108158  0.96807410  1
  O  O450  1  0.33313282  0.48943870  0.19355571  1
  O  O451  1  0.33278340  0.49357828  0.52822567  1
  O  O452  1  0.33131070  0.49310129  0.86178861  1
  O  O453  1  0.33513847  0.98539170  0.19829809  1
  O  O454  1  0.34191120  0.99151549  0.53351384  1
  O  O455  1  0.33268088  0.98884922  0.86858020  1
  O  O456  1  0.83144731  0.49317210  0.19668121  1
  O  O457  1  0.83716765  0.49402637  0.52556804  1
  O  O458  1  0.84194259  0.49448823  0.86983472  1
  O  O459  1  0.82837516  0.98825451  0.20659536  1
  O  O460  1  0.81648526  0.99220023  0.53096917  1
  O  O461  1  0.83070261  0.99530815  0.85884998  1
