# generated using pymatgen
data_Na31Fe20(SO4)36
_symmetry_space_group_name_H-M   'P 1'
_cell_length_a   18.07539635
_cell_length_b   18.07061340
_cell_length_c   19.70191842
_cell_angle_alpha   107.56672279
_cell_angle_beta   107.58256729
_cell_angle_gamma   90.74025376
_symmetry_Int_Tables_number   1
_chemical_formula_structural   Na31Fe20(SO4)36
_chemical_formula_sum   'Na62 Fe40 S72 O288'
_cell_volume   5810.09469997
_cell_formula_units_Z   2
loop_
 _symmetry_equiv_pos_site_id
 _symmetry_equiv_pos_as_xyz
  1  'x, y, z'
loop_
 _atom_site_type_symbol
 _atom_site_label
 _atom_site_symmetry_multiplicity
 _atom_site_fract_x
 _atom_site_fract_y
 _atom_site_fract_z
 _atom_site_occupancy
  Na  Na0  1  0.13146023  0.36298329  0.07445135  1
  Na  Na1  1  0.13300052  0.36100595  0.40819188  1
  Na  Na2  1  0.13992729  0.37320671  0.75458171  1
  Na  Na3  1  0.12121764  0.87422028  0.08155126  1
  Na  Na4  1  0.12274787  0.86072515  0.41020429  1
  Na  Na5  1  0.12588850  0.86481542  0.74731976  1
  Na  Na6  1  0.66871393  0.37183166  0.11225441  1
  Na  Na7  1  0.63340315  0.37059965  0.41609566  1
  Na  Na8  1  0.63305019  0.36796509  0.75192110  1
  Na  Na9  1  0.63212194  0.86336285  0.07891610  1
  Na  Na10  1  0.63106451  0.86716124  0.41773364  1
  Na  Na11  1  0.64503068  0.83538733  0.73846767  1
  Na  Na12  1  0.36590083  0.14087580  0.25740915  1
  Na  Na13  1  0.36461076  0.12954200  0.58262121  1
  Na  Na14  1  0.35891336  0.12834953  0.91608499  1
  Na  Na15  1  0.36680454  0.63650739  0.25108061  1
  Na  Na16  1  0.36259062  0.63141839  0.57961206  1
  Na  Na17  1  0.35907947  0.63252631  0.90398273  1
  Na  Na18  1  0.86499851  0.12987635  0.24352330  1
  Na  Na19  1  0.87263503  0.12826665  0.58303290  1
  Na  Na20  1  0.88253580  0.13319385  0.91973327  1
  Na  Na21  1  0.86054013  0.62733570  0.25243925  1
  Na  Na22  1  0.88388258  0.68949508  0.61973625  1
  Na  Na23  1  0.85482048  0.63589672  0.90745526  1
  Na  Na24  1  0.48123876  0.51213344  0.74460215  1
  Na  Na25  1  0.45608506  0.00682037  0.07337194  1
  Na  Na26  1  0.97070298  0.54887351  0.43404825  1
  Na  Na27  1  0.48649229  0.00608424  0.43372358  1
  Na  Na28  1  0.97852324  0.51162050  0.08799670  1
  Na  Na29  1  0.52473568  0.48520530  0.07761281  1
  Na  Na30  1  1.01071679  -0.05196519  0.53455249  1
  Na  Na31  1  0.51483193  -0.01229848  0.73336666  1
  Na  Na32  1  1.00274247  0.52527673  0.74632588  1
  Na  Na33  1  0.49941435  0.99615339  0.91784173  1
  Na  Na34  1  0.50969603  0.98925177  0.25229371  1
  Na  Na35  1  -0.01046428  0.48943500  0.25986645  1
  Na  Na36  1  0.00393901  0.48038297  0.91419733  1
  Na  Na37  1  0.01983558  0.97125811  0.86523315  1
  Na  Na38  1  0.51148095  0.50004940  0.55968478  1
  Na  Na39  1  0.05474698  0.49824065  0.59757612  1
  Na  Na40  1  0.54094840  0.49179786  0.92263884  1
  Na  Na41  1  0.50980872  0.49376516  0.25996402  1
  Na  Na42  1  0.24494596  0.24833498  0.66682015  1
  Na  Na43  1  0.74665703  0.24470220  0.01109486  1
  Na  Na44  1  0.76060594  0.75266272  0.33472629  1
  Na  Na45  1  0.23402544  0.23713171  0.00574554  1
  Na  Na46  1  0.76183566  0.26885865  0.30858036  1
  Na  Na47  1  0.25315457  0.75984407  -0.00493489  1
  Na  Na48  1  0.22686063  0.72579541  0.67018262  1
  Na  Na49  1  0.75641467  0.75458523  -0.00925056  1
  Na  Na50  1  0.74968116  0.24811599  0.66401351  1
  Na  Na51  1  0.24138790  0.74214073  0.33971998  1
  Na  Na52  1  0.25369815  0.25424943  0.48700452  1
  Na  Na53  1  0.76118116  0.76129154  0.50611405  1
  Na  Na54  1  0.74724783  0.74298057  0.16330464  1
  Na  Na55  1  0.75691379  0.26067824  0.49223938  1
  Na  Na56  1  0.74764265  0.25025479  0.83903410  1
  Na  Na57  1  0.24988118  0.75358851  0.16535035  1
  Na  Na58  1  0.23842856  0.23772820  0.18051544  1
  Na  Na59  1  0.25512651  0.75996033  0.83428046  1
  Na  Na60  1  0.23203910  0.73446159  0.50588638  1
  Na  Na61  1  0.22981666  0.23530047  0.83968406  1
  Fe  Fe62  1  0.46396566  0.30961724  0.11914814  1
  Fe  Fe63  1  0.46072732  0.30678862  0.44831046  1
  Fe  Fe64  1  0.46397904  0.30809887  0.78773049  1
  Fe  Fe65  1  0.96843282  0.30249972  0.11657221  1
  Fe  Fe66  1  0.96550526  0.30752535  0.45060480  1
  Fe  Fe67  1  0.96045346  0.81409012  0.12384936  1
  Fe  Fe68  1  0.46725909  0.80608342  0.45338307  1
  Fe  Fe69  1  0.97003379  0.29520715  0.78591197  1
  Fe  Fe70  1  0.46507044  0.80637546  0.11530315  1
  Fe  Fe71  1  0.46868737  0.80547763  0.78224980  1
  Fe  Fe72  1  0.19008443  0.54057415  0.04567259  1
  Fe  Fe73  1  0.70203128  0.53331820  0.38040789  1
  Fe  Fe74  1  0.19807106  0.03151234  0.04194054  1
  Fe  Fe75  1  0.69108936  0.53857922  0.71221168  1
  Fe  Fe76  1  0.69196894  0.03703649  0.04998411  1
  Fe  Fe77  1  0.68956076  0.03744608  0.71466604  1
  Fe  Fe78  1  0.18696507  0.03463699  0.37602508  1
  Fe  Fe79  1  0.19459910  0.53155700  0.37549755  1
  Fe  Fe80  1  0.68731241  0.03897524  0.38182198  1
  Fe  Fe81  1  0.19459307  0.02819011  0.71323500  1
  Fe  Fe82  1  0.03807994  0.18719520  0.21125598  1
  Fe  Fe83  1  0.54171204  0.69028555  0.54648545  1
  Fe  Fe84  1  0.02787241  0.70258323  0.87934801  1
  Fe  Fe85  1  0.53838069  0.69235798  0.88187809  1
  Fe  Fe86  1  0.03484438  0.18022619  0.53635212  1
  Fe  Fe87  1  0.53280606  0.19766372  0.55128603  1
  Fe  Fe88  1  0.53666832  0.68932962  0.21208039  1
  Fe  Fe89  1  0.53367683  0.19478611  0.21544140  1
  Fe  Fe90  1  0.02998384  0.69580528  0.21438670  1
  Fe  Fe91  1  0.53134323  0.19273629  0.88269937  1
  Fe  Fe92  1  0.31288131  0.96256880  0.61985869  1
  Fe  Fe93  1  0.30003239  0.46617424  0.61840475  1
  Fe  Fe94  1  0.30655460  0.96456235  0.28676445  1
  Fe  Fe95  1  0.30664686  0.47230599  0.95111876  1
  Fe  Fe96  1  0.81086884  0.96449401  0.29325031  1
  Fe  Fe97  1  0.80068959  0.46968248  0.95490677  1
  Fe  Fe98  1  0.80975118  0.46433738  0.62129488  1
  Fe  Fe99  1  0.30993734  0.46346318  0.28412805  1
  Fe  Fe100  1  0.81135614  0.96575041  0.62743630  1
  Fe  Fe101  1  0.80966102  0.96417217  0.94982604  1
  S  S102  1  0.36076709  0.14557584  0.08526189  1
  S  S103  1  0.36043534  0.13855776  0.41883840  1
  S  S104  1  0.35944926  0.13995723  0.74880074  1
  S  S105  1  0.35892145  0.64404255  0.08440561  1
  S  S106  1  0.36287121  0.63781115  0.41480177  1
  S  S107  1  0.36360536  0.64113581  0.74693573  1
  S  S108  1  0.85954748  0.13836738  0.08230684  1
  S  S109  1  0.85346586  0.14380228  0.41351918  1
  S  S110  1  0.85032349  0.14234077  0.74638306  1
  S  S111  1  0.85735786  0.64125170  0.08099169  1
  S  S112  1  0.85171128  0.65163820  0.42962368  1
  S  S113  1  0.86259200  0.63408895  0.75225967  1
  S  S114  1  0.14299317  0.35772183  0.24504105  1
  S  S115  1  0.14073588  0.35093044  0.57961695  1
  S  S116  1  0.14187398  0.36526076  0.91463585  1
  S  S117  1  0.14033852  0.85816196  0.24986260  1
  S  S118  1  0.15441883  0.85459009  0.58359482  1
  S  S119  1  0.14355746  0.85696419  0.92394260  1
  S  S120  1  0.63661828  0.36297800  0.25261585  1
  S  S121  1  0.63771474  0.36273187  0.58108614  1
  S  S122  1  0.63784847  0.35662600  0.92121432  1
  S  S123  1  0.63710305  0.86079391  0.25035522  1
  S  S124  1  0.63852182  0.86407743  0.58532923  1
  S  S125  1  0.63991659  0.86169232  0.91618387  1
  S  S126  1  0.07226370  0.17086381  0.04527219  1
  S  S127  1  0.06583621  0.16768825  0.37423636  1
  S  S128  1  0.07288317  0.17203193  0.70387257  1
  S  S129  1  0.06526446  0.67099856  0.04236047  1
  S  S130  1  0.06648422  0.65936775  0.36913532  1
  S  S131  1  0.06970551  0.67109543  0.71723916  1
  S  S132  1  0.56661216  0.17218375  0.04344624  1
  S  S133  1  0.56365093  0.17213259  0.37821822  1
  S  S134  1  0.56374903  0.17318763  0.71124071  1
  S  S135  1  0.56035839  0.66574401  0.04104693  1
  S  S136  1  0.57159071  0.67040058  0.37617594  1
  S  S137  1  0.56515678  0.65821019  0.70176193  1
  S  S138  1  0.33152372  0.43622324  0.12177504  1
  S  S139  1  0.32866474  0.43086432  0.45639905  1
  S  S140  1  0.33917344  0.43461773  0.79265878  1
  S  S141  1  0.33477737  0.93608683  0.12929396  1
  S  S142  1  0.33054935  0.92941770  0.45477003  1
  S  S143  1  0.34294229  0.93478299  0.79173651  1
  S  S144  1  0.84455605  0.43454576  0.12497228  1
  S  S145  1  0.82846382  0.43120740  0.45673105  1
  S  S146  1  0.82644091  0.42417847  0.78995307  1
  S  S147  1  0.82059480  0.93118028  0.12410056  1
  S  S148  1  0.81696692  0.93434205  0.45312386  1
  S  S149  1  0.82315946  0.93951995  0.79096806  1
  S  S150  1  0.43292004  0.33277680  0.29025910  1
  S  S151  1  0.43031986  0.33048108  0.62334156  1
  S  S152  1  0.42752462  0.33081387  0.95604647  1
  S  S153  1  0.43414401  0.83086125  0.29133697  1
  S  S154  1  0.43488755  0.82240951  0.61849559  1
  S  S155  1  0.43932833  0.82912587  0.95495209  1
  S  S156  1  0.93969245  0.32543828  0.28931169  1
  S  S157  1  0.93385352  0.32926487  0.62458604  1
  S  S158  1  0.93283985  0.33419540  0.95600015  1
  S  S159  1  0.92901803  0.82552402  0.29021912  1
  S  S160  1  0.94090296  0.86314845  0.63469588  1
  S  S161  1  0.92657381  0.82689308  0.95886643  1
  S  S162  1  0.17783379  0.06823514  0.21117388  1
  S  S163  1  0.17451110  0.06284122  0.54127512  1
  S  S164  1  0.17406819  0.06325779  0.87688407  1
  S  S165  1  0.17119988  0.56933726  0.20635544  1
  S  S166  1  0.16902094  0.55800992  0.53512315  1
  S  S167  1  0.16670234  0.57378300  0.87813093  1
  S  S168  1  0.65906040  0.06618346  0.20715254  1
  S  S169  1  0.66420071  0.07023039  0.54171596  1
  S  S170  1  0.66363539  0.06746903  0.87589536  1
  S  S171  1  0.66533821  0.56546067  0.21167228  1
  S  S172  1  0.67828790  0.57322311  0.54446064  1
  S  S173  1  0.66539806  0.56338645  0.87232442  1
  O  O174  1  0.36919577  0.22605615  0.07891399  1
  O  O175  1  0.36901859  0.21764109  0.41177924  1
  O  O176  1  0.36853918  0.21775640  0.73769436  1
  O  O177  1  0.36561840  0.72408434  0.07738805  1
  O  O178  1  0.37183254  0.71582201  0.40402577  1
  O  O179  1  0.37766865  0.71814618  0.73533819  1
  O  O180  1  0.87073948  0.21653133  0.07254736  1
  O  O181  1  0.86405968  0.22339667  0.40687754  1
  O  O182  1  0.86553639  0.22088688  0.73801993  1
  O  O183  1  0.86904201  0.72208510  0.07648909  1
  O  O184  1  0.85310536  0.73345480  0.43214848  1
  O  O185  1  0.86660155  0.70743088  0.73855039  1
  O  O186  1  0.28059749  0.13603300  0.09043178  1
  O  O187  1  0.28191841  0.12759037  0.42623288  1
  O  O188  1  0.27965248  0.13056803  0.75422726  1
  O  O189  1  0.28156815  0.63422979  0.09542265  1
  O  O190  1  0.28376815  0.63044296  0.42365312  1
  O  O191  1  0.28796516  0.63839049  0.75895738  1
  O  O192  1  0.78008482  0.13122839  0.09015435  1
  O  O193  1  0.77471040  0.13645277  0.42282269  1
  O  O194  1  0.76800291  0.14014342  0.75083376  1
  O  O195  1  0.78240959  0.63090280  0.09190773  1
  O  O196  1  0.76550095  0.63103216  0.42586766  1
  O  O197  1  0.78755719  0.61638986  0.76511868  1
  O  O198  1  0.13757140  0.27864616  0.25222152  1
  O  O199  1  0.12976210  0.26801611  0.57803112  1
  O  O200  1  0.14118656  0.28854456  0.92471620  1
  O  O201  1  0.13153698  0.77872900  0.25779023  1
  O  O202  1  0.14519929  0.77592129  0.58819026  1
  O  O203  1  0.12080559  0.78067728  0.93681275  1
  O  O204  1  0.62277362  0.28700754  0.26606623  1
  O  O205  1  0.62929827  0.28454867  0.59120272  1
  O  O206  1  0.62908506  0.27361969  0.92124104  1
  O  O207  1  0.62763772  0.78192216  0.25857384  1
  O  O208  1  0.63152426  0.78523218  0.59335676  1
  O  O209  1  0.63112609  0.78413929  0.92820351  1
  O  O210  1  0.22232981  0.37155962  0.23813430  1
  O  O211  1  0.22137228  0.36104410  0.57436672  1
  O  O212  1  0.21763211  0.38216092  0.90194428  1
  O  O213  1  0.21989611  0.86699240  0.24203784  1
  O  O214  1  0.23662671  0.86620904  0.57948051  1
  O  O215  1  0.22510887  0.85348294  0.92608412  1
  O  O216  1  0.71246033  0.36743009  0.24224434  1
  O  O217  1  0.71508897  0.37016542  0.56970215  1
  O  O218  1  0.71745515  0.36805556  0.91544311  1
  O  O219  1  0.71754109  0.87052571  0.24663341  1
  O  O220  1  0.71779030  0.87814257  0.57848647  1
  O  O221  1  0.72016042  0.87291742  0.91435219  1
  O  O222  1  0.41728587  0.13897384  0.15650992  1
  O  O223  1  0.41999373  0.13033156  0.48733022  1
  O  O224  1  0.41680101  0.13589182  0.81949098  1
  O  O225  1  0.41885474  0.63628541  0.15193629  1
  O  O226  1  0.42226569  0.63033078  0.48231978  1
  O  O227  1  0.42581139  0.63039775  0.81279623  1
  O  O228  1  0.91849325  0.13118040  0.15014255  1
  O  O229  1  0.91265996  0.13489906  0.48092102  1
  O  O230  1  0.90553590  0.13101161  0.81150665  1
  O  O231  1  0.92179554  0.62823623  0.14427840  1
  O  O232  1  0.90214071  0.63831565  0.49769970  1
  O  O233  1  0.92537283  0.63091052  0.82370724  1
  O  O234  1  0.37440235  0.08824827  0.02118874  1
  O  O235  1  0.37183623  0.07970093  0.35228970  1
  O  O236  1  0.37137906  0.07950347  0.68336598  1
  O  O237  1  0.36571633  0.58690560  0.01505354  1
  O  O238  1  0.36786549  0.57783985  0.34585134  1
  O  O239  1  0.36845221  0.57937327  0.67825072  1
  O  O240  1  0.86489799  0.07850006  0.01364047  1
  O  O241  1  0.85773025  0.08498112  0.34398209  1
  O  O242  1  0.85024779  0.08419347  0.67376521  1
  O  O243  1  0.86324737  0.58553091  0.00898981  1
  O  O244  1  0.86525326  0.59974433  0.36155055  1
  O  O245  1  0.87617470  0.56852660  0.69041811  1
  O  O246  1  0.08440633  0.36575094  0.17678509  1
  O  O247  1  0.08341310  0.36424805  0.51248425  1
  O  O248  1  0.07824424  0.37062497  0.84759742  1
  O  O249  1  0.08164740  0.86489822  0.18175025  1
  O  O250  1  0.10041690  0.86605416  0.51636857  1
  O  O251  1  0.09175613  0.86498967  0.85447567  1
  O  O252  1  0.57426799  0.37240094  0.18610314  1
  O  O253  1  0.57632752  0.37048252  0.51386821  1
  O  O254  1  0.58030862  0.36633416  0.85156835  1
  O  O255  1  0.58057394  0.86766413  0.18010394  1
  O  O256  1  0.58024968  0.86909714  0.51504283  1
  O  O257  1  0.58382657  0.86318246  0.84335317  1
  O  O258  1  0.13304300  0.41620671  0.31245028  1
  O  O259  1  0.13227330  0.40515152  0.64816650  1
  O  O260  1  0.13176017  0.42548065  0.98207174  1
  O  O261  1  0.13438058  0.91674498  0.31848343  1
  O  O262  1  0.14688033  0.91328063  0.65308752  1
  O  O263  1  0.13488089  0.91996136  0.99011393  1
  O  O264  1  0.62987290  0.42613506  0.32109772  1
  O  O265  1  0.63113199  0.42297444  0.64883854  1
  O  O266  1  0.62549186  0.41048201  0.98800909  1
  O  O267  1  0.62283579  0.92027285  0.31526241  1
  O  O268  1  0.62655815  0.92214606  0.65191377  1
  O  O269  1  0.62374744  0.92289395  0.97910183  1
  O  O270  1  0.03401402  0.20073334  0.10709302  1
  O  O271  1  0.02337040  0.19665535  0.43154613  1
  O  O272  1  0.03418994  0.19857899  0.76171467  1
  O  O273  1  0.03026095  0.70107903  0.10368574  1
  O  O274  1  0.03358965  0.67270125  0.42927274  1
  O  O275  1  0.03747784  0.69666043  0.78287754  1
  O  O276  1  0.53246299  0.20303068  0.10618688  1
  O  O277  1  0.52734629  0.20263997  0.43928506  1
  O  O278  1  0.52772011  0.20324996  0.77259573  1
  O  O279  1  0.52548717  0.70374207  0.10305155  1
  O  O280  1  0.53443337  0.69823588  0.43705369  1
  O  O281  1  0.53604688  0.69472244  0.76661718  1
  O  O282  1  0.30201060  0.47323405  0.06135114  1
  O  O283  1  0.30058739  0.46706092  0.39478351  1
  O  O284  1  0.31913295  0.46734733  0.73040056  1
  O  O285  1  0.30749753  0.97533585  0.07253430  1
  O  O286  1  0.30076964  0.96808763  0.39529925  1
  O  O287  1  0.30741309  0.96792464  0.72861850  1
  O  O288  1  0.82283976  0.46783685  0.06230041  1
  O  O289  1  0.79756360  0.47208412  0.39988399  1
  O  O290  1  0.79560228  0.45507333  0.72548082  1
  O  O291  1  0.79180621  0.96954435  0.06406519  1
  O  O292  1  0.78462122  0.97800418  0.39616831  1
  O  O293  1  0.78901757  0.97674419  0.72762543  1
  O  O294  1  0.46728325  0.29972244  0.22829421  1
  O  O295  1  0.46856665  0.30109466  0.56333686  1
  O  O296  1  0.46455130  0.29922794  0.89551319  1
  O  O297  1  0.46843685  0.80275663  0.22908868  1
  O  O298  1  0.47084570  0.79236859  0.55677543  1
  O  O299  1  0.47341916  0.79304050  0.89246910  1
  O  O300  1  0.97845157  0.29301456  0.22916872  1
  O  O301  1  0.96874912  0.30246129  0.56230897  1
  O  O302  1  0.96639495  0.30861545  0.89443679  1
  O  O303  1  0.96516198  0.79659704  0.22638302  1
  O  O304  1  0.97311070  0.85255995  0.57351293  1
  O  O305  1  0.96490883  0.79428175  0.90045464  1
  O  O306  1  0.20511564  0.02911481  0.27203689  1
  O  O307  1  0.20601199  0.02695212  0.60239804  1
  O  O308  1  0.20582781  0.02841554  0.93792365  1
  O  O309  1  0.20211652  0.53209853  0.26632416  1
  O  O310  1  0.19978955  0.52106309  0.59495473  1
  O  O311  1  0.20062266  0.54495210  0.94534240  1
  O  O312  1  0.68762311  0.03059765  0.26857405  1
  O  O313  1  0.69118702  0.03363330  0.60171983  1
  O  O314  1  0.69527098  0.03225068  0.93693414  1
  O  O315  1  0.69085884  0.53649068  0.27756722  1
  O  O316  1  0.70543465  0.53236919  0.60296661  1
  O  O317  1  0.69139892  0.52432562  0.92998382  1
  O  O318  1  0.10113107  0.09541157  0.04967512  1
  O  O319  1  0.08848007  0.08975788  0.37631551  1
  O  O320  1  0.09874839  0.09410768  0.70074145  1
  O  O321  1  0.07637115  0.58617247  0.03320216  1
  O  O322  1  0.09054914  0.57697163  0.35018607  1
  O  O323  1  0.08926956  0.59030944  0.71029229  1
  O  O324  1  0.58369732  0.08985776  0.03805648  1
  O  O325  1  0.57783706  0.08886980  0.37209833  1
  O  O326  1  0.58312259  0.09277268  0.70827151  1
  O  O327  1  0.57003130  0.58481345  0.03938709  1
  O  O328  1  0.59492762  0.59048937  0.37266085  1
  O  O329  1  0.57246163  0.57289610  0.69488194  1
  O  O330  1  0.41449809  0.42022102  0.12856942  1
  O  O331  1  0.41044602  0.41188124  0.46139382  1
  O  O332  1  0.42470144  0.42019360  0.80955800  1
  O  O333  1  0.41721379  0.91646433  0.13174303  1
  O  O334  1  0.41112439  0.91009572  0.45541518  1
  O  O335  1  0.42341888  0.91348775  0.78715992  1
  O  O336  1  0.92806642  0.41292954  0.13397401  1
  O  O337  1  0.90893215  0.41254314  0.45681725  1
  O  O338  1  0.90785666  0.40553859  0.79605369  1
  O  O339  1  0.90080553  0.91287790  0.12926240  1
  O  O340  1  0.89318538  0.91625563  0.44822819  1
  O  O341  1  0.90163654  0.92393528  0.79277839  1
  O  O342  1  0.41792071  0.41458452  0.29230581  1
  O  O343  1  0.41088728  0.41102547  0.62628007  1
  O  O344  1  0.41193220  0.41318235  0.96094474  1
  O  O345  1  0.42017295  0.91481044  0.30149526  1
  O  O346  1  0.41761478  0.90396783  0.62392225  1
  O  O347  1  0.42897945  0.91036807  0.95872947  1
  O  O348  1  0.92749064  0.40687531  0.29652835  1
  O  O349  1  0.91868270  0.41276249  0.63572701  1
  O  O350  1  0.91658329  0.41828270  0.96590222  1
  O  O351  1  0.90265546  0.90272951  0.28757448  1
  O  O352  1  0.91918130  0.94868228  0.65489766  1
  O  O353  1  0.90661858  0.90557869  0.95649581  1
  O  O354  1  0.09844864  0.08884777  0.20772355  1
  O  O355  1  0.09226670  0.07739928  0.53542085  1
  O  O356  1  0.09283924  0.07682046  0.86699885  1
  O  O357  1  0.08973885  0.58719442  0.19994014  1
  O  O358  1  0.08784829  0.57100112  0.52988006  1
  O  O359  1  0.08707604  0.59871804  0.87959152  1
  O  O360  1  0.57483133  0.08068810  0.20025948  1
  O  O361  1  0.58388049  0.09349109  0.53798474  1
  O  O362  1  0.58068420  0.08316101  0.87203734  1
  O  O363  1  0.58056438  0.58271507  0.20184025  1
  O  O364  1  0.59458578  0.58602728  0.53786974  1
  O  O365  1  0.58143228  0.58008108  0.86553362  1
  O  O366  1  0.14044869  0.22988266  0.06421093  1
  O  O367  1  0.13457556  0.22349370  0.39251743  1
  O  O368  1  0.14121349  0.22989923  0.72025210  1
  O  O369  1  0.14019380  0.71782636  0.06018643  1
  O  O370  1  0.13626351  0.71574077  0.38640901  1
  O  O371  1  0.14134391  0.72578935  0.73684267  1
  O  O372  1  0.63613941  0.22332591  0.05566317  1
  O  O373  1  0.63558139  0.22200982  0.39457950  1
  O  O374  1  0.63370664  0.22654972  0.72610343  1
  O  O375  1  0.63388580  0.71371051  0.05579837  1
  O  O376  1  0.63814195  0.72691823  0.39036196  1
  O  O377  1  0.63954113  0.69875292  0.71108650  1
  O  O378  1  0.28039201  0.36472639  0.10526154  1
  O  O379  1  0.27661822  0.36103818  0.44163037  1
  O  O380  1  0.28903103  0.36186093  0.77520420  1
  O  O381  1  0.28358631  0.86478434  0.11472963  1
  O  O382  1  0.27826316  0.85868059  0.43848183  1
  O  O383  1  0.29346735  0.86417716  0.78160917  1
  O  O384  1  0.79188620  0.36344506  0.10701929  1
  O  O385  1  0.77498370  0.35846098  0.43561051  1
  O  O386  1  0.77335151  0.35448570  0.77763646  1
  O  O387  1  0.76712145  0.85911666  0.10484207  1
  O  O388  1  0.76068350  0.86497928  0.43307661  1
  O  O389  1  0.77107060  0.87070421  0.77726212  1
  O  O390  1  0.36163699  0.28363412  0.27774136  1
  O  O391  1  0.36066331  0.27624438  0.60650466  1
  O  O392  1  0.35623442  0.27985652  0.94075778  1
  O  O393  1  0.36123260  0.78116892  0.27494688  1
  O  O394  1  0.36530385  0.76952143  0.60317366  1
  O  O395  1  0.36664252  0.77996775  0.94067491  1
  O  O396  1  0.86788355  0.27361720  0.27085915  1
  O  O397  1  0.86007889  0.27857373  0.60529876  1
  O  O398  1  0.86097801  0.28349545  0.94151460  1
  O  O399  1  0.85982049  0.76849404  0.27207371  1
  O  O400  1  0.86577147  0.81245972  0.61119300  1
  O  O401  1  0.85742590  0.77423103  0.94605147  1
  O  O402  1  0.23348167  0.13738621  0.23054481  1
  O  O403  1  0.22486138  0.13606707  0.55865785  1
  O  O404  1  0.22513488  0.13769788  0.89488436  1
  O  O405  1  0.22386914  0.64089471  0.22358050  1
  O  O406  1  0.22077922  0.63107171  0.55368531  1
  O  O407  1  0.22043447  0.64155238  0.88822569  1
  O  O408  1  0.70800803  0.13855836  0.22278381  1
  O  O409  1  0.71847017  0.13866173  0.55430706  1
  O  O410  1  0.71358348  0.13932461  0.89008724  1
  O  O411  1  0.71492149  0.63785998  0.22588956  1
  O  O412  1  0.72719080  0.64538575  0.56302488  1
  O  O413  1  0.71475991  0.63604202  0.88972003  1
  O  O414  1  0.48801677  0.33477097  0.02891613  1
  O  O415  1  0.49296121  0.33534989  0.36266938  1
  O  O416  1  0.48955123  0.33533439  0.69710198  1
  O  O417  1  0.49723269  0.82851760  0.02788916  1
  O  O418  1  0.49329001  0.82854883  0.36225745  1
  O  O419  1  0.49693198  0.82535406  0.69010247  1
  O  O420  1  0.99283741  0.33276973  0.02707295  1
  O  O421  1  0.99692931  0.32259308  0.36213500  1
  O  O422  1  0.99152123  0.32593806  0.69548582  1
  O  O423  1  0.98542149  0.83595561  0.03450985  1
  O  O424  1  0.98908540  0.83198326  0.36033999  1
  O  O425  1  0.99628662  0.85542214  0.70289640  1
  O  O426  1  0.17771370  0.00899418  0.13980149  1
  O  O427  1  0.17546327  0.00546497  0.46909906  1
  O  O428  1  0.18197978  0.00621438  0.80608187  1
  O  O429  1  0.16972994  0.51054653  0.13352150  1
  O  O430  1  0.17109563  0.50213716  0.46163998  1
  O  O431  1  0.15613485  0.50809479  0.81013104  1
  O  O432  1  0.65805242  0.00723174  0.13464304  1
  O  O433  1  0.65552613  0.00980005  0.46741708  1
  O  O434  1  0.65739451  0.00848267  0.80179926  1
  O  O435  1  0.66386770  0.50323930  0.14358570  1
  O  O436  1  0.67716550  0.51475727  0.47065087  1
  O  O437  1  0.66223765  0.50667337  0.79763185  1
  O  O438  1  0.00905745  0.16060007  0.29938965  1
  O  O439  1  0.01379468  0.16571377  0.62869329  1
  O  O440  1  0.01379930  0.16325673  0.97379410  1
  O  O441  1  0.00603013  0.66088353  0.29702371  1
  O  O442  1  0.01053253  0.67390750  0.64944733  1
  O  O443  1  0.00807918  0.67459579  0.97080765  1
  O  O444  1  0.50482424  0.17051856  0.30578280  1
  O  O445  1  0.50398315  0.17066008  0.63904657  1
  O  O446  1  0.50372605  0.16750865  0.97154528  1
  O  O447  1  0.50937272  0.66355803  0.30328893  1
  O  O448  1  0.50400207  0.65801807  0.63017686  1
  O  O449  1  0.50313019  0.66532776  0.96755099  1
  O  O450  1  0.33374142  0.49496535  0.19492403  1
  O  O451  1  0.33373445  0.49150584  0.52909336  1
  O  O452  1  0.33244794  0.49492201  0.86140445  1
  O  O453  1  0.34394253  0.99302909  0.20588372  1
  O  O454  1  0.33659508  0.98787128  0.52865318  1
  O  O455  1  0.35677355  0.99671451  0.86348671  1
  O  O456  1  0.84804645  0.49443441  0.19547767  1
  O  O457  1  0.83326824  0.48421632  0.53208560  1
  O  O458  1  0.82824921  0.48656298  0.86094076  1
  O  O459  1  0.81931353  0.98873930  0.19619132  1
  O  O460  1  0.82013665  0.98881822  0.52903195  1
  O  O461  1  0.82292463  1.00187064  0.86213965  1
