# generated using pymatgen
data_Na31Fe20(SO4)36
_symmetry_space_group_name_H-M   'P 1'
_cell_length_a   18.06848302
_cell_length_b   18.06873880
_cell_length_c   19.69807261
_cell_angle_alpha   107.57289378
_cell_angle_beta   107.57709885
_cell_angle_gamma   90.70984197
_symmetry_Int_Tables_number   1
_chemical_formula_structural   Na31Fe20(SO4)36
_chemical_formula_sum   'Na62 Fe40 S72 O288'
_cell_volume   5806.50358088
_cell_formula_units_Z   2
loop_
 _symmetry_equiv_pos_site_id
 _symmetry_equiv_pos_as_xyz
  1  'x, y, z'
loop_
 _atom_site_type_symbol
 _atom_site_label
 _atom_site_symmetry_multiplicity
 _atom_site_fract_x
 _atom_site_fract_y
 _atom_site_fract_z
 _atom_site_occupancy
  Na  Na0  1  0.13684351  0.36982900  0.08699282  1
  Na  Na1  1  0.14247569  0.36557764  0.42911534  1
  Na  Na2  1  0.12063503  0.35462155  0.73115532  1
  Na  Na3  1  0.17374134  0.84960381  0.10811172  1
  Na  Na4  1  0.12731001  0.86488661  0.41463320  1
  Na  Na5  1  0.13337281  0.86712695  0.75335932  1
  Na  Na6  1  0.64337737  0.36876115  0.07968982  1
  Na  Na7  1  0.64654866  0.37942487  0.43104558  1
  Na  Na8  1  0.62665260  0.36163199  0.73663447  1
  Na  Na9  1  0.63609520  0.86001485  0.08168581  1
  Na  Na10  1  0.62957997  0.86184279  0.41860144  1
  Na  Na11  1  0.62978602  0.87103098  0.75219066  1
  Na  Na12  1  0.36536617  0.14054044  0.25780239  1
  Na  Na13  1  0.37011727  0.14079823  0.58160886  1
  Na  Na14  1  0.36918907  0.13189064  0.91584871  1
  Na  Na15  1  0.36692104  0.64932624  0.25326710  1
  Na  Na16  1  0.36609080  0.63555593  0.57958855  1
  Na  Na17  1  0.36384442  0.63694711  0.92035111  1
  Na  Na18  1  0.86347585  0.13154953  0.24894340  1
  Na  Na19  1  0.86878284  0.12533499  0.57863986  1
  Na  Na20  1  0.86862358  0.13690483  0.92342615  1
  Na  Na21  1  0.86915168  0.63726151  0.26018361  1
  Na  Na22  1  0.84727559  0.61822714  0.56474506  1
  Na  Na23  1  0.86390279  0.63026797  0.91461903  1
  Na  Na24  1  0.49734534  0.51438670  0.08078521  1
  Na  Na25  1  0.97435237  0.50320583  0.44303707  1
  Na  Na26  1  0.49742963  0.51278903  0.41837672  1
  Na  Na27  1  0.46295266  0.00609448  0.41285630  1
  Na  Na28  1  1.01288861  -0.00338296  0.06648674  1
  Na  Na29  1  0.95876639  0.51103387  0.65938682  1
  Na  Na30  1  0.99081825  0.00646538  0.75425499  1
  Na  Na31  1  0.49753645  0.00540925  0.06801427  1
  Na  Na32  1  0.98216594  0.51241849  0.08628711  1
  Na  Na33  1  0.50570624  0.97548858  0.57948369  1
  Na  Na34  1  0.54192336  0.49421045  0.91253975  1
  Na  Na35  1  0.00491608  0.49467708  0.90554692  1
  Na  Na36  1  0.56364258  0.49708341  0.26613109  1
  Na  Na37  1  0.50654855  0.47874761  0.60120706  1
  Na  Na38  1  0.00461225  0.48762073  0.26345095  1
  Na  Na39  1  0.01032271  0.98323418  0.52864488  1
  Na  Na40  1  0.48919582  1.00880840  0.25455669  1
  Na  Na41  1  0.00825708  0.98854943  0.27035910  1
  Na  Na42  1  0.73632046  0.24347810  0.66477388  1
  Na  Na43  1  0.75028038  0.74222517  0.33775842  1
  Na  Na44  1  0.25248006  0.75719671  0.66371062  1
  Na  Na45  1  0.27219661  0.78156146  0.32093921  1
  Na  Na46  1  0.25326665  0.25396344  0.65298164  1
  Na  Na47  1  0.75076021  0.24663682  0.33299449  1
  Na  Na48  1  0.74974579  0.74989222  0.66569592  1
  Na  Na49  1  0.24312624  0.23847951  0.35348298  1
  Na  Na50  1  0.25194246  0.25373791  -0.00119012  1
  Na  Na51  1  0.74340510  0.73518404  0.00652897  1
  Na  Na52  1  0.24062433  0.74236711  0.84718698  1
  Na  Na53  1  0.74902335  0.26002639  0.50434829  1
  Na  Na54  1  0.74987755  0.74861526  0.83353885  1
  Na  Na55  1  0.74136698  0.73405558  0.17054291  1
  Na  Na56  1  0.75932219  0.25668846  0.15240846  1
  Na  Na57  1  0.24491077  0.24254567  0.17451122  1
  Na  Na58  1  0.26022347  0.76103556  0.49016800  1
  Na  Na59  1  0.74017318  0.24279673  0.84583223  1
  Na  Na60  1  0.25040844  0.25708636  0.82452167  1
  Na  Na61  1  0.74943932  0.74098279  0.49690303  1
  Fe  Fe62  1  0.96289223  0.30419756  0.78345251  1
  Fe  Fe63  1  0.46769129  0.29974296  0.45492054  1
  Fe  Fe64  1  0.96607645  0.80654443  0.12035953  1
  Fe  Fe65  1  0.46568035  0.30581533  0.78252763  1
  Fe  Fe66  1  0.46622030  0.30889409  0.11905321  1
  Fe  Fe67  1  0.96536809  0.81270119  0.79154707  1
  Fe  Fe68  1  0.97096434  0.29209537  0.46286638  1
  Fe  Fe69  1  0.96581451  0.30473716  0.12016708  1
  Fe  Fe70  1  0.46425049  0.81103426  0.78802513  1
  Fe  Fe71  1  0.46041754  0.81238806  0.11728916  1
  Fe  Fe72  1  0.69004698  0.03486824  0.04462448  1
  Fe  Fe73  1  0.70050166  0.53322544  0.70803341  1
  Fe  Fe74  1  0.18833463  0.53835509  0.71487698  1
  Fe  Fe75  1  0.68966204  0.03697726  0.71420630  1
  Fe  Fe76  1  0.19141720  0.03742405  0.71367812  1
  Fe  Fe77  1  0.19709651  0.03111446  0.04902919  1
  Fe  Fe78  1  0.69119330  0.03364732  0.38229999  1
  Fe  Fe79  1  0.19150092  0.54075821  0.04955828  1
  Fe  Fe80  1  0.19593421  0.53379635  0.38409826  1
  Fe  Fe81  1  0.20081433  0.03595219  0.38401329  1
  Fe  Fe82  1  0.53383004  0.69683744  0.21506265  1
  Fe  Fe83  1  0.02970540  0.70205731  0.54515384  1
  Fe  Fe84  1  0.53405664  0.68964548  0.87470746  1
  Fe  Fe85  1  0.53809046  0.18658099  0.87673861  1
  Fe  Fe86  1  0.03679174  0.69263076  0.88388865  1
  Fe  Fe87  1  0.03533712  0.19387071  0.88191032  1
  Fe  Fe88  1  0.52929117  0.70352251  0.54040822  1
  Fe  Fe89  1  0.03532616  0.69602018  0.22012409  1
  Fe  Fe90  1  0.03597483  0.19058249  0.21740421  1
  Fe  Fe91  1  0.53543503  0.19310883  0.21270874  1
  Fe  Fe92  1  0.30697910  0.96328801  0.94922909  1
  Fe  Fe93  1  0.81003173  0.96008921  0.28852936  1
  Fe  Fe94  1  0.31087250  0.96731719  0.62339338  1
  Fe  Fe95  1  0.80424967  0.96323244  0.61682636  1
  Fe  Fe96  1  0.30572661  0.46970801  0.62067600  1
  Fe  Fe97  1  0.80735416  0.96399785  0.95234173  1
  Fe  Fe98  1  0.79928260  0.46818022  0.28911048  1
  Fe  Fe99  1  0.30494114  0.46800392  0.95277985  1
  Fe  Fe100  1  0.80008064  0.46725408  0.95576100  1
  Fe  Fe101  1  0.30841767  0.46607160  0.28526145  1
  S  S102  1  0.36013765  0.14328713  0.08301035  1
  S  S103  1  0.36075123  0.13875017  0.41236584  1
  S  S104  1  0.35903093  0.14384639  0.75248696  1
  S  S105  1  0.35976287  0.64084572  0.08295990  1
  S  S106  1  0.35703639  0.64169600  0.41379837  1
  S  S107  1  0.35615721  0.64353524  0.75104269  1
  S  S108  1  0.86270620  0.13701994  0.08433575  1
  S  S109  1  0.85691166  0.13323492  0.41355882  1
  S  S110  1  0.85829879  0.13915667  0.75189740  1
  S  S111  1  0.86326097  0.63946690  0.08280334  1
  S  S112  1  0.86147627  0.63454734  0.41745174  1
  S  S113  1  0.86258415  0.64650074  0.75392711  1
  S  S114  1  0.14166243  0.35950015  0.25139467  1
  S  S115  1  0.13796521  0.36627936  0.58550837  1
  S  S116  1  0.13922926  0.36286020  0.91780965  1
  S  S117  1  0.13680120  0.86414332  0.25402081  1
  S  S118  1  0.14341347  0.86270695  0.58775715  1
  S  S119  1  0.13969584  0.86003505  0.91962841  1
  S  S120  1  0.64292886  0.35304364  0.24574312  1
  S  S121  1  0.63717056  0.36479394  0.58194978  1
  S  S122  1  0.63783552  0.35744846  0.91452885  1
  S  S123  1  0.64115864  0.85903676  0.24626510  1
  S  S124  1  0.64187131  0.86144902  0.58748187  1
  S  S125  1  0.64164405  0.85770307  0.91776015  1
  S  S126  1  0.07096011  0.17205477  0.04499832  1
  S  S127  1  0.06904074  0.16859436  0.37523257  1
  S  S128  1  0.06271211  0.16349121  0.71163949  1
  S  S129  1  0.06637343  0.66633276  0.04251503  1
  S  S130  1  0.07155668  0.66594474  0.37685480  1
  S  S131  1  0.06655046  0.67594326  0.71128606  1
  S  S132  1  0.56664570  0.17165820  0.04300996  1
  S  S133  1  0.57004966  0.17179799  0.37372514  1
  S  S134  1  0.56403932  0.16831888  0.70745420  1
  S  S135  1  0.56056244  0.66901781  0.03920662  1
  S  S136  1  0.56260019  0.67103395  0.37635125  1
  S  S137  1  0.56604046  0.67441830  0.70700576  1
  S  S138  1  0.33229523  0.43430856  0.12451524  1
  S  S139  1  0.33395282  0.43406435  0.45800561  1
  S  S140  1  0.32596285  0.43190019  0.79019354  1
  S  S141  1  0.34249263  0.94435767  0.12286475  1
  S  S142  1  0.32989636  0.93817414  0.46112344  1
  S  S143  1  0.32801207  0.93389699  0.79084876  1
  S  S144  1  0.83778978  0.43107599  0.12854850  1
  S  S145  1  0.83834834  0.41957111  0.45852957  1
  S  S146  1  0.82670664  0.42974526  0.79218336  1
  S  S147  1  0.82960731  0.92996800  0.12200761  1
  S  S148  1  0.82390037  0.92812870  0.45303359  1
  S  S149  1  0.82885717  0.93533036  0.79201487  1
  S  S150  1  0.43461136  0.33164595  0.29097839  1
  S  S151  1  0.42532608  0.33613147  0.62552788  1
  S  S152  1  0.43140788  0.33235536  0.95627699  1
  S  S153  1  0.44198005  0.83810815  0.28698395  1
  S  S154  1  0.43248859  0.82995074  0.62636600  1
  S  S155  1  0.43367119  0.82889819  0.95414525  1
  S  S156  1  0.93486823  0.32367091  0.29415441  1
  S  S157  1  0.92491832  0.31554427  0.61889053  1
  S  S158  1  0.93533705  0.33166147  0.95941706  1
  S  S159  1  0.93156939  0.82730337  0.28936469  1
  S  S160  1  0.93072515  0.83022854  0.62880038  1
  S  S161  1  0.93311312  0.82840519  0.95874527  1
  S  S162  1  0.16825788  0.06819291  0.20927488  1
  S  S163  1  0.17617774  0.06617054  0.54632004  1
  S  S164  1  0.17173357  0.06837167  0.87926436  1
  S  S165  1  0.16983219  0.56897739  0.21191231  1
  S  S166  1  0.16911360  0.57318043  0.54374283  1
  S  S167  1  0.16696771  0.56577052  0.87505269  1
  S  S168  1  0.66615526  0.06335000  0.20552106  1
  S  S169  1  0.66061135  0.05729514  0.54012231  1
  S  S170  1  0.67535849  0.06873164  0.87974498  1
  S  S171  1  0.67008332  0.56486046  0.20449693  1
  S  S172  1  0.66265710  0.57860842  0.54147064  1
  S  S173  1  0.67289845  0.56923643  0.87138200  1
  O  O174  1  0.36792083  0.22221622  0.07371010  1
  O  O175  1  0.37150029  0.21902717  0.40396482  1
  O  O176  1  0.36496199  0.22419141  0.74556138  1
  O  O177  1  0.36832910  0.71762366  0.07259026  1
  O  O178  1  0.35878021  0.71782021  0.40317676  1
  O  O179  1  0.36433615  0.72378180  0.74548373  1
  O  O180  1  0.87256767  0.21580541  0.07662776  1
  O  O181  1  0.87376035  0.21354801  0.40678321  1
  O  O182  1  0.86657014  0.21791634  0.74392605  1
  O  O183  1  0.87698231  0.71559428  0.06922013  1
  O  O184  1  0.86873041  0.70888889  0.40340387  1
  O  O185  1  0.86741919  0.73035983  0.75544767  1
  O  O186  1  0.28041563  0.13312940  0.08915393  1
  O  O187  1  0.27587141  0.13288790  0.41050546  1
  O  O188  1  0.28010827  0.13298774  0.76129781  1
  O  O189  1  0.28242202  0.62860760  0.09227600  1
  O  O190  1  0.28220659  0.62650440  0.42882736  1
  O  O191  1  0.27785094  0.63285460  0.76087799  1
  O  O192  1  0.78292113  0.12720377  0.09054690  1
  O  O193  1  0.77530781  0.13351528  0.41871671  1
  O  O194  1  0.77929840  0.13077602  0.76037229  1
  O  O195  1  0.78574629  0.63508167  0.09019547  1
  O  O196  1  0.78735786  0.62085211  0.43010105  1
  O  O197  1  0.78515446  0.63268387  0.76402872  1
  O  O198  1  0.13476003  0.27880961  0.25560720  1
  O  O199  1  0.13748662  0.29457455  0.60455700  1
  O  O200  1  0.13104342  0.28482036  0.92841159  1
  O  O201  1  0.12314960  0.78840654  0.26812589  1
  O  O202  1  0.12851639  0.78391453  0.59535463  1
  O  O203  1  0.13008294  0.77864395  0.92145569  1
  O  O204  1  0.63491146  0.27013214  0.24536334  1
  O  O205  1  0.63005914  0.29120575  0.59750799  1
  O  O206  1  0.62910401  0.27649688  0.91804704  1
  O  O207  1  0.63551159  0.77839410  0.25238737  1
  O  O208  1  0.62815397  0.78244322  0.59540421  1
  O  O209  1  0.63268628  0.77872873  0.92653828  1
  O  O210  1  0.21899536  0.37085286  0.24029839  1
  O  O211  1  0.21205390  0.38287819  0.57109728  1
  O  O212  1  0.21871721  0.37041187  0.91008590  1
  O  O213  1  0.21325993  0.86859348  0.24460177  1
  O  O214  1  0.22575790  0.86545116  0.58471597  1
  O  O215  1  0.21689265  0.86922532  0.90750503  1
  O  O216  1  0.72073179  0.36459620  0.23558777  1
  O  O217  1  0.71023237  0.37788433  0.56755476  1
  O  O218  1  0.71895268  0.36893502  0.91122835  1
  O  O219  1  0.72002868  0.86905049  0.23697645  1
  O  O220  1  0.72373407  0.86377402  0.58320382  1
  O  O221  1  0.72119953  0.86635496  0.91020491  1
  O  O222  1  0.41824408  0.13879338  0.15290259  1
  O  O223  1  0.41221518  0.13267372  0.48286740  1
  O  O224  1  0.41821908  0.13899769  0.82169147  1
  O  O225  1  0.42088724  0.63105725  0.14961006  1
  O  O226  1  0.42089280  0.63563760  0.48123386  1
  O  O227  1  0.41618196  0.63415283  0.81741453  1
  O  O228  1  0.92023851  0.12987540  0.15358064  1
  O  O229  1  0.91195046  0.11808524  0.47682469  1
  O  O230  1  0.91781005  0.13092757  0.82006761  1
  O  O231  1  0.92383101  0.63098152  0.15079872  1
  O  O232  1  0.92613971  0.62884262  0.48552585  1
  O  O233  1  0.92314672  0.63514588  0.82003579  1
  O  O234  1  0.37145078  0.08379540  0.01688310  1
  O  O235  1  0.37335554  0.08071731  0.34740646  1
  O  O236  1  0.36762676  0.08642846  0.68496811  1
  O  O237  1  0.36820888  0.57950617  0.01489711  1
  O  O238  1  0.36544709  0.57995987  0.34671396  1
  O  O239  1  0.36158287  0.58689081  0.68066335  1
  O  O240  1  0.87372052  0.07743102  0.01796520  1
  O  O241  1  0.85768623  0.07691579  0.34028377  1
  O  O242  1  0.86663600  0.07945094  0.68439737  1
  O  O243  1  0.87186799  0.57689248  0.01606791  1
  O  O244  1  0.87248846  0.57066553  0.35147942  1
  O  O245  1  0.86949360  0.59562379  0.68335437  1
  O  O246  1  0.07993079  0.37030473  0.18602873  1
  O  O247  1  0.07413582  0.36118278  0.51328628  1
  O  O248  1  0.08006012  0.36994661  0.84954504  1
  O  O249  1  0.07532487  0.87084524  0.18566355  1
  O  O250  1  0.08908817  0.87494062  0.52138957  1
  O  O251  1  0.07928779  0.87341581  0.85496640  1
  O  O252  1  0.58254531  0.36536082  0.17945892  1
  O  O253  1  0.57112300  0.37054557  0.51515469  1
  O  O254  1  0.58197183  0.36543368  0.84328451  1
  O  O255  1  0.58232954  0.86716672  0.17837206  1
  O  O256  1  0.58664361  0.87435726  0.52251875  1
  O  O257  1  0.58352509  0.86464150  0.84945062  1
  O  O258  1  0.13522489  0.41605235  0.32168024  1
  O  O259  1  0.12413550  0.43139262  0.64709435  1
  O  O260  1  0.13143866  0.42341994  0.98544692  1
  O  O261  1  0.12807576  0.92789852  0.32057670  1
  O  O262  1  0.13743208  0.92126390  0.65784599  1
  O  O263  1  0.13639766  0.91543141  0.99152607  1
  O  O264  1  0.63618560  0.40647929  0.31534773  1
  O  O265  1  0.62780910  0.42932102  0.64837432  1
  O  O266  1  0.62434102  0.41489383  0.97871187  1
  O  O267  1  0.63321025  0.91598857  0.31483229  1
  O  O268  1  0.63633682  0.91981615  0.65782363  1
  O  O269  1  0.63427771  0.91697482  0.98584913  1
  O  O270  1  0.03335640  0.20201753  0.10531680  1
  O  O271  1  0.03180023  0.19752544  0.43454017  1
  O  O272  1  0.03030540  0.20053616  0.77685534  1
  O  O273  1  0.03618190  0.70003616  0.10730909  1
  O  O274  1  0.03949746  0.69217520  0.43880054  1
  O  O275  1  0.02898809  0.70622802  0.77168164  1
  O  O276  1  0.52562499  0.20025815  0.10123914  1
  O  O277  1  0.53532701  0.20109918  0.43356833  1
  O  O278  1  0.52902629  0.19929770  0.77132538  1
  O  O279  1  0.52639940  0.70621689  0.10070663  1
  O  O280  1  0.53130275  0.71081019  0.43819627  1
  O  O281  1  0.52725548  0.70329348  0.76740661  1
  O  O282  1  0.29951209  0.46833765  0.06225093  1
  O  O283  1  0.30222639  0.46885149  0.39540697  1
  O  O284  1  0.29667084  0.46972505  0.73001763  1
  O  O285  1  0.30190297  0.97027553  0.05431631  1
  O  O286  1  0.29581057  0.97690282  0.40289240  1
  O  O287  1  0.30014369  0.97386547  0.73240256  1
  O  O288  1  0.81779608  0.46642244  0.06809691  1
  O  O289  1  0.81935410  0.44587484  0.39149445  1
  O  O290  1  0.80104465  0.46861757  0.73464685  1
  O  O291  1  0.79924163  0.96657801  0.06109644  1
  O  O292  1  0.79033799  0.96848830  0.39402101  1
  O  O293  1  0.79809766  0.97226770  0.73178575  1
  O  O294  1  0.47192356  0.30325457  0.22984457  1
  O  O295  1  0.45701039  0.31233842  0.56291211  1
  O  O296  1  0.46719698  0.30522532  0.89525433  1
  O  O297  1  0.47298048  0.79768571  0.22049745  1
  O  O298  1  0.46945597  0.80104794  0.56702302  1
  O  O299  1  0.47203030  0.79899891  0.89438760  1
  O  O300  1  0.97403046  0.29407138  0.23425588  1
  O  O301  1  0.96494935  0.28708632  0.56023011  1
  O  O302  1  0.97170188  0.30117470  0.89800536  1
  O  O303  1  0.96103056  0.79281093  0.22239575  1
  O  O304  1  0.96601749  0.80267722  0.56888219  1
  O  O305  1  0.97159471  0.79938618  0.89942230  1
  O  O306  1  0.18562438  0.03476414  0.27057413  1
  O  O307  1  0.20825228  0.02541018  0.60585625  1
  O  O308  1  0.20129753  0.03216016  0.94069032  1
  O  O309  1  0.19860065  0.52930660  0.27085551  1
  O  O310  1  0.20043796  0.54146166  0.60794537  1
  O  O311  1  0.19920677  0.53043969  0.93719873  1
  O  O312  1  0.69299693  0.02747189  0.26631976  1
  O  O313  1  0.70282058  0.02567236  0.60416409  1
  O  O314  1  0.70523377  0.02890172  0.93938997  1
  O  O315  1  0.69694426  0.53053631  0.26713511  1
  O  O316  1  0.69036321  0.55903593  0.61202447  1
  O  O317  1  0.69995582  0.53133280  0.93011130  1
  O  O318  1  0.09121347  0.09186182  0.04204622  1
  O  O319  1  0.09796191  0.09188587  0.37757351  1
  O  O320  1  0.08681179  0.08585622  0.71905648  1
  O  O321  1  0.07780719  0.58160430  0.03631878  1
  O  O322  1  0.09048655  0.58251684  0.36655702  1
  O  O323  1  0.08272045  0.59402077  0.70791651  1
  O  O324  1  0.58537600  0.09073518  0.04146590  1
  O  O325  1  0.58899290  0.08944482  0.36809574  1
  O  O326  1  0.58514663  0.08745651  0.70591250  1
  O  O327  1  0.56671195  0.58636317  0.03284535  1
  O  O328  1  0.56735804  0.58824087  0.37143508  1
  O  O329  1  0.58359715  0.59353578  0.70125791  1
  O  O330  1  0.41423411  0.41790989  0.12836316  1
  O  O331  1  0.41607232  0.41845393  0.46305110  1
  O  O332  1  0.40695134  0.41247447  0.79735702  1
  O  O333  1  0.42433705  0.92803373  0.12068948  1
  O  O334  1  0.40881340  0.92111056  0.46005787  1
  O  O335  1  0.40665719  0.91142140  0.79368030  1
  O  O336  1  0.92289883  0.41386382  0.14194742  1
  O  O337  1  0.91853936  0.38960550  0.46687473  1
  O  O338  1  0.90856734  0.40844071  0.79886867  1
  O  O339  1  0.91259047  0.91552933  0.12900470  1
  O  O340  1  0.90057586  0.90792894  0.45064760  1
  O  O341  1  0.90996815  0.91798903  0.79510268  1
  O  O342  1  0.41769053  0.41430376  0.29786224  1
  O  O343  1  0.40935185  0.42033307  0.63783838  1
  O  O344  1  0.41299322  0.41471823  0.96488971  1
  O  O345  1  0.42677058  0.91713383  0.28335000  1
  O  O346  1  0.41276703  0.91026409  0.62840250  1
  O  O347  1  0.41396947  0.90955165  0.95688774  1
  O  O348  1  0.92506889  0.40743408  0.30291053  1
  O  O349  1  0.90046919  0.39225758  0.62233155  1
  O  O350  1  0.91919979  0.41383599  0.96508863  1
  O  O351  1  0.91241156  0.90821002  0.28805699  1
  O  O352  1  0.90968246  0.91196029  0.63499039  1
  O  O353  1  0.91295606  0.90922223  0.96192770  1
  O  O354  1  0.08401357  0.08553715  0.19005828  1
  O  O355  1  0.09766292  0.08267706  0.54604403  1
  O  O356  1  0.09035345  0.08723193  0.87372008  1
  O  O357  1  0.08657814  0.58367781  0.20490927  1
  O  O358  1  0.08788474  0.59154916  0.53729854  1
  O  O359  1  0.08638551  0.58427872  0.87514387  1
  O  O360  1  0.58331158  0.08154603  0.19717268  1
  O  O361  1  0.57807063  0.05713113  0.53486813  1
  O  O362  1  0.59684319  0.08969536  0.88017561  1
  O  O363  1  0.58932387  0.58991344  0.20385226  1
  O  O364  1  0.58038192  0.60243449  0.53246416  1
  O  O365  1  0.59137688  0.58873090  0.86816883  1
  O  O366  1  0.14140148  0.22591267  0.06136598  1
  O  O367  1  0.13194445  0.22627292  0.38345509  1
  O  O368  1  0.13228585  0.21599959  0.72351964  1
  O  O369  1  0.13838683  0.71103609  0.05187869  1
  O  O370  1  0.14140680  0.71756143  0.38882664  1
  O  O371  1  0.13996169  0.72635204  0.73015636  1
  O  O372  1  0.63739445  0.22439580  0.06161301  1
  O  O373  1  0.64014842  0.22324452  0.38489066  1
  O  O374  1  0.63667708  0.22080647  0.72663864  1
  O  O375  1  0.63692535  0.71468338  0.05641852  1
  O  O376  1  0.63926141  0.71365851  0.38927843  1
  O  O377  1  0.63796015  0.72798025  0.72743536  1
  O  O378  1  0.28185613  0.36208915  0.11009948  1
  O  O379  1  0.28263774  0.36349531  0.44329350  1
  O  O380  1  0.27154480  0.36136542  0.77255963  1
  O  O381  1  0.29890614  0.87318865  0.11667336  1
  O  O382  1  0.27701921  0.86676634  0.44495830  1
  O  O383  1  0.27207028  0.86539649  0.77473656  1
  O  O384  1  0.78622395  0.35949734  0.11017593  1
  O  O385  1  0.77994316  0.35404192  0.44524914  1
  O  O386  1  0.77318841  0.35917757  0.77599529  1
  O  O387  1  0.77956571  0.85668164  0.10420974  1
  O  O388  1  0.76835285  0.85929745  0.43793896  1
  O  O389  1  0.77693194  0.86399904  0.77659510  1
  O  O390  1  0.36193862  0.28027652  0.27157471  1
  O  O391  1  0.35481992  0.28570276  0.61302898  1
  O  O392  1  0.35970120  0.27982495  0.93943125  1
  O  O393  1  0.37073906  0.78833097  0.27427396  1
  O  O394  1  0.36160287  0.77668198  0.61055466  1
  O  O395  1  0.36387662  0.77590353  0.93820223  1
  O  O396  1  0.85953563  0.27473724  0.27101421  1
  O  O397  1  0.85759739  0.25752248  0.60266769  1
  O  O398  1  0.86489438  0.27980681  0.94387894  1
  O  O399  1  0.85917653  0.77776603  0.27584005  1
  O  O400  1  0.86117803  0.77690261  0.61593018  1
  O  O401  1  0.86263317  0.77531866  0.94224519  1
  O  O402  1  0.22115901  0.14038140  0.22836211  1
  O  O403  1  0.23070619  0.13554568  0.56383687  1
  O  O404  1  0.22439400  0.13962347  0.89582777  1
  O  O405  1  0.22034951  0.64086927  0.23002331  1
  O  O406  1  0.22143658  0.64288045  0.55566263  1
  O  O407  1  0.21832782  0.63556130  0.88788130  1
  O  O408  1  0.71893047  0.13387463  0.22110382  1
  O  O409  1  0.70245535  0.13432170  0.55533992  1
  O  O410  1  0.73059202  0.13703569  0.89594481  1
  O  O411  1  0.72468857  0.63541749  0.22166378  1
  O  O412  1  0.71563303  0.64686572  0.54971350  1
  O  O413  1  0.72498177  0.64195582  0.88981775  1
  O  O414  1  0.49065849  0.33282635  0.02849277  1
  O  O415  1  0.49221411  0.33104165  0.36266857  1
  O  O416  1  0.48783938  0.33469711  0.69588980  1
  O  O417  1  0.49312425  0.83411902  0.02763133  1
  O  O418  1  0.50327714  0.84311230  0.35676530  1
  O  O419  1  0.49048407  0.83497596  0.70068859  1
  O  O420  1  0.99530622  0.33367248  0.03226976  1
  O  O421  1  0.98883837  0.31687524  0.36568288  1
  O  O422  1  0.98556037  0.31863776  0.69228167  1
  O  O423  1  0.99263900  0.83396144  0.03208489  1
  O  O424  1  0.99360183  0.83177981  0.35765335  1
  O  O425  1  0.99142090  0.83748980  0.70348290  1
  O  O426  1  0.17400581  0.00808047  0.13961816  1
  O  O427  1  0.17464469  0.00874963  0.47180296  1
  O  O428  1  0.17059476  0.00874391  0.80773297  1
  O  O429  1  0.16899823  0.51051727  0.13864909  1
  O  O430  1  0.16789013  0.50960532  0.47343013  1
  O  O431  1  0.16110854  0.50525247  0.80216879  1
  O  O432  1  0.66380020  0.00403763  0.13232537  1
  O  O433  1  0.66766575  0.00181998  0.46873619  1
  O  O434  1  0.66966625  0.00936940  0.80632413  1
  O  O435  1  0.66111383  0.50581260  0.13224391  1
  O  O436  1  0.65728400  0.51133520  0.47604810  1
  O  O437  1  0.66988904  0.51336612  0.79730654  1
  O  O438  1  0.00722046  0.15171653  0.29912563  1
  O  O439  1  0.00113860  0.15064528  0.64101384  1
  O  O440  1  0.01189067  0.16934223  0.97216946  1
  O  O441  1  0.00911765  0.66237204  0.30450391  1
  O  O442  1  0.00969393  0.67418277  0.63845917  1
  O  O443  1  0.00371528  0.66404085  0.97117990  1
  O  O444  1  0.50952614  0.16431376  0.29859443  1
  O  O445  1  0.50515307  0.16532445  0.63772179  1
  O  O446  1  0.50938700  0.16850381  0.96945788  1
  O  O447  1  0.50646528  0.67383425  0.30334784  1
  O  O448  1  0.50841037  0.67612617  0.63487567  1
  O  O449  1  0.50571830  0.67306851  0.96623487  1
  O  O450  1  0.33368985  0.49359078  0.19641376  1
  O  O451  1  0.33564687  0.49477675  0.53004733  1
  O  O452  1  0.32674488  0.49147942  0.86240883  1
  O  O453  1  0.35011554  1.01088566  0.18976331  1
  O  O454  1  0.33628074  0.99488468  0.53700512  1
  O  O455  1  0.33203490  0.99337475  0.86456507  1
  O  O456  1  0.83702268  0.48977849  0.20086094  1
  O  O457  1  0.84697897  0.48559561  0.52617933  1
  O  O458  1  0.83247970  0.48774035  0.86769871  1
  O  O459  1  0.82844172  0.98778927  0.19383565  1
  O  O460  1  0.82928434  0.98702076  0.52769696  1
  O  O461  1  0.83202393  0.99362184  0.86546749  1
