# generated using pymatgen
data_Na31Fe20(SO4)36
_symmetry_space_group_name_H-M   'P 1'
_cell_length_a   18.07300265
_cell_length_b   18.07398735
_cell_length_c   19.71368923
_cell_angle_alpha   107.59807255
_cell_angle_beta   107.61145468
_cell_angle_gamma   90.72591740
_symmetry_Int_Tables_number   1
_chemical_formula_structural   Na31Fe20(SO4)36
_chemical_formula_sum   'Na62 Fe40 S72 O288'
_cell_volume   5811.87906420
_cell_formula_units_Z   2
loop_
 _symmetry_equiv_pos_site_id
 _symmetry_equiv_pos_as_xyz
  1  'x, y, z'
loop_
 _atom_site_type_symbol
 _atom_site_label
 _atom_site_symmetry_multiplicity
 _atom_site_fract_x
 _atom_site_fract_y
 _atom_site_fract_z
 _atom_site_occupancy
  Na  Na0  1  0.14206452  0.37074945  0.09049913  1
  Na  Na1  1  0.13345384  0.36771798  0.41397275  1
  Na  Na2  1  0.13518129  0.36054836  0.74618151  1
  Na  Na3  1  0.13871744  0.86167609  0.07895933  1
  Na  Na4  1  0.13824853  0.86042023  0.42128623  1
  Na  Na5  1  0.13732716  0.86701170  0.75276514  1
  Na  Na6  1  0.63700284  0.36322123  0.09082102  1
  Na  Na7  1  0.62885893  0.35925578  0.41740663  1
  Na  Na8  1  0.63070191  0.37260203  0.75474240  1
  Na  Na9  1  0.63048586  0.86696350  0.07845128  1
  Na  Na10  1  0.63421409  0.87037635  0.41714295  1
  Na  Na11  1  0.63027952  0.86995443  0.75177532  1
  Na  Na12  1  0.37215032  0.13819894  0.25762583  1
  Na  Na13  1  0.35799422  0.14382831  0.58876349  1
  Na  Na14  1  0.37258436  0.14951539  0.92860603  1
  Na  Na15  1  0.36825616  0.62994549  0.25198999  1
  Na  Na16  1  0.35992600  0.63075257  0.57562470  1
  Na  Na17  1  0.37442875  0.63685308  0.91796418  1
  Na  Na18  1  0.86529938  0.13771448  0.25173614  1
  Na  Na19  1  0.84275709  0.13431816  0.55883238  1
  Na  Na20  1  0.87526552  0.13098393  0.91945077  1
  Na  Na21  1  0.85341789  0.61944463  0.24151393  1
  Na  Na22  1  0.86967001  0.63566933  0.58760856  1
  Na  Na23  1  0.87171461  0.63131950  0.92223474  1
  Na  Na24  1  1.00136414  0.01096242  0.06566049  1
  Na  Na25  1  0.54635403  0.48317893  0.02926325  1
  Na  Na26  1  0.98876950  0.00946693  0.76478781  1
  Na  Na27  1  0.99445258  0.50840394  0.06361859  1
  Na  Na28  1  0.99024603  0.50217952  0.76612564  1
  Na  Na29  1  0.49644334  0.02223948  0.07246674  1
  Na  Na30  1  0.49721506  0.02369429  0.41347002  1
  Na  Na31  1  0.95297758  0.50499822  0.40322729  1
  Na  Na32  1  0.98147321  0.00731885  0.41686125  1
  Na  Na33  1  0.00448956  0.99122421  0.24701323  1
  Na  Na34  1  0.49831804  0.44058108  0.22650320  1
  Na  Na35  1  0.54520494  0.99144177  0.25257907  1
  Na  Na36  1  0.50257925  0.44869086  0.56669696  1
  Na  Na37  1  0.01503111  0.48762128  0.58560399  1
  Na  Na38  1  0.00755115  0.99323169  0.58954144  1
  Na  Na39  1  0.48907266  1.04124229  0.86914642  1
  Na  Na40  1  0.00846776  0.48558460  0.24739716  1
  Na  Na41  1  0.49856473  0.99793842  0.59431320  1
  Na  Na42  1  0.74031039  0.23767845  0.35528678  1
  Na  Na43  1  0.74032824  0.74097133  0.33668061  1
  Na  Na44  1  0.27394819  0.27399157  0.33105304  1
  Na  Na45  1  0.75271001  0.25327517  0.65686591  1
  Na  Na46  1  0.73831487  0.23968509  0.00287489  1
  Na  Na47  1  0.24036302  0.73648912  0.34442370  1
  Na  Na48  1  0.25881967  0.75580250  0.65629480  1
  Na  Na49  1  0.74001118  0.74285532  0.67535068  1
  Na  Na50  1  0.71699014  0.72019305  0.00051709  1
  Na  Na51  1  0.26727889  0.26741073  -0.00396110  1
  Na  Na52  1  0.73830231  0.24194511  0.83750533  1
  Na  Na53  1  0.24870266  0.74508042  0.84360036  1
  Na  Na54  1  0.74386317  0.74321359  0.50683237  1
  Na  Na55  1  0.72780233  0.72440255  0.16693214  1
  Na  Na56  1  0.26366604  0.26113396  0.82154890  1
  Na  Na57  1  0.75208923  0.25153585  0.17224167  1
  Na  Na58  1  0.29063608  0.29186250  0.17151081  1
  Na  Na59  1  0.25766900  0.25835635  0.49695494  1
  Na  Na60  1  0.25705766  0.75893668  0.16179342  1
  Na  Na61  1  0.73425769  0.73599891  0.84227119  1
  Fe  Fe62  1  0.46235453  0.80490458  0.45208188  1
  Fe  Fe63  1  0.46925069  0.80113568  0.78961708  1
  Fe  Fe64  1  0.46882819  0.30315016  0.79228684  1
  Fe  Fe65  1  0.96788772  0.30544738  0.45054058  1
  Fe  Fe66  1  0.46265628  0.80997451  0.11692878  1
  Fe  Fe67  1  0.96455920  0.81042228  0.78657493  1
  Fe  Fe68  1  0.96560124  0.80632738  0.45183630  1
  Fe  Fe69  1  0.96797900  0.30236362  0.11749410  1
  Fe  Fe70  1  0.96198062  0.80469815  0.11489274  1
  Fe  Fe71  1  0.96508931  0.30969933  0.78775711  1
  Fe  Fe72  1  0.19566376  0.53579499  0.71656801  1
  Fe  Fe73  1  0.68921987  0.03850419  0.71369564  1
  Fe  Fe74  1  0.19079818  0.53828493  0.04695587  1
  Fe  Fe75  1  0.19610358  0.53392547  0.37950013  1
  Fe  Fe76  1  0.69322168  0.03242016  0.04070617  1
  Fe  Fe77  1  0.19386962  0.03797190  0.71729391  1
  Fe  Fe78  1  0.19151551  0.03093111  0.38590183  1
  Fe  Fe79  1  0.19512915  0.03522769  0.05090039  1
  Fe  Fe80  1  0.69824008  0.52623309  0.37555475  1
  Fe  Fe81  1  0.69109434  0.53549034  0.71408555  1
  Fe  Fe82  1  0.03669760  0.19770675  0.88423129  1
  Fe  Fe83  1  0.03842384  0.69594142  0.88416287  1
  Fe  Fe84  1  0.53179732  0.68623430  0.53910927  1
  Fe  Fe85  1  0.53279350  0.19946949  0.21497968  1
  Fe  Fe86  1  0.53261066  0.68530311  0.20669982  1
  Fe  Fe87  1  0.03792430  0.19241793  0.55183832  1
  Fe  Fe88  1  0.04122371  0.19174219  0.21883068  1
  Fe  Fe89  1  0.02941693  0.69362510  0.21498646  1
  Fe  Fe90  1  0.03597836  0.69182302  0.54729592  1
  Fe  Fe91  1  0.53036962  0.19999675  0.54221938  1
  Fe  Fe92  1  0.79884918  0.46549726  0.95558645  1
  Fe  Fe93  1  0.31371504  0.46503030  0.62730364  1
  Fe  Fe94  1  0.31334992  0.47097168  0.95579871  1
  Fe  Fe95  1  0.80800935  0.96105141  0.94722934  1
  Fe  Fe96  1  0.31157690  0.96398651  0.62309695  1
  Fe  Fe97  1  0.80159835  0.96875376  0.61475054  1
  Fe  Fe98  1  0.79898179  0.96695406  0.28443658  1
  Fe  Fe99  1  0.80921608  0.46373148  0.62028251  1
  Fe  Fe100  1  0.30536313  0.96717341  0.95292945  1
  Fe  Fe101  1  0.30521632  0.96524248  0.28616068  1
  S  S102  1  0.35865546  0.13928770  0.08677865  1
  S  S103  1  0.35381674  0.13865169  0.42014654  1
  S  S104  1  0.35922846  0.13846934  0.75065022  1
  S  S105  1  0.35437532  0.64813717  0.08418542  1
  S  S106  1  0.35645768  0.64097442  0.41377257  1
  S  S107  1  0.35442133  0.64362655  0.74898070  1
  S  S108  1  0.86678226  0.13327616  0.08291261  1
  S  S109  1  0.86525939  0.13832347  0.41430799  1
  S  S110  1  0.86071404  0.14097854  0.74913621  1
  S  S111  1  0.85836794  0.63928645  0.08139174  1
  S  S112  1  0.85939687  0.64501658  0.41833011  1
  S  S113  1  0.86228993  0.64082575  0.75086949  1
  S  S114  1  0.14174576  0.35895035  0.25038757  1
  S  S115  1  0.14026272  0.35976439  0.58591538  1
  S  S116  1  0.14009447  0.36231236  0.91682377  1
  S  S117  1  0.13589265  0.86007974  0.25075248  1
  S  S118  1  0.13883816  0.86225202  0.58613637  1
  S  S119  1  0.13883388  0.86349123  0.91640922  1
  S  S120  1  0.64773986  0.35227958  0.25684420  1
  S  S121  1  0.64669834  0.36049772  0.58667752  1
  S  S122  1  0.64253064  0.35431818  0.91492163  1
  S  S123  1  0.64058749  0.85660820  0.24833437  1
  S  S124  1  0.63767450  0.85887354  0.58163556  1
  S  S125  1  0.64395975  0.85734061  0.91284924  1
  S  S126  1  0.07488830  0.17309936  0.04657739  1
  S  S127  1  0.06872909  0.16416600  0.37715978  1
  S  S128  1  0.06438995  0.16817589  0.71094563  1
  S  S129  1  0.06761662  0.67389851  0.04488652  1
  S  S130  1  0.06389626  0.66865516  0.37431262  1
  S  S131  1  0.06753509  0.67241992  0.71160501  1
  S  S132  1  0.56855808  0.16367731  0.04341373  1
  S  S133  1  0.56621207  0.16611003  0.37630077  1
  S  S134  1  0.56462228  0.17468171  0.70652346  1
  S  S135  1  0.56141402  0.67844160  0.04630632  1
  S  S136  1  0.57147323  0.67263112  0.37636182  1
  S  S137  1  0.56668405  0.67102271  0.70408240  1
  S  S138  1  0.32793665  0.44369283  0.11764090  1
  S  S139  1  0.32158844  0.43255367  0.46068850  1
  S  S140  1  0.32675150  0.42800546  0.79024162  1
  S  S141  1  0.33048415  0.93525223  0.12986585  1
  S  S142  1  0.32844676  0.93058296  0.45836709  1
  S  S143  1  0.32860399  0.93283518  0.79041503  1
  S  S144  1  0.83607130  0.42545498  0.12136057  1
  S  S145  1  0.83729986  0.43481195  0.46301738  1
  S  S146  1  0.83046018  0.43230926  0.79300112  1
  S  S147  1  0.82912058  0.92852765  0.12154687  1
  S  S148  1  0.83434866  0.93231578  0.45712578  1
  S  S149  1  0.82973153  0.93337879  0.78567763  1
  S  S150  1  0.43868154  0.32699062  0.29249662  1
  S  S151  1  0.43368393  0.32956382  0.62927083  1
  S  S152  1  0.43567175  0.33520930  0.95694709  1
  S  S153  1  0.43271040  0.83453345  0.29332646  1
  S  S154  1  0.43239642  0.82827895  0.62411776  1
  S  S155  1  0.43195671  0.83930444  0.95895697  1
  S  S156  1  0.94064200  0.32691991  0.28853100  1
  S  S157  1  0.93444538  0.32936064  0.62639822  1
  S  S158  1  0.92944397  0.32783994  0.95563785  1
  S  S159  1  0.92852629  0.83022995  0.28928870  1
  S  S160  1  0.93385790  0.83518238  0.62558242  1
  S  S161  1  0.93369593  0.83047949  0.95546782  1
  S  S162  1  0.16617222  0.06420441  0.21102069  1
  S  S163  1  0.16368552  0.06301347  0.54248682  1
  S  S164  1  0.17240228  0.07231429  0.87848128  1
  S  S165  1  0.15710370  0.56904395  0.20563700  1
  S  S166  1  0.15981167  0.56466537  0.54003395  1
  S  S167  1  0.16947300  0.56899697  0.87341218  1
  S  S168  1  0.67191863  0.06902893  0.20629729  1
  S  S169  1  0.66307653  0.06328020  0.54298392  1
  S  S170  1  0.67978515  0.07001949  0.87746894  1
  S  S171  1  0.66378352  0.56055807  0.20835908  1
  S  S172  1  0.67825625  0.56953131  0.54439698  1
  S  S173  1  0.67839950  0.56904463  0.87787960  1
  O  O174  1  0.36102203  0.21667682  0.07819693  1
  O  O175  1  0.35531469  0.21646406  0.41338329  1
  O  O176  1  0.37208302  0.21910329  0.74567438  1
  O  O177  1  0.36248240  0.72888653  0.08073997  1
  O  O178  1  0.36774279  0.72354961  0.41026050  1
  O  O179  1  0.36500976  0.72379983  0.74197490  1
  O  O180  1  0.87494707  0.21011106  0.07063266  1
  O  O181  1  0.87880701  0.21553722  0.40242421  1
  O  O182  1  0.87063973  0.22018625  0.74224934  1
  O  O183  1  0.87298497  0.71284102  0.06446258  1
  O  O184  1  0.86772843  0.72638437  0.41396670  1
  O  O185  1  0.87275997  0.71795185  0.73880429  1
  O  O186  1  0.28439852  0.12371486  0.10169725  1
  O  O187  1  0.27762706  0.12142372  0.43252862  1
  O  O188  1  0.27674294  0.13272516  0.75315340  1
  O  O189  1  0.27479167  0.63621677  0.09096155  1
  O  O190  1  0.27691798  0.63490393  0.42247240  1
  O  O191  1  0.27090692  0.63572891  0.75071512  1
  O  O192  1  0.78764698  0.12536855  0.09079121  1
  O  O193  1  0.78970894  0.13277666  0.42469810  1
  O  O194  1  0.78293569  0.13273350  0.75908128  1
  O  O195  1  0.77956856  0.63419501  0.08555524  1
  O  O196  1  0.77972792  0.63456796  0.42428016  1
  O  O197  1  0.78168816  0.63402944  0.75520259  1
  O  O198  1  0.13193016  0.28203906  0.26412366  1
  O  O199  1  0.12821702  0.28281991  0.59610380  1
  O  O200  1  0.13113958  0.28408073  0.92776849  1
  O  O201  1  0.12585676  0.78199871  0.25966921  1
  O  O202  1  0.12829019  0.78438088  0.59618644  1
  O  O203  1  0.13135028  0.78496542  0.92497127  1
  O  O204  1  0.63196872  0.27172441  0.26629903  1
  O  O205  1  0.63239658  0.28007257  0.58961674  1
  O  O206  1  0.64377704  0.27369182  0.91533799  1
  O  O207  1  0.63174483  0.77414551  0.24957500  1
  O  O208  1  0.63224511  0.77844574  0.58706731  1
  O  O209  1  0.63941143  0.77926645  0.91909771  1
  O  O210  1  0.21883340  0.36742476  0.24288272  1
  O  O211  1  0.21928733  0.36896782  0.57993545  1
  O  O212  1  0.21921903  0.37009563  0.90915624  1
  O  O213  1  0.21462138  0.86911323  0.24271582  1
  O  O214  1  0.21809486  0.87188920  0.58087249  1
  O  O215  1  0.21641353  0.87347106  0.90551645  1
  O  O216  1  0.72766584  0.35735749  0.25550127  1
  O  O217  1  0.73029119  0.36852078  0.58901899  1
  O  O218  1  0.71882255  0.37316603  0.89969643  1
  O  O219  1  0.71930407  0.86607542  0.23868292  1
  O  O220  1  0.71584228  0.87082380  0.57178486  1
  O  O221  1  0.72050700  0.87071293  0.89882026  1
  O  O222  1  0.42391729  0.13043720  0.15191306  1
  O  O223  1  0.41703355  0.13023318  0.48590914  1
  O  O224  1  0.41262193  0.12649529  0.81742863  1
  O  O225  1  0.41219961  0.63959741  0.15272992  1
  O  O226  1  0.41491679  0.63467965  0.48344438  1
  O  O227  1  0.40866177  0.63513437  0.81600885  1
  O  O228  1  0.92593201  0.12705962  0.15186326  1
  O  O229  1  0.92789353  0.12975527  0.48156395  1
  O  O230  1  0.92171521  0.13054455  0.81586834  1
  O  O231  1  0.91611522  0.63635352  0.15268444  1
  O  O232  1  0.91750594  0.63871206  0.48891559  1
  O  O233  1  0.91968258  0.63562708  0.82121495  1
  O  O234  1  0.36571585  0.07970574  0.01757275  1
  O  O235  1  0.36146805  0.07939963  0.35093173  1
  O  O236  1  0.36528292  0.08138459  0.68000325  1
  O  O237  1  0.36259502  0.59178531  0.01517267  1
  O  O238  1  0.36261792  0.58528224  0.34617855  1
  O  O239  1  0.35876805  0.58596478  0.67824094  1
  O  O240  1  0.87715929  0.07161144  0.01693631  1
  O  O241  1  0.87329288  0.07660244  0.34647853  1
  O  O242  1  0.86721559  0.08193415  0.68017968  1
  O  O243  1  0.87142073  0.57286444  0.01864623  1
  O  O244  1  0.87146395  0.58853996  0.35300590  1
  O  O245  1  0.87362634  0.57860005  0.68631464  1
  O  O246  1  0.08078495  0.36354407  0.18066381  1
  O  O247  1  0.08157789  0.36651607  0.51609208  1
  O  O248  1  0.08143156  0.36585412  0.84644903  1
  O  O249  1  0.07631350  0.86915848  0.18312479  1
  O  O250  1  0.08038613  0.86813915  0.51624766  1
  O  O251  1  0.07856109  0.87112319  0.84874137  1
  O  O252  1  0.59020511  0.35871474  0.18886384  1
  O  O253  1  0.59380236  0.37468648  0.52084806  1
  O  O254  1  0.57900665  0.36170396  0.84731490  1
  O  O255  1  0.58100726  0.86975948  0.18222210  1
  O  O256  1  0.57648323  0.86742752  0.51519315  1
  O  O257  1  0.58162160  0.86726408  0.84750899  1
  O  O258  1  0.12888037  0.42059289  0.31512756  1
  O  O259  1  0.12893179  0.42166032  0.65138543  1
  O  O260  1  0.12953771  0.42248719  0.98256190  1
  O  O261  1  0.12735506  0.91976106  0.31876429  1
  O  O262  1  0.12680485  0.92306333  0.65191967  1
  O  O263  1  0.13248642  0.92272352  0.98521278  1
  O  O264  1  0.63728396  0.41128465  0.32484695  1
  O  O265  1  0.63653748  0.41766942  0.65592811  1
  O  O266  1  0.63713198  0.40942271  0.98378064  1
  O  O267  1  0.63428455  0.91167043  0.31726728  1
  O  O268  1  0.63022782  0.91620908  0.65080964  1
  O  O269  1  0.64047113  0.91657452  0.98307586  1
  O  O270  1  0.03666434  0.20069067  0.10671492  1
  O  O271  1  0.03779908  0.19955984  0.44090598  1
  O  O272  1  0.02888638  0.20025289  0.77227462  1
  O  O273  1  0.03043188  0.70370764  0.10556055  1
  O  O274  1  0.03029950  0.70032754  0.43799246  1
  O  O275  1  0.03058836  0.70159858  0.77235251  1
  O  O276  1  0.54075211  0.18268546  0.11036633  1
  O  O277  1  0.52387819  0.19193214  0.43190495  1
  O  O278  1  0.52562673  0.20370714  0.76439749  1
  O  O279  1  0.52210556  0.71083985  0.10805750  1
  O  O280  1  0.53177812  0.70104060  0.43596947  1
  O  O281  1  0.52835850  0.69875092  0.76162998  1
  O  O282  1  0.29002690  0.47732505  0.05297481  1
  O  O283  1  0.29021823  0.47207049  0.40386676  1
  O  O284  1  0.30013217  0.46780946  0.73031120  1
  O  O285  1  0.29742972  0.96498324  0.06450332  1
  O  O286  1  0.29765408  0.96431921  0.39533179  1
  O  O287  1  0.29740773  0.97009936  0.72934377  1
  O  O288  1  0.80957432  0.45147712  0.05313321  1
  O  O289  1  0.81034590  0.47448332  0.40616937  1
  O  O290  1  0.80341505  0.47550500  0.73719062  1
  O  O291  1  0.80147947  0.96460850  0.06034915  1
  O  O292  1  0.81284376  0.96498187  0.39513941  1
  O  O293  1  0.79874249  0.97086038  0.72560263  1
  O  O294  1  0.47458053  0.28875852  0.22963682  1
  O  O295  1  0.47650008  0.30504879  0.57447573  1
  O  O296  1  0.46235174  0.30484065  0.88906040  1
  O  O297  1  0.46963205  0.80802271  0.23323285  1
  O  O298  1  0.47093016  0.79851094  0.56448979  1
  O  O299  1  0.46814097  0.81839327  0.89943714  1
  O  O300  1  0.97419501  0.28878626  0.22599378  1
  O  O301  1  0.96857885  0.29942984  0.56380536  1
  O  O302  1  0.96618634  0.30050375  0.89418182  1
  O  O303  1  0.96427557  0.79936756  0.22777753  1
  O  O304  1  0.96912591  0.80408161  0.56431594  1
  O  O305  1  0.97123660  0.80032185  0.89511478  1
  O  O306  1  0.19522350  0.02733358  0.27165408  1
  O  O307  1  0.19680031  0.03052678  0.60551708  1
  O  O308  1  0.20113247  0.03623177  0.93972870  1
  O  O309  1  0.17970615  0.53607698  0.26736643  1
  O  O310  1  0.18750760  0.52738088  0.60019015  1
  O  O311  1  0.19915176  0.53422732  0.93491190  1
  O  O312  1  0.69859925  0.03075076  0.26463004  1
  O  O313  1  0.69665534  0.03100436  0.60900442  1
  O  O314  1  0.71173696  0.03028106  0.93676191  1
  O  O315  1  0.68957758  0.52871980  0.27186575  1
  O  O316  1  0.70582644  0.53101016  0.60482018  1
  O  O317  1  0.71207610  0.52809596  0.93513420  1
  O  O318  1  0.09115851  0.09100718  0.04161594  1
  O  O319  1  0.08011037  0.08026951  0.37275206  1
  O  O320  1  0.08059037  0.08571099  0.70795656  1
  O  O321  1  0.08411302  0.59224740  0.03996934  1
  O  O322  1  0.08223222  0.58754373  0.36978952  1
  O  O323  1  0.08376290  0.58993131  0.70490082  1
  O  O324  1  0.58871520  0.07999594  0.02863026  1
  O  O325  1  0.57701991  0.08283931  0.36501287  1
  O  O326  1  0.58425921  0.09330880  0.70380256  1
  O  O327  1  0.59032986  0.60585566  0.05499256  1
  O  O328  1  0.59571084  0.59503299  0.37495778  1
  O  O329  1  0.58907328  0.59071437  0.69819096  1
  O  O330  1  0.40484193  0.42408805  0.11335810  1
  O  O331  1  0.39926330  0.41159905  0.46252797  1
  O  O332  1  0.40405847  0.40088094  0.79202006  1
  O  O333  1  0.41292191  0.91951716  0.13579364  1
  O  O334  1  0.41138208  0.91550667  0.46563643  1
  O  O335  1  0.40888638  0.91397342  0.79375771  1
  O  O336  1  0.91928175  0.40535952  0.12914214  1
  O  O337  1  0.92015269  0.41578377  0.46580421  1
  O  O338  1  0.91279978  0.41653880  0.79698313  1
  O  O339  1  0.91287421  0.91309525  0.12910901  1
  O  O340  1  0.91928193  0.91632062  0.47122185  1
  O  O341  1  0.91070931  0.91499556  0.78714807  1
  O  O342  1  0.41118833  0.39802506  0.27715207  1
  O  O343  1  0.41780430  0.41197562  0.63583843  1
  O  O344  1  0.41382672  0.41619522  0.96090931  1
  O  O345  1  0.41463308  0.91751546  0.30135670  1
  O  O346  1  0.41516752  0.91015889  0.62579919  1
  O  O347  1  0.41064324  0.92203302  0.97068353  1
  O  O348  1  0.93246424  0.40840251  0.29149106  1
  O  O349  1  0.92036460  0.41307595  0.63435726  1
  O  O350  1  0.90495311  0.40723911  0.95904823  1
  O  O351  1  0.91291941  0.91266730  0.29359077  1
  O  O352  1  0.91768060  0.91798407  0.63110129  1
  O  O353  1  0.91606674  0.91199016  0.95930429  1
  O  O354  1  0.08181805  0.07788800  0.20376459  1
  O  O355  1  0.08018790  0.07741317  0.53851456  1
  O  O356  1  0.09100594  0.09164670  0.87248143  1
  O  O357  1  0.07155227  0.58395677  0.19190419  1
  O  O358  1  0.07514127  0.57880607  0.53271429  1
  O  O359  1  0.08833914  0.59016546  0.87001778  1
  O  O360  1  0.58996442  0.08931265  0.20261790  1
  O  O361  1  0.58189397  0.08237283  0.54105010  1
  O  O362  1  0.60454041  0.09458666  0.87953492  1
  O  O363  1  0.58339202  0.58531916  0.20237879  1
  O  O364  1  0.59813455  0.58916220  0.53875275  1
  O  O365  1  0.60637194  0.59682023  0.88546304  1
  O  O366  1  0.14588055  0.22463987  0.06298771  1
  O  O367  1  0.14147227  0.20990632  0.38805230  1
  O  O368  1  0.13562254  0.21791725  0.72513251  1
  O  O369  1  0.13823224  0.72592937  0.06142446  1
  O  O370  1  0.13255659  0.72145370  0.38675890  1
  O  O371  1  0.13848278  0.72474620  0.72870003  1
  O  O372  1  0.63992512  0.21696909  0.06076731  1
  O  O373  1  0.63882705  0.21727620  0.39803486  1
  O  O374  1  0.63681322  0.22623986  0.72350832  1
  O  O375  1  0.62963269  0.73759264  0.06540454  1
  O  O376  1  0.64007751  0.73084381  0.39538252  1
  O  O377  1  0.63810704  0.72582393  0.72206566  1
  O  O378  1  0.27405607  0.37166501  0.10011276  1
  O  O379  1  0.26618515  0.36203691  0.44429321  1
  O  O380  1  0.26805920  0.36252695  0.77387308  1
  O  O381  1  0.28024306  0.86584929  0.12032758  1
  O  O382  1  0.27736216  0.85986525  0.44363584  1
  O  O383  1  0.27459407  0.86275365  0.77381938  1
  O  O384  1  0.78458798  0.35468455  0.10871870  1
  O  O385  1  0.78670762  0.36431933  0.44937092  1
  O  O386  1  0.77944805  0.35940504  0.77160434  1
  O  O387  1  0.77918278  0.85654767  0.10534192  1
  O  O388  1  0.78301397  0.86131880  0.44249187  1
  O  O389  1  0.77840636  0.86210545  0.77006365  1
  O  O390  1  0.36993350  0.27003003  0.27839502  1
  O  O391  1  0.36101762  0.27774989  0.60738407  1
  O  O392  1  0.36461040  0.28266807  0.94326521  1
  O  O393  1  0.36090977  0.78275204  0.27635654  1
  O  O394  1  0.36066972  0.77768406  0.60747814  1
  O  O395  1  0.36271247  0.78494380  0.94240900  1
  O  O396  1  0.86751149  0.27933590  0.27434426  1
  O  O397  1  0.86395170  0.27913063  0.61288939  1
  O  O398  1  0.86214024  0.27161474  0.94074764  1
  O  O399  1  0.85787458  0.77942562  0.27559235  1
  O  O400  1  0.86201789  0.78517291  0.61149768  1
  O  O401  1  0.86334825  0.77861967  0.93965680  1
  O  O402  1  0.21479010  0.13665878  0.22766267  1
  O  O403  1  0.21006423  0.13431959  0.55183255  1
  O  O404  1  0.22544394  0.14199014  0.89281347  1
  O  O405  1  0.20680954  0.64188637  0.22171897  1
  O  O406  1  0.20812473  0.63836504  0.55825373  1
  O  O407  1  0.22197528  0.63676086  0.88359745  1
  O  O408  1  0.72520002  0.13976526  0.22306893  1
  O  O409  1  0.71486638  0.13403439  0.55854700  1
  O  O410  1  0.73843550  0.13633916  0.89292290  1
  O  O411  1  0.71964096  0.63133266  0.22607893  1
  O  O412  1  0.73305900  0.64144049  0.56566922  1
  O  O413  1  0.73890051  0.63441669  0.89157478  1
  O  O414  1  0.49982169  0.33915929  0.02381305  1
  O  O415  1  0.49699927  0.33950603  0.36516629  1
  O  O416  1  0.48728876  0.32910754  0.70492862  1
  O  O417  1  0.49151711  0.84233564  0.03232201  1
  O  O418  1  0.49110962  0.83603917  0.36624363  1
  O  O419  1  0.49018923  0.83222888  0.69777011  1
  O  O420  1  0.99208821  0.33370880  0.02720152  1
  O  O421  1  0.99872817  0.32594694  0.36140769  1
  O  O422  1  0.99571268  0.33180514  0.69859267  1
  O  O423  1  0.99361463  0.83546713  0.02894911  1
  O  O424  1  0.98951418  0.83423073  0.36221209  1
  O  O425  1  0.99389716  0.83732282  0.69798170  1
  O  O426  1  0.16346238  0.00512764  0.13777512  1
  O  O427  1  0.15913651  -0.00001726  0.47069415  1
  O  O428  1  0.16837547  0.01085978  0.80597749  1
  O  O429  1  0.15843580  0.50976708  0.13397329  1
  O  O430  1  0.15971194  0.50816247  0.46728678  1
  O  O431  1  0.16073805  0.50604891  0.80006647  1
  O  O432  1  0.66587140  0.01079047  0.13163421  1
  O  O433  1  0.65948714  0.00151634  0.47417214  1
  O  O434  1  0.67336738  0.01006507  0.80299411  1
  O  O435  1  0.66034867  0.50034389  0.13832071  1
  O  O436  1  0.68052788  0.51260796  0.47305914  1
  O  O437  1  0.66902846  0.51046661  0.80177547  1
  O  O438  1  0.00791172  0.16094884  0.30494624  1
  O  O439  1  0.00455280  0.16323371  0.63764163  1
  O  O440  1  0.01486977  0.17150813  0.97424708  1
  O  O441  1  0.00098290  0.66528119  0.30317938  1
  O  O442  1  0.00846847  0.67151329  0.63915666  1
  O  O443  1  0.00870707  0.67236643  0.97224269  1
  O  O444  1  0.51227333  0.17013774  0.30059278  1
  O  O445  1  0.50753480  0.16914841  0.63166245  1
  O  O446  1  0.50529474  0.16461143  0.97703622  1
  O  O447  1  0.51248898  0.67094021  0.30406203  1
  O  O448  1  0.50964241  0.66725730  0.62924188  1
  O  O449  1  0.50337471  0.67169205  0.97486616  1
  O  O450  1  0.32936558  0.50202235  0.18758054  1
  O  O451  1  0.32474747  0.48974781  0.53647554  1
  O  O452  1  0.33177843  0.49034211  0.86199921  1
  O  O453  1  0.33217342  0.99862579  0.20027357  1
  O  O454  1  0.32961829  0.99168322  0.52992509  1
  O  O455  1  0.33155749  0.99331683  0.86267400  1
  O  O456  1  0.83959574  0.48944721  0.18822062  1
  O  O457  1  0.84633345  0.49311246  0.53933894  1
  O  O458  1  0.83164453  0.48633894  0.86806764  1
  O  O459  1  0.83094878  0.98845873  0.19398853  1
  O  O460  1  0.83269960  0.99341038  0.52814905  1
  O  O461  1  0.83496435  0.99148201  0.85934473  1
