# generated using pymatgen
data_Na31Fe20(SO4)36
_symmetry_space_group_name_H-M   'P 1'
_cell_length_a   18.06599783
_cell_length_b   18.06992652
_cell_length_c   19.70033872
_cell_angle_alpha   107.55475706
_cell_angle_beta   107.58573484
_cell_angle_gamma   90.73654080
_symmetry_Int_Tables_number   1
_chemical_formula_structural   Na31Fe20(SO4)36
_chemical_formula_sum   'Na62 Fe40 S72 O288'
_cell_volume   5806.75393152
_cell_formula_units_Z   2
loop_
 _symmetry_equiv_pos_site_id
 _symmetry_equiv_pos_as_xyz
  1  'x, y, z'
loop_
 _atom_site_type_symbol
 _atom_site_label
 _atom_site_symmetry_multiplicity
 _atom_site_fract_x
 _atom_site_fract_y
 _atom_site_fract_z
 _atom_site_occupancy
  Na  Na0  1  0.13109888  0.34788933  0.05993442  1
  Na  Na1  1  0.12863756  0.36991680  0.41811387  1
  Na  Na2  1  0.15994039  0.36157944  0.76069153  1
  Na  Na3  1  0.14326730  0.86198170  0.08463687  1
  Na  Na4  1  0.13484978  0.86525088  0.41528289  1
  Na  Na5  1  0.13862831  0.87447175  0.76278432  1
  Na  Na6  1  0.63339492  0.36646086  0.08306170  1
  Na  Na7  1  0.63201547  0.36417728  0.41168907  1
  Na  Na8  1  0.63417245  0.36726483  0.75005868  1
  Na  Na9  1  0.62370975  0.86839070  0.08364039  1
  Na  Na10  1  0.62059403  0.85455888  0.39359208  1
  Na  Na11  1  0.63108179  0.86899187  0.75411391  1
  Na  Na12  1  0.36984689  0.12897096  0.25203953  1
  Na  Na13  1  0.35910596  0.13047885  0.58126828  1
  Na  Na14  1  0.36105748  0.12873401  0.91698906  1
  Na  Na15  1  0.35659448  0.65415866  0.24264713  1
  Na  Na16  1  0.35557059  0.62765737  0.56983300  1
  Na  Na17  1  0.36837554  0.63775973  0.93446402  1
  Na  Na18  1  0.87338033  0.13643368  0.25960392  1
  Na  Na19  1  0.86523772  0.13309659  0.57960903  1
  Na  Na20  1  0.87083488  0.13770646  0.91904909  1
  Na  Na21  1  0.86927356  0.63086493  0.24983642  1
  Na  Na22  1  0.87005520  0.63625430  0.58658036  1
  Na  Na23  1  0.86391158  0.63906232  0.91647639  1
  Na  Na24  1  0.48575470  0.51359707  0.74938571  1
  Na  Na25  1  0.48251178  0.51399320  0.41016270  1
  Na  Na26  1  0.99075420  0.05181488  0.75862705  1
  Na  Na27  1  0.48878620  0.53849360  0.08048516  1
  Na  Na28  1  1.01444068  0.48038370  0.75258533  1
  Na  Na29  1  0.43764851  -0.01365274  0.05588728  1
  Na  Na30  1  0.99653948  0.01059122  0.08002294  1
  Na  Na31  1  0.48382981  0.00111991  0.43170292  1
  Na  Na32  1  1.00361120  0.01378631  0.41197920  1
  Na  Na33  1  0.51021481  0.49151773  0.58419889  1
  Na  Na34  1  0.49352719  0.50258847  0.91468851  1
  Na  Na35  1  0.47573440  0.53789359  0.23035220  1
  Na  Na36  1  0.01813979  0.98837144  0.58178629  1
  Na  Na37  1  0.01369027  0.47235547  0.53902906  1
  Na  Na38  1  0.00523143  0.48299070  0.93613247  1
  Na  Na39  1  0.04315929  0.99136338  0.25526751  1
  Na  Na40  1  0.01771862  1.00090673  0.91120281  1
  Na  Na41  1  0.05271587  0.49432143  0.26580367  1
  Na  Na42  1  0.24296756  0.23959311  0.34257307  1
  Na  Na43  1  0.74979776  0.24853800  0.00096144  1
  Na  Na44  1  0.73870126  0.74033662  0.33646529  1
  Na  Na45  1  0.25205177  0.75226640  0.66551479  1
  Na  Na46  1  0.74140023  0.74354943  0.68168146  1
  Na  Na47  1  0.75247019  0.75331122  -0.00273256  1
  Na  Na48  1  0.25461701  0.75427895  0.32764460  1
  Na  Na49  1  0.26280855  0.75267193  0.01526354  1
  Na  Na50  1  0.74992429  0.24981151  0.66308142  1
  Na  Na51  1  0.76657513  0.26186633  0.33008047  1
  Na  Na52  1  0.23355373  0.23361138  0.51604375  1
  Na  Na53  1  0.24760283  0.74609727  0.49497392  1
  Na  Na54  1  0.73158691  0.74006618  0.17242345  1
  Na  Na55  1  0.75424651  0.24900688  0.16478000  1
  Na  Na56  1  0.74550303  0.74793407  0.50479556  1
  Na  Na57  1  0.74742951  0.24596649  0.83306947  1
  Na  Na58  1  0.26362786  0.76749063  0.83782020  1
  Na  Na59  1  0.24153785  0.25049222  0.85651137  1
  Na  Na60  1  0.25301667  0.25512583  0.15772014  1
  Na  Na61  1  0.76504873  0.25691686  0.49090519  1
  Fe  Fe62  1  0.46780191  0.30586082  0.44913101  1
  Fe  Fe63  1  0.46455980  0.81292114  0.45843659  1
  Fe  Fe64  1  0.96899800  0.80541902  0.11772405  1
  Fe  Fe65  1  0.96726811  0.29953405  0.78995445  1
  Fe  Fe66  1  0.96440649  0.80448810  0.45006810  1
  Fe  Fe67  1  0.96995677  0.30318333  0.11994462  1
  Fe  Fe68  1  0.46154673  0.81794402  0.79339057  1
  Fe  Fe69  1  0.46258566  0.31149922  0.11549813  1
  Fe  Fe70  1  0.96384897  0.80735823  0.78395983  1
  Fe  Fe71  1  0.46073819  0.31108507  0.78515417  1
  Fe  Fe72  1  0.19243547  0.03936822  0.72034773  1
  Fe  Fe73  1  0.19975294  0.03432972  0.04453369  1
  Fe  Fe74  1  0.68697345  0.53590758  0.37626325  1
  Fe  Fe75  1  0.69760358  0.53070498  0.04789712  1
  Fe  Fe76  1  0.68707487  0.03229919  0.37350525  1
  Fe  Fe77  1  0.68371154  0.03521012  0.70829103  1
  Fe  Fe78  1  0.20086126  0.53185813  0.04335048  1
  Fe  Fe79  1  0.68800262  0.03415217  0.04202167  1
  Fe  Fe80  1  0.19737834  0.53445019  0.71747217  1
  Fe  Fe81  1  0.69487451  0.53744012  0.71631032  1
  Fe  Fe82  1  0.03696865  0.68524553  0.54233002  1
  Fe  Fe83  1  0.53093447  0.19109007  0.87644024  1
  Fe  Fe84  1  0.53351041  0.69439357  0.55145658  1
  Fe  Fe85  1  0.03349319  0.19874819  0.54530472  1
  Fe  Fe86  1  0.53616634  0.69385332  0.88343389  1
  Fe  Fe87  1  0.53687833  0.19397510  0.54755925  1
  Fe  Fe88  1  0.03340626  0.69269542  0.88036763  1
  Fe  Fe89  1  0.03543925  0.19173838  0.21737753  1
  Fe  Fe90  1  0.53286147  0.19240860  0.21098648  1
  Fe  Fe91  1  0.03932654  0.68411885  0.20986478  1
  Fe  Fe92  1  0.29889058  0.96760438  0.29377220  1
  Fe  Fe93  1  0.81083331  0.46496498  0.61918298  1
  Fe  Fe94  1  0.30051637  0.46822443  0.28521652  1
  Fe  Fe95  1  0.80982729  0.46455171  0.95535313  1
  Fe  Fe96  1  0.30610951  0.46440988  0.61488318  1
  Fe  Fe97  1  0.80622346  0.96443114  0.61784367  1
  Fe  Fe98  1  0.81269500  0.46260555  0.28926436  1
  Fe  Fe99  1  0.30596210  0.96791718  0.62431940  1
  Fe  Fe100  1  0.80654928  0.96277965  0.28137315  1
  Fe  Fe101  1  0.80714981  0.96285936  0.94945623  1
  S  S102  1  0.36011391  0.14591170  0.08456697  1
  S  S103  1  0.36080284  0.14221491  0.41942942  1
  S  S104  1  0.35541079  0.14646065  0.75152714  1
  S  S105  1  0.36079402  0.63186333  0.08588526  1
  S  S106  1  0.36185650  0.64018074  0.41707481  1
  S  S107  1  0.36193997  0.63986808  0.74821536  1
  S  S108  1  0.86044314  0.13622163  0.08256270  1
  S  S109  1  0.85816988  0.13290123  0.41727810  1
  S  S110  1  0.85029007  0.14005618  0.74469409  1
  S  S111  1  0.86155880  0.64034544  0.08378330  1
  S  S112  1  0.85802429  0.64088615  0.41661238  1
  S  S113  1  0.86031994  0.63995491  0.74779071  1
  S  S114  1  0.14404349  0.35213978  0.24996958  1
  S  S115  1  0.14448832  0.36044871  0.58773783  1
  S  S116  1  0.13224909  0.36773928  0.91189736  1
  S  S117  1  0.13900938  0.85569752  0.25010683  1
  S  S118  1  0.13748101  0.85803169  0.58429066  1
  S  S119  1  0.13504571  0.86177222  0.91790018  1
  S  S120  1  0.63980523  0.35807082  0.25017408  1
  S  S121  1  0.64218582  0.36200792  0.58304872  1
  S  S122  1  0.64185897  0.35787468  0.91249196  1
  S  S123  1  0.64198942  0.85977747  0.24571739  1
  S  S124  1  0.64204592  0.85866133  0.58679841  1
  S  S125  1  0.64267933  0.85906567  0.91588691  1
  S  S126  1  0.06430133  0.16213397  0.04291297  1
  S  S127  1  0.06657956  0.16695620  0.37795964  1
  S  S128  1  0.06337136  0.17185818  0.70845756  1
  S  S129  1  0.07094281  0.66897376  0.03984394  1
  S  S130  1  0.06652975  0.67098936  0.37671998  1
  S  S131  1  0.07067649  0.67073627  0.71035364  1
  S  S132  1  0.56874457  0.17263548  0.04240023  1
  S  S133  1  0.57239721  0.17359672  0.37839257  1
  S  S134  1  0.56627079  0.17508296  0.70956475  1
  S  S135  1  0.57383260  0.66127809  0.03888124  1
  S  S136  1  0.56422812  0.67072624  0.37922656  1
  S  S137  1  0.56531840  0.66661035  0.70819011  1
  S  S138  1  0.32468532  0.43052718  0.12506518  1
  S  S139  1  0.33843326  0.43068914  0.45648186  1
  S  S140  1  0.34018139  0.44265911  0.79191917  1
  S  S141  1  0.32771284  0.93829871  0.13220361  1
  S  S142  1  0.32539558  0.93242695  0.46044799  1
  S  S143  1  0.32545810  0.93579456  0.78886889  1
  S  S144  1  0.83223581  0.42938558  0.12548597  1
  S  S145  1  0.82444586  0.43478679  0.45404489  1
  S  S146  1  0.83080217  0.43378207  0.79086797  1
  S  S147  1  0.83853015  0.93389121  0.12435486  1
  S  S148  1  0.83090573  0.92742606  0.45747930  1
  S  S149  1  0.83114868  0.93542436  0.78940553  1
  S  S150  1  0.43333644  0.33245317  0.28894564  1
  S  S151  1  0.43593999  0.33093258  0.62192586  1
  S  S152  1  0.44285492  0.33831340  0.95791174  1
  S  S153  1  0.42571244  0.83988931  0.30171244  1
  S  S154  1  0.42765231  0.82540824  0.62384181  1
  S  S155  1  0.43239226  0.82475195  0.95141946  1
  S  S156  1  0.93570902  0.32912433  0.28943242  1
  S  S157  1  0.93152951  0.32785142  0.62566164  1
  S  S158  1  0.92574755  0.32882468  0.95841856  1
  S  S159  1  0.93207684  0.82881067  0.28796841  1
  S  S160  1  0.93388580  0.83299870  0.62453942  1
  S  S161  1  0.93084973  0.82955543  0.95786676  1
  S  S162  1  0.17174111  0.06411218  0.20760413  1
  S  S163  1  0.16084315  0.06068380  0.54267062  1
  S  S164  1  0.16570373  0.07009167  0.87845865  1
  S  S165  1  0.17091576  0.56455876  0.20516379  1
  S  S166  1  0.17082780  0.56386594  0.54384220  1
  S  S167  1  0.16859473  0.57437915  0.87810976  1
  S  S168  1  0.67556688  0.07448097  0.20904869  1
  S  S169  1  0.66868442  0.06446456  0.53982541  1
  S  S170  1  0.67460487  0.07109273  0.87646344  1
  S  S171  1  0.67006003  0.55986940  0.20945760  1
  S  S172  1  0.66909423  0.56645754  0.54281715  1
  S  S173  1  0.67132635  0.56476785  0.87535764  1
  O  O174  1  0.36852291  0.22627784  0.07994121  1
  O  O175  1  0.37699247  0.21614956  0.40361423  1
  O  O176  1  0.36715176  0.22440644  0.74300511  1
  O  O177  1  0.36932744  0.71002686  0.08069679  1
  O  O178  1  0.37467264  0.72080265  0.41304416  1
  O  O179  1  0.37082793  0.71939211  0.74168056  1
  O  O180  1  0.87037948  0.21534557  0.07495144  1
  O  O181  1  0.85851681  0.20960296  0.40685313  1
  O  O182  1  0.86308883  0.21970228  0.73902914  1
  O  O183  1  0.87106403  0.71914499  0.07507692  1
  O  O184  1  0.86610929  0.71911298  0.40608634  1
  O  O185  1  0.87082509  0.71800601  0.73754827  1
  O  O186  1  0.27969070  0.13450977  0.09077231  1
  O  O187  1  0.28717531  0.14309000  0.43503945  1
  O  O188  1  0.27780780  0.13862020  0.76290026  1
  O  O189  1  0.27832833  0.62178448  0.09455528  1
  O  O190  1  0.28709562  0.63160376  0.42936228  1
  O  O191  1  0.28427094  0.63193403  0.75902681  1
  O  O192  1  0.77932402  0.12766495  0.08614124  1
  O  O193  1  0.78194313  0.11655570  0.42980267  1
  O  O194  1  0.76697212  0.13262488  0.74366205  1
  O  O195  1  0.78324636  0.63119177  0.09359319  1
  O  O196  1  0.77825871  0.63301173  0.42429949  1
  O  O197  1  0.77980064  0.63225406  0.75223343  1
  O  O198  1  0.13557063  0.27109993  0.25501514  1
  O  O199  1  0.13356976  0.28003358  0.59175870  1
  O  O200  1  0.12108844  0.29362669  0.92419431  1
  O  O201  1  0.13112546  0.77416038  0.25264374  1
  O  O202  1  0.12759829  0.77761984  0.58968729  1
  O  O203  1  0.12075583  0.78544150  0.92977573  1
  O  O204  1  0.62992616  0.28016242  0.26078771  1
  O  O205  1  0.63260400  0.28367488  0.59209679  1
  O  O206  1  0.63544434  0.27655192  0.91583169  1
  O  O207  1  0.64287276  0.78621627  0.26351811  1
  O  O208  1  0.63335075  0.77962401  0.59571876  1
  O  O209  1  0.63420885  0.77979351  0.92332959  1
  O  O210  1  0.22481857  0.36309129  0.24641893  1
  O  O211  1  0.22470564  0.36786738  0.58018788  1
  O  O212  1  0.20362942  0.37769841  0.89388815  1
  O  O213  1  0.22107930  0.87015325  0.24985594  1
  O  O214  1  0.21660957  0.86657152  0.57688268  1
  O  O215  1  0.20892378  0.86571966  0.90343622  1
  O  O216  1  0.72090298  0.36462385  0.24517646  1
  O  O217  1  0.72182242  0.37005673  0.57630740  1
  O  O218  1  0.71932491  0.36963919  0.90130026  1
  O  O219  1  0.72227838  0.87351675  0.23617938  1
  O  O220  1  0.72227456  0.86753390  0.58070232  1
  O  O221  1  0.72026186  0.86941886  0.90569304  1
  O  O222  1  0.41728548  0.14001437  0.15614287  1
  O  O223  1  0.42528029  0.13106416  0.48324539  1
  O  O224  1  0.41561464  0.13757922  0.81883825  1
  O  O225  1  0.41659908  0.61927085  0.15317707  1
  O  O226  1  0.42580301  0.62665975  0.48122011  1
  O  O227  1  0.42349656  0.62714757  0.81246431  1
  O  O228  1  0.91661285  0.12751056  0.15168164  1
  O  O229  1  0.92112375  0.12800252  0.48466037  1
  O  O230  1  0.90301734  0.12868900  0.81217660  1
  O  O231  1  0.92122105  0.63266321  0.15120455  1
  O  O232  1  0.91621301  0.63646197  0.48670550  1
  O  O233  1  0.91685215  0.63313689  0.81732493  1
  O  O234  1  0.37204043  0.08775201  0.02025862  1
  O  O235  1  0.35991460  0.07734566  0.34993114  1
  O  O236  1  0.35950901  0.08635437  0.68233550  1
  O  O237  1  0.36598405  0.57182866  0.01791423  1
  O  O238  1  0.36767722  0.58315656  0.34626674  1
  O  O239  1  0.36749437  0.58175586  0.67771577  1
  O  O240  1  0.87152181  0.07704237  0.01575262  1
  O  O241  1  0.86866680  0.07241683  0.35026919  1
  O  O242  1  0.86173443  0.08213241  0.67652251  1
  O  O243  1  0.86638495  0.58144319  0.01429136  1
  O  O244  1  0.86665778  0.58111557  0.34998870  1
  O  O245  1  0.87041553  0.58013621  0.68112207  1
  O  O246  1  0.08751983  0.35800080  0.17839074  1
  O  O247  1  0.08729588  0.37361545  0.52325258  1
  O  O248  1  0.06444823  0.38087462  0.84995808  1
  O  O249  1  0.08455832  0.86332900  0.17832862  1
  O  O250  1  0.07850448  0.86766528  0.51640068  1
  O  O251  1  0.07036203  0.87227508  0.85277396  1
  O  O252  1  0.58366663  0.36415049  0.18024724  1
  O  O253  1  0.58399639  0.37078939  0.51494788  1
  O  O254  1  0.58045248  0.36997268  0.84812880  1
  O  O255  1  0.58257644  0.86045500  0.17810549  1
  O  O256  1  0.58453902  0.86573718  0.51838118  1
  O  O257  1  0.58170262  0.86760521  0.84954598  1
  O  O258  1  0.13127797  0.40892433  0.31479278  1
  O  O259  1  0.13974303  0.41726349  0.65957523  1
  O  O260  1  0.12884438  0.43235565  0.98246316  1
  O  O261  1  0.12252287  0.91075175  0.31377049  1
  O  O262  1  0.12746010  0.91567277  0.65199479  1
  O  O263  1  0.13113476  0.92451905  0.98664079  1
  O  O264  1  0.63015018  0.41856112  0.31633215  1
  O  O265  1  0.63287528  0.42196533  0.65033663  1
  O  O266  1  0.63871050  0.41305135  0.98429666  1
  O  O267  1  0.63630258  0.92327901  0.31398498  1
  O  O268  1  0.63475648  0.91716365  0.65531085  1
  O  O269  1  0.63860007  0.91727495  0.98642048  1
  O  O270  1  0.03091334  0.18987608  0.10771310  1
  O  O271  1  0.02985888  0.19671060  0.43713759  1
  O  O272  1  0.02165781  0.19372845  0.76487594  1
  O  O273  1  0.03357452  0.69640407  0.10086371  1
  O  O274  1  0.02632641  0.70360114  0.43623022  1
  O  O275  1  0.03242819  0.70169887  0.77031116  1
  O  O276  1  0.53160942  0.20350279  0.10293344  1
  O  O277  1  0.53741348  0.20701030  0.44068778  1
  O  O278  1  0.52794922  0.20582047  0.76892385  1
  O  O279  1  0.54518542  0.67764699  0.10202947  1
  O  O280  1  0.53778387  0.70351494  0.44695880  1
  O  O281  1  0.53300631  0.69754750  0.77076036  1
  O  O282  1  0.28903815  0.46145154  0.06207665  1
  O  O283  1  0.31662351  0.46620218  0.39650654  1
  O  O284  1  0.30394268  0.47092622  0.72485100  1
  O  O285  1  0.29599033  0.98172989  0.07642527  1
  O  O286  1  0.29965882  0.96889038  0.39991775  1
  O  O287  1  0.29097464  0.97006874  0.72451040  1
  O  O288  1  0.80130226  0.46533629  0.06330996  1
  O  O289  1  0.78941543  0.47299975  0.39441321  1
  O  O290  1  0.80104961  0.47191030  0.73071536  1
  O  O291  1  0.80728772  0.96792615  0.06186149  1
  O  O292  1  0.80158140  0.95772452  0.39330946  1
  O  O293  1  0.80264082  0.97408210  0.72998818  1
  O  O294  1  0.47075026  0.30515420  0.22851853  1
  O  O295  1  0.47370473  0.30138957  0.56144198  1
  O  O296  1  0.47717023  0.29843607  0.89554150  1
  O  O297  1  0.45840685  0.81799094  0.24204677  1
  O  O298  1  0.46890122  0.79757412  0.56527286  1
  O  O299  1  0.47026663  0.78881323  0.88890134  1
  O  O300  1  0.96900767  0.29602911  0.22453669  1
  O  O301  1  0.96637111  0.29860262  0.56565297  1
  O  O302  1  0.95151515  0.29970563  0.89237496  1
  O  O303  1  0.96916456  0.80001948  0.22752678  1
  O  O304  1  0.96752364  0.80210445  0.56202454  1
  O  O305  1  0.95947639  0.79535133  0.89227286  1
  O  O306  1  0.19726104  0.02419743  0.26592681  1
  O  O307  1  0.19171020  0.03059313  0.60949282  1
  O  O308  1  0.19526322  0.03379506  0.93902978  1
  O  O309  1  0.19559744  0.52078511  0.25947207  1
  O  O310  1  0.20318592  0.53273134  0.61003821  1
  O  O311  1  0.19295066  0.54338620  0.94169667  1
  O  O312  1  0.70604279  0.03864699  0.27042830  1
  O  O313  1  0.69655480  0.02534066  0.59936681  1
  O  O314  1  0.70344932  0.03187341  0.93600826  1
  O  O315  1  0.70721341  0.52397371  0.27055815  1
  O  O316  1  0.70120675  0.53016466  0.60362233  1
  O  O317  1  0.70192745  0.52790823  0.93575626  1
  O  O318  1  0.08944069  0.08130942  0.04062806  1
  O  O319  1  0.08016995  0.08475623  0.36935287  1
  O  O320  1  0.08010682  0.08772576  0.69994340  1
  O  O321  1  0.09408894  0.58879190  0.03555224  1
  O  O322  1  0.08536616  0.59341356  0.37716639  1
  O  O323  1  0.08806409  0.58930630  0.70646472  1
  O  O324  1  0.58966773  0.09333474  0.04093438  1
  O  O325  1  0.58802160  0.09308274  0.37653799  1
  O  O326  1  0.58793631  0.09654543  0.70918457  1
  O  O327  1  0.59444810  0.57688358  0.02123975  1
  O  O328  1  0.58123789  0.58726030  0.37422923  1
  O  O329  1  0.58335286  0.58364144  0.70410793  1
  O  O330  1  0.40680562  0.41498075  0.12635001  1
  O  O331  1  0.42348246  0.41468285  0.46898426  1
  O  O332  1  0.42176055  0.42243700  0.78920038  1
  O  O333  1  0.40859054  0.93012855  0.13723295  1
  O  O334  1  0.40890348  0.91789158  0.47311485  1
  O  O335  1  0.40266919  0.91186943  0.78387746  1
  O  O336  1  0.91197556  0.40895789  0.12949540  1
  O  O337  1  0.90105223  0.41427224  0.45122130  1
  O  O338  1  0.91201286  0.41585778  0.79596426  1
  O  O339  1  0.92224477  0.91934057  0.13065368  1
  O  O340  1  0.91477744  0.91234202  0.46633578  1
  O  O341  1  0.91310548  0.91705867  0.79452501  1
  O  O342  1  0.41295772  0.41351977  0.29505918  1
  O  O343  1  0.42076343  0.41411192  0.62725556  1
  O  O344  1  0.44362248  0.42149822  0.96463084  1
  O  O345  1  0.39984102  0.92249346  0.31418115  1
  O  O346  1  0.40487317  0.90349316  0.62562346  1
  O  O347  1  0.40212402  0.89564090  0.93832475  1
  O  O348  1  0.91066308  0.40707668  0.28614808  1
  O  O349  1  0.91428012  0.41108840  0.63195226  1
  O  O350  1  0.91317192  0.41363179  0.97008311  1
  O  O351  1  0.91575864  0.91145261  0.29467682  1
  O  O352  1  0.91824489  0.91602436  0.63095859  1
  O  O353  1  0.91679552  0.91277257  0.96276245  1
  O  O354  1  0.08898696  0.08166099  0.20314138  1
  O  O355  1  0.08086350  0.08619196  0.54203419  1
  O  O356  1  0.08357472  0.08317925  0.87078521  1
  O  O357  1  0.08775238  0.57930513  0.19968152  1
  O  O358  1  0.08892410  0.58247644  0.54225507  1
  O  O359  1  0.08311182  0.58667941  0.86225043  1
  O  O360  1  0.59601015  0.09522758  0.20575812  1
  O  O361  1  0.58833247  0.08600621  0.53648889  1
  O  O362  1  0.59752223  0.09616612  0.87651703  1
  O  O363  1  0.58922791  0.57020692  0.20682437  1
  O  O364  1  0.58675263  0.58191122  0.53953359  1
  O  O365  1  0.58858952  0.58080795  0.86842048  1
  O  O366  1  0.13211313  0.21663025  0.05720025  1
  O  O367  1  0.13910833  0.21837899  0.39462746  1
  O  O368  1  0.13583921  0.22348380  0.73114004  1
  O  O369  1  0.13757331  0.72378547  0.05255817  1
  O  O370  1  0.13566872  0.72699014  0.39390226  1
  O  O371  1  0.14198738  0.72313482  0.72730725  1
  O  O372  1  0.63984709  0.22627322  0.05843447  1
  O  O373  1  0.64465008  0.22419954  0.39360518  1
  O  O374  1  0.63628416  0.22984541  0.72546033  1
  O  O375  1  0.64299010  0.71504497  0.05058888  1
  O  O376  1  0.63756940  0.71868913  0.39155375  1
  O  O377  1  0.63493278  0.71643043  0.71795268  1
  O  O378  1  0.27648103  0.36087770  0.11772106  1
  O  O379  1  0.28764737  0.35924445  0.44080544  1
  O  O380  1  0.29354385  0.37302852  0.78538033  1
  O  O381  1  0.27646004  0.86527368  0.10997568  1
  O  O382  1  0.27479386  0.85872861  0.44097820  1
  O  O383  1  0.27161068  0.86432243  0.77205895  1
  O  O384  1  0.77769431  0.35935091  0.10968472  1
  O  O385  1  0.77000454  0.36496520  0.43967770  1
  O  O386  1  0.77759833  0.36263159  0.77285204  1
  O  O387  1  0.78975960  0.86121112  0.10952466  1
  O  O388  1  0.78147060  0.85604121  0.44625317  1
  O  O389  1  0.77840071  0.86502684  0.77248916  1
  O  O390  1  0.36468499  0.27767630  0.27372023  1
  O  O391  1  0.36465474  0.28013409  0.60488883  1
  O  O392  1  0.36640212  0.29661842  0.94168312  1
  O  O393  1  0.35921468  0.78649473  0.29457990  1
  O  O394  1  0.35831508  0.76832627  0.60406981  1
  O  O395  1  0.36742433  0.76572180  0.93940062  1
  O  O396  1  0.86519109  0.27460779  0.27361054  1
  O  O397  1  0.85797003  0.27789646  0.60981030  1
  O  O398  1  0.85237730  0.28196365  0.94766597  1
  O  O399  1  0.86054719  0.77691801  0.27147047  1
  O  O400  1  0.86163505  0.78273165  0.61001303  1
  O  O401  1  0.86031035  0.78209740  0.94975762  1
  O  O402  1  0.22417561  0.13576435  0.22708452  1
  O  O403  1  0.21530205  0.12675332  0.55245836  1
  O  O404  1  0.21717574  0.14057649  0.89301855  1
  O  O405  1  0.22138413  0.63798344  0.22844408  1
  O  O406  1  0.22002159  0.63745348  0.55968525  1
  O  O407  1  0.21740135  0.64708772  0.89311557  1
  O  O408  1  0.73002010  0.14430630  0.22409781  1
  O  O409  1  0.72271243  0.13514223  0.55826471  1
  O  O410  1  0.73226309  0.13884090  0.89269881  1
  O  O411  1  0.71948303  0.63352376  0.22596498  1
  O  O412  1  0.71936449  0.63941501  0.55976331  1
  O  O413  1  0.72226088  0.63603047  0.89121262  1
  O  O414  1  0.49801228  0.33154464  0.03003495  1
  O  O415  1  0.49422902  0.33625975  0.36196157  1
  O  O416  1  0.49469895  0.33318018  0.69482279  1
  O  O417  1  0.49334542  0.83972677  0.02360086  1
  O  O418  1  0.48931237  0.84911359  0.37714364  1
  O  O419  1  0.48617863  0.82671216  0.69643192  1
  O  O420  1  0.98791254  0.32436262  0.02686114  1
  O  O421  1  0.99582441  0.33645203  0.35955184  1
  O  O422  1  0.98888984  0.33220535  0.70016103  1
  O  O423  1  0.99493915  0.83247601  0.02826392  1
  O  O424  1  0.99046394  0.83107936  0.36127944  1
  O  O425  1  0.99343494  0.83318751  0.69612919  1
  O  O426  1  0.16747319  0.00831726  0.13277309  1
  O  O427  1  0.14807515  -0.00457004  0.47331793  1
  O  O428  1  0.16572800  0.01048033  0.80482700  1
  O  O429  1  0.17084319  0.51217546  0.12952598  1
  O  O430  1  0.16923397  0.50327366  0.47570541  1
  O  O431  1  0.17282342  0.51273609  0.80860754  1
  O  O432  1  0.67305843  0.01372621  0.13715397  1
  O  O433  1  0.66467527  0.00575812  0.46693871  1
  O  O434  1  0.66910627  0.01158954  0.80324686  1
  O  O435  1  0.67085880  0.50350690  0.13603522  1
  O  O436  1  0.66613855  0.50878135  0.46964161  1
  O  O437  1  0.66935008  0.50558675  0.80229607  1
  O  O438  1  0.00920340  0.16834498  0.30393144  1
  O  O439  1  0.00780207  0.17176631  0.63454646  1
  O  O440  1  0.00100051  0.15279408  0.97327363  1
  O  O441  1  0.00888283  0.66823750  0.30229657  1
  O  O442  1  0.01183353  0.66879934  0.63730714  1
  O  O443  1  0.00706987  0.66183307  0.96746897  1
  O  O444  1  0.51299854  0.17269937  0.30674364  1
  O  O445  1  0.50815170  0.17007274  0.63561292  1
  O  O446  1  0.51001496  0.16893303  0.96960455  1
  O  O447  1  0.50173797  0.66883794  0.31141581  1
  O  O448  1  0.50322697  0.65928099  0.63489078  1
  O  O449  1  0.51071084  0.66050419  0.96733723  1
  O  O450  1  0.33371701  0.49362877  0.19858317  1
  O  O451  1  0.33841479  0.49007943  0.52903971  1
  O  O452  1  0.35210432  0.50817586  0.86063443  1
  O  O453  1  0.32285203  0.99060177  0.20769382  1
  O  O454  1  0.31973120  0.99008476  0.53077560  1
  O  O455  1  0.33147702  0.99575070  0.85852364  1
  O  O456  1  0.83352420  0.49024687  0.19654802  1
  O  O457  1  0.82993202  0.49353943  0.52874162  1
  O  O458  1  0.83307044  0.49201882  0.86414620  1
  O  O459  1  0.83908412  0.99351103  0.19600206  1
  O  O460  1  0.83182506  0.98955848  0.52834754  1
  O  O461  1  0.83497465  0.99370418  0.86331367  1
