# generated using pymatgen
data_Na31Fe20(SO4)36
_symmetry_space_group_name_H-M   'P 1'
_cell_length_a   18.06323456
_cell_length_b   18.07479914
_cell_length_c   19.68766495
_cell_angle_alpha   107.57089969
_cell_angle_beta   107.57640531
_cell_angle_gamma   90.73261011
_symmetry_Int_Tables_number   1
_chemical_formula_structural   Na31Fe20(SO4)36
_chemical_formula_sum   'Na62 Fe40 S72 O288'
_cell_volume   5803.49966031
_cell_formula_units_Z   2
loop_
 _symmetry_equiv_pos_site_id
 _symmetry_equiv_pos_as_xyz
  1  'x, y, z'
loop_
 _atom_site_type_symbol
 _atom_site_label
 _atom_site_symmetry_multiplicity
 _atom_site_fract_x
 _atom_site_fract_y
 _atom_site_fract_z
 _atom_site_occupancy
  Na  Na0  1  0.14502031  0.36310058  0.08927638  1
  Na  Na1  1  0.13493545  0.35689654  0.40968739  1
  Na  Na2  1  0.13046090  0.37150214  0.75225291  1
  Na  Na3  1  0.14414394  0.86969840  0.08125828  1
  Na  Na4  1  0.13127336  0.86560113  0.41306350  1
  Na  Na5  1  0.13437319  0.87070925  0.75263419  1
  Na  Na6  1  0.61657950  0.37293255  0.08469162  1
  Na  Na7  1  0.62819116  0.35550946  0.40558010  1
  Na  Na8  1  0.63025874  0.36243542  0.75161064  1
  Na  Na9  1  0.63645539  0.87022857  0.09001611  1
  Na  Na10  1  0.64234195  0.86662363  0.42107142  1
  Na  Na11  1  0.63615070  0.86290359  0.74876207  1
  Na  Na12  1  0.36320565  0.14294206  0.24610799  1
  Na  Na13  1  0.36754317  0.14053089  0.59120545  1
  Na  Na14  1  0.37748806  0.14558279  0.93593619  1
  Na  Na15  1  0.35890552  0.61952693  0.22957692  1
  Na  Na16  1  0.36884611  0.63468584  0.58537874  1
  Na  Na17  1  0.37348886  0.64437329  0.92754068  1
  Na  Na18  1  0.86025000  0.12539611  0.24468976  1
  Na  Na19  1  0.86359144  0.13324891  0.58408189  1
  Na  Na20  1  0.85962676  0.13476074  0.91095693  1
  Na  Na21  1  0.86512290  0.63414645  0.24896772  1
  Na  Na22  1  0.84566949  0.63431748  0.56975855  1
  Na  Na23  1  0.87153944  0.62746179  0.91539712  1
  Na  Na24  1  0.98805879  0.50237895  0.42531677  1
  Na  Na25  1  1.00712765  -0.00442261  0.09430857  1
  Na  Na26  1  1.04353787  0.48447593  0.01930777  1
  Na  Na27  1  0.50037735  0.06343849  0.08861587  1
  Na  Na28  1  0.95559699  0.01168579  0.38495962  1
  Na  Na29  1  0.51635628  0.49177757  0.37718592  1
  Na  Na30  1  0.48740773  0.53922304  0.77329092  1
  Na  Na31  1  0.48563728  0.02189814  0.75214982  1
  Na  Na32  1  0.49244378  0.01310637  0.40885034  1
  Na  Na33  1  0.51426035  0.97477346  0.91403532  1
  Na  Na34  1  0.51816484  0.48464982  0.58162870  1
  Na  Na35  1  -0.04569954  0.51787454  0.64531471  1
  Na  Na36  1  0.00831631  0.49459228  0.23948971  1
  Na  Na37  1  0.50444002  0.46507700  0.92270739  1
  Na  Na38  1  -0.00039985  0.99471427  0.59628692  1
  Na  Na39  1  0.49524079  1.02372478  0.23512698  1
  Na  Na40  1  0.51272640  0.98802265  0.57981946  1
  Na  Na41  1  0.04197935  0.99634128  0.92203209  1
  Na  Na42  1  0.24194649  0.74272175  0.67317646  1
  Na  Na43  1  0.74477242  0.24751080  0.33573338  1
  Na  Na44  1  0.74404837  0.74906274  0.34194720  1
  Na  Na45  1  0.25481038  0.74955546  0.32232155  1
  Na  Na46  1  0.26279939  0.26118282  0.66274752  1
  Na  Na47  1  0.75260352  0.75262984  0.65898692  1
  Na  Na48  1  0.74725202  0.25334749  -0.01025782  1
  Na  Na49  1  0.73933154  0.74323225  0.00126684  1
  Na  Na50  1  0.26512271  0.24878600  0.00636587  1
  Na  Na51  1  0.74365185  0.24743701  0.68050314  1
  Na  Na52  1  0.26110309  0.25898019  0.48554275  1
  Na  Na53  1  0.26000571  0.25938314  0.82917318  1
  Na  Na54  1  0.24267410  0.74162399  0.85055913  1
  Na  Na55  1  0.75354217  0.75594296  0.16856589  1
  Na  Na56  1  0.74288591  0.73950358  0.83776695  1
  Na  Na57  1  0.75832047  0.26441680  0.50403566  1
  Na  Na58  1  0.24520715  0.23839283  0.17342297  1
  Na  Na59  1  0.72832000  0.24313151  0.16947210  1
  Na  Na60  1  0.25172984  0.75206984  0.15129720  1
  Na  Na61  1  0.25037359  0.75032867  0.49795469  1
  Fe  Fe62  1  0.46214863  0.30428498  0.44976316  1
  Fe  Fe63  1  0.46563945  0.80488267  0.44914814  1
  Fe  Fe64  1  0.46787297  0.80630169  0.11636244  1
  Fe  Fe65  1  0.96190687  0.30445293  0.11657778  1
  Fe  Fe66  1  0.96499182  0.31173407  0.45857605  1
  Fe  Fe67  1  0.47053288  0.79975421  0.78878488  1
  Fe  Fe68  1  0.96556235  0.80831276  0.78564052  1
  Fe  Fe69  1  0.96271186  0.80805935  0.44916178  1
  Fe  Fe70  1  0.96369831  0.81094045  0.12091361  1
  Fe  Fe71  1  0.96411065  0.30983267  0.78848340  1
  Fe  Fe72  1  0.69540139  0.53473548  0.37950050  1
  Fe  Fe73  1  0.19436712  0.03459214  0.71581865  1
  Fe  Fe74  1  0.70070881  0.52855527  0.71185083  1
  Fe  Fe75  1  0.19413986  0.53447671  0.38151086  1
  Fe  Fe76  1  0.18871408  0.53574797  0.71479232  1
  Fe  Fe77  1  0.18358011  0.03840444  0.37708690  1
  Fe  Fe78  1  0.69302132  0.53704227  0.04549476  1
  Fe  Fe79  1  0.69687519  0.03553376  0.71689010  1
  Fe  Fe80  1  0.69540871  0.03023321  0.04646886  1
  Fe  Fe81  1  0.69847232  0.03254074  0.37570404  1
  Fe  Fe82  1  0.03503489  0.19096815  0.21538744  1
  Fe  Fe83  1  0.53692756  0.68850898  0.20928553  1
  Fe  Fe84  1  0.03702228  0.68963486  0.88187370  1
  Fe  Fe85  1  0.03604542  0.69027971  0.21054777  1
  Fe  Fe86  1  0.53655544  0.68785059  0.54139739  1
  Fe  Fe87  1  0.53270422  0.19362924  0.55218280  1
  Fe  Fe88  1  0.03283122  0.69482683  0.54768369  1
  Fe  Fe89  1  0.03674414  0.19116930  0.54853200  1
  Fe  Fe90  1  0.52111891  0.21393093  0.87891477  1
  Fe  Fe91  1  0.03836515  0.18970212  0.88236506  1
  Fe  Fe92  1  0.30270444  0.96766194  0.28139184  1
  Fe  Fe93  1  0.80922521  0.96459258  0.95089789  1
  Fe  Fe94  1  0.31028531  0.46536745  0.62345074  1
  Fe  Fe95  1  0.80599001  0.46308944  0.28433782  1
  Fe  Fe96  1  0.30251085  0.96840479  0.96117712  1
  Fe  Fe97  1  0.30065299  0.47066057  0.96263485  1
  Fe  Fe98  1  0.81012636  0.96396264  0.61993227  1
  Fe  Fe99  1  0.30366436  0.46242016  0.28051342  1
  Fe  Fe100  1  0.81185603  0.46108740  0.95232511  1
  Fe  Fe101  1  0.30609475  0.96291490  0.61973199  1
  S  S102  1  0.36018691  0.13932740  0.08420076  1
  S  S103  1  0.35952374  0.13634753  0.41982928  1
  S  S104  1  0.35765931  0.13875500  0.74695908  1
  S  S105  1  0.36411816  0.64065798  0.08226086  1
  S  S106  1  0.35857851  0.64115267  0.41406188  1
  S  S107  1  0.35403910  0.64347572  0.74904413  1
  S  S108  1  0.85906552  0.13888211  0.08399864  1
  S  S109  1  0.85843495  0.14713114  0.42139089  1
  S  S110  1  0.86276621  0.13927527  0.75058035  1
  S  S111  1  0.86082869  0.63963873  0.08299213  1
  S  S112  1  0.86129625  0.63845912  0.41512964  1
  S  S113  1  0.85896107  0.64728360  0.75022272  1
  S  S114  1  0.13482483  0.36083690  0.25086341  1
  S  S115  1  0.14242901  0.35861528  0.58194804  1
  S  S116  1  0.14118478  0.35355700  0.91574146  1
  S  S117  1  0.14019223  0.86124970  0.25062550  1
  S  S118  1  0.13882880  0.85934088  0.58255655  1
  S  S119  1  0.13944759  0.85769269  0.91325665  1
  S  S120  1  0.64036562  0.36208095  0.25365634  1
  S  S121  1  0.63845813  0.35722843  0.58578917  1
  S  S122  1  0.64280583  0.36388168  0.91971776  1
  S  S123  1  0.63848677  0.85929902  0.25277975  1
  S  S124  1  0.63966552  0.86094464  0.58242406  1
  S  S125  1  0.64398494  0.85655990  0.91173416  1
  S  S126  1  0.06051930  0.16659079  0.04443318  1
  S  S127  1  0.06213043  0.16992874  0.37851346  1
  S  S128  1  0.06947288  0.16998495  0.70998085  1
  S  S129  1  0.06694155  0.68041962  0.04687114  1
  S  S130  1  0.06558080  0.66806496  0.37594670  1
  S  S131  1  0.06466125  0.67296068  0.70824213  1
  S  S132  1  0.57885211  0.16638854  0.03314716  1
  S  S133  1  0.56540722  0.16586283  0.37994131  1
  S  S134  1  0.56789586  0.16131913  0.70917944  1
  S  S135  1  0.57072988  0.67232220  0.04070734  1
  S  S136  1  0.57015426  0.67418258  0.37550009  1
  S  S137  1  0.56707493  0.66676464  0.70548687  1
  S  S138  1  0.32974755  0.43042770  0.12201887  1
  S  S139  1  0.32871256  0.43459458  0.46022265  1
  S  S140  1  0.32998525  0.44184850  0.79399257  1
  S  S141  1  0.33344480  0.92960998  0.12690438  1
  S  S142  1  0.33074825  0.93098303  0.45710069  1
  S  S143  1  0.32911989  0.93018047  0.79153000  1
  S  S144  1  0.83076298  0.43222537  0.12423699  1
  S  S145  1  0.83275356  0.43763109  0.46051469  1
  S  S146  1  0.82946511  0.43198315  0.79142296  1
  S  S147  1  0.83087629  0.93266512  0.12140160  1
  S  S148  1  0.83557774  0.93712908  0.45922593  1
  S  S149  1  0.83162662  0.93258594  0.78946071  1
  S  S150  1  0.42462218  0.32961234  0.29283976  1
  S  S151  1  0.43419169  0.33179328  0.62512697  1
  S  S152  1  0.42447130  0.33393408  0.95835500  1
  S  S153  1  0.42856518  0.83068015  0.28951171  1
  S  S154  1  0.43360624  0.83024450  0.62413160  1
  S  S155  1  0.43360588  0.84116452  0.95962170  1
  S  S156  1  0.93035148  0.32830928  0.29171772  1
  S  S157  1  0.93468991  0.32210847  0.62259627  1
  S  S158  1  0.93631415  0.32590181  0.95965641  1
  S  S159  1  0.93455444  0.82552248  0.28729363  1
  S  S160  1  0.93175272  0.82792573  0.62238926  1
  S  S161  1  0.93559296  0.83235301  0.95727552  1
  S  S162  1  0.16802080  0.06613035  0.21006806  1
  S  S163  1  0.17066051  0.06621509  0.54355768  1
  S  S164  1  0.17521137  0.06635297  0.87647443  1
  S  S165  1  0.16405976  0.56275851  0.20860730  1
  S  S166  1  0.16890477  0.56790639  0.54212286  1
  S  S167  1  0.17355321  0.56746872  0.87535850  1
  S  S168  1  0.66881117  0.06683852  0.21038295  1
  S  S169  1  0.67074991  0.06638383  0.54347865  1
  S  S170  1  0.66840138  0.06110648  0.87302175  1
  S  S171  1  0.67647157  0.57224075  0.21207204  1
  S  S172  1  0.66008975  0.56315327  0.53789183  1
  S  S173  1  0.67550301  0.56290920  0.87697301  1
  O  O174  1  0.38045325  0.20863038  0.06698409  1
  O  O175  1  0.36769727  0.21607401  0.41513398  1
  O  O176  1  0.36680826  0.21145334  0.73139061  1
  O  O177  1  0.37962166  0.71532981  0.06793992  1
  O  O178  1  0.36701429  0.72149037  0.40774387  1
  O  O179  1  0.36855811  0.72075144  0.73845094  1
  O  O180  1  0.86455750  0.21869745  0.07680314  1
  O  O181  1  0.86477200  0.23111281  0.42356131  1
  O  O182  1  0.87125114  0.21783156  0.74134844  1
  O  O183  1  0.86731567  0.71886182  0.07456509  1
  O  O184  1  0.87075489  0.71638596  0.40502634  1
  O  O185  1  0.86532338  0.73089325  0.75051126  1
  O  O186  1  0.28107494  0.13660227  0.08989468  1
  O  O187  1  0.28124834  0.12527705  0.42885872  1
  O  O188  1  0.27773226  0.12905903  0.75344656  1
  O  O189  1  0.29052668  0.63794216  0.09774077  1
  O  O190  1  0.27925183  0.63244984  0.42260490  1
  O  O191  1  0.27014215  0.63851096  0.74680334  1
  O  O192  1  0.78260684  0.12737691  0.09590498  1
  O  O193  1  0.77958557  0.13431915  0.42947859  1
  O  O194  1  0.78363591  0.12954133  0.75789553  1
  O  O195  1  0.78149621  0.63058460  0.09150505  1
  O  O196  1  0.78311038  0.63041483  0.42401879  1
  O  O197  1  0.77920584  0.63332485  0.75590230  1
  O  O198  1  0.12456042  0.28319020  0.26015021  1
  O  O199  1  0.13575344  0.27860007  0.58854559  1
  O  O200  1  0.13883023  0.27115535  0.91828150  1
  O  O201  1  0.13216942  0.78225125  0.25966954  1
  O  O202  1  0.13088452  0.78102047  0.59247428  1
  O  O203  1  0.13317738  0.77516359  0.91237249  1
  O  O204  1  0.63619493  0.29063197  0.27385936  1
  O  O205  1  0.62556463  0.28007470  0.59840755  1
  O  O206  1  0.62514269  0.28484447  0.92487660  1
  O  O207  1  0.62308209  0.78240124  0.26465296  1
  O  O208  1  0.62865895  0.78219847  0.59002738  1
  O  O209  1  0.63738465  0.77752756  0.91497661  1
  O  O210  1  0.21107374  0.36790479  0.23768496  1
  O  O211  1  0.22272252  0.37038535  0.57636204  1
  O  O212  1  0.22034881  0.37063486  0.90815548  1
  O  O213  1  0.21966767  0.86952187  0.24247306  1
  O  O214  1  0.21874023  0.86796823  0.57562268  1
  O  O215  1  0.21885095  0.87159131  0.90559448  1
  O  O216  1  0.72383571  0.37232692  0.24975582  1
  O  O217  1  0.71575353  0.36411145  0.57888041  1
  O  O218  1  0.72580489  0.36700808  0.92100644  1
  O  O219  1  0.71414010  0.86178322  0.24099851  1
  O  O220  1  0.71799217  0.87044930  0.57459040  1
  O  O221  1  0.72132435  0.87099886  0.90051930  1
  O  O222  1  0.41729527  0.12562402  0.14976320  1
  O  O223  1  0.41954931  0.12544334  0.48685829  1
  O  O224  1  0.41521602  0.13470549  0.81824602  1
  O  O225  1  0.42781451  0.63113626  0.14718933  1
  O  O226  1  0.41697106  0.63519842  0.48322076  1
  O  O227  1  0.40641565  0.63608859  0.81858013  1
  O  O228  1  0.92121013  0.13008349  0.14995345  1
  O  O229  1  0.91838130  0.13329160  0.48667651  1
  O  O230  1  0.92167660  0.13250301  0.81898246  1
  O  O231  1  0.91906110  0.63231768  0.15174790  1
  O  O232  1  0.92082937  0.63098818  0.48365053  1
  O  O233  1  0.91777713  0.63794890  0.81790679  1
  O  O234  1  0.36523691  0.07089829  0.01471284  1
  O  O235  1  0.36894311  0.07858779  0.35133373  1
  O  O236  1  0.36966217  0.07247295  0.68390397  1
  O  O237  1  0.36443163  0.57662722  0.01232470  1
  O  O238  1  0.36630082  0.58337791  0.34605813  1
  O  O239  1  0.36555134  0.58205744  0.68280937  1
  O  O240  1  0.86530565  0.08192155  0.01395568  1
  O  O241  1  0.86694877  0.09643912  0.35152761  1
  O  O242  1  0.87054716  0.07999168  0.68227984  1
  O  O243  1  0.86950310  0.58081347  0.01574520  1
  O  O244  1  0.87153114  0.57799374  0.34871427  1
  O  O245  1  0.86702255  0.59616579  0.68021524  1
  O  O246  1  0.07253634  0.37219285  0.18611504  1
  O  O247  1  0.08494669  0.36546483  0.51256582  1
  O  O248  1  0.08222609  0.35951614  0.84656393  1
  O  O249  1  0.08136428  0.87014987  0.18378927  1
  O  O250  1  0.08100490  0.86496725  0.51299488  1
  O  O251  1  0.08045947  0.86833534  0.84479606  1
  O  O252  1  0.58606283  0.36213829  0.18306760  1
  O  O253  1  0.57772525  0.36360925  0.51685623  1
  O  O254  1  0.58939192  0.37747133  0.85361135  1
  O  O255  1  0.57650878  0.87000217  0.18709144  1
  O  O256  1  0.57944670  0.87085619  0.51502219  1
  O  O257  1  0.58264049  0.86828500  0.84540991  1
  O  O258  1  0.13077597  0.42120921  0.32062051  1
  O  O259  1  0.13259981  0.41617929  0.64948559  1
  O  O260  1  0.13055840  0.40625960  0.98347583  1
  O  O261  1  0.13484867  0.91971085  0.32033374  1
  O  O262  1  0.12863289  0.91954000  0.64870421  1
  O  O263  1  0.12827086  0.91246193  0.97995312  1
  O  O264  1  0.63079378  0.42874506  0.31866359  1
  O  O265  1  0.62792678  0.41891316  0.65203484  1
  O  O266  1  0.63374559  0.42277498  0.98922139  1
  O  O267  1  0.63535579  0.92036417  0.32273981  1
  O  O268  1  0.63081855  0.92018483  0.65047014  1
  O  O269  1  0.63600671  0.91446482  0.98110632  1
  O  O270  1  0.02513006  0.20559559  0.10591776  1
  O  O271  1  0.02490517  0.20279139  0.43903720  1
  O  O272  1  0.03232400  0.19701023  0.77009160  1
  O  O273  1  0.02593279  0.71135801  0.10604013  1
  O  O274  1  0.03143031  0.70050254  0.43842775  1
  O  O275  1  0.02653244  0.70082825  0.76796239  1
  O  O276  1  0.55555469  0.18887325  0.10006074  1
  O  O277  1  0.53233744  0.19611971  0.44467956  1
  O  O278  1  0.53363977  0.18262977  0.77029580  1
  O  O279  1  0.54228603  0.70600107  0.10817371  1
  O  O280  1  0.53100590  0.70313280  0.43617292  1
  O  O281  1  0.52648945  0.69470572  0.76186331  1
  O  O282  1  0.29742721  0.46644711  0.05968077  1
  O  O283  1  0.29973017  0.47103657  0.39883789  1
  O  O284  1  0.29256662  0.47764659  0.73203793  1
  O  O285  1  0.30045927  0.95660378  0.06144941  1
  O  O286  1  0.30112251  0.96538468  0.39570613  1
  O  O287  1  0.29729479  0.96789619  0.73093386  1
  O  O288  1  0.80429051  0.47097781  0.06520268  1
  O  O289  1  0.80192584  0.47159656  0.39689985  1
  O  O290  1  0.80302422  0.47300877  0.73527477  1
  O  O291  1  0.79781830  0.96416518  0.05537385  1
  O  O292  1  0.80845749  0.97613782  0.40200663  1
  O  O293  1  0.80209105  0.96947789  0.72822936  1
  O  O294  1  0.45615507  0.30492963  0.23229552  1
  O  O295  1  0.46430248  0.29861225  0.55877946  1
  O  O296  1  0.45567992  0.31000144  0.89284157  1
  O  O297  1  0.46137116  0.80066693  0.22706000  1
  O  O298  1  0.46892040  0.80228321  0.56227997  1
  O  O299  1  0.47030940  0.82752495  0.89959297  1
  O  O300  1  0.96414315  0.29608072  0.22936003  1
  O  O301  1  0.97796746  0.29320797  0.56506827  1
  O  O302  1  0.97196361  0.29454428  0.89780226  1
  O  O303  1  0.97272691  0.79091334  0.22740031  1
  O  O304  1  0.96712864  0.79721438  0.55969775  1
  O  O305  1  0.97338771  0.80149694  0.89744594  1
  O  O306  1  0.20262162  0.03568560  0.27698356  1
  O  O307  1  0.20057772  0.02689037  0.60272484  1
  O  O308  1  0.20277061  0.02657173  0.93403875  1
  O  O309  1  0.19903544  0.53029694  0.27330185  1
  O  O310  1  0.19658496  0.53144160  0.60269790  1
  O  O311  1  0.20329240  0.52744802  0.93271621  1
  O  O312  1  0.70133602  0.03186759  0.27053672  1
  O  O313  1  0.70142911  0.02988352  0.60465134  1
  O  O314  1  0.70364439  0.02784605  0.93590685  1
  O  O315  1  0.70868872  0.53540083  0.27269773  1
  O  O316  1  0.67937951  0.52992451  0.59972957  1
  O  O317  1  0.71076030  0.52585720  0.93781048  1
  O  O318  1  0.06750897  0.08533514  0.04305565  1
  O  O319  1  0.07670298  0.08811115  0.37677431  1
  O  O320  1  0.09041999  0.08897629  0.70410430  1
  O  O321  1  0.09212425  0.60578339  0.05130397  1
  O  O322  1  0.08185420  0.58581156  0.37191277  1
  O  O323  1  0.08361081  0.59177653  0.70285856  1
  O  O324  1  0.59061410  0.07936354  0.01578559  1
  O  O325  1  0.58709360  0.08453985  0.37707310  1
  O  O326  1  0.58544773  0.07687893  0.69710275  1
  O  O327  1  0.59114078  0.59134651  0.03834694  1
  O  O328  1  0.59185784  0.59493016  0.37493862  1
  O  O329  1  0.58672703  0.58581111  0.70293123  1
  O  O330  1  0.41025586  0.41907310  0.13270282  1
  O  O331  1  0.41025649  0.41560254  0.46757796  1
  O  O332  1  0.41318390  0.44113666  0.80068328  1
  O  O333  1  0.41644188  0.91351450  0.13511573  1
  O  O334  1  0.41388139  0.91441394  0.46354883  1
  O  O335  1  0.41116635  0.91547740  0.79371060  1
  O  O336  1  0.91165173  0.41038886  0.12846768  1
  O  O337  1  0.91260543  0.41445231  0.45849801  1
  O  O338  1  0.90752179  0.40666394  0.79182535  1
  O  O339  1  0.91068804  0.91088342  0.11899547  1
  O  O340  1  0.91880994  0.91915515  0.46504126  1
  O  O341  1  0.91278078  0.91435892  0.79512510  1
  O  O342  1  0.40369100  0.41338674  0.30582432  1
  O  O343  1  0.41771490  0.41486547  0.62903772  1
  O  O344  1  0.39554639  0.41320435  0.95830413  1
  O  O345  1  0.41051654  0.91313540  0.29709992  1
  O  O346  1  0.41878057  0.91407087  0.63256695  1
  O  O347  1  0.41128067  0.92376601  0.97448273  1
  O  O348  1  0.91590859  0.41137577  0.29655288  1
  O  O349  1  0.90956030  0.39708195  0.61940753  1
  O  O350  1  0.91788102  0.40682485  0.96235883  1
  O  O351  1  0.91683475  0.90330549  0.28656568  1
  O  O352  1  0.91488511  0.90923900  0.62511625  1
  O  O353  1  0.91803668  0.91413937  0.96037665  1
  O  O354  1  0.08896426  0.08985883  0.21297567  1
  O  O355  1  0.08902496  0.08307222  0.54002660  1
  O  O356  1  0.09549561  0.08788674  0.87716742  1
  O  O357  1  0.08662717  0.58879430  0.21567955  1
  O  O358  1  0.08773317  0.58857992  0.53607840  1
  O  O359  1  0.09709164  0.59358480  0.87934591  1
  O  O360  1  0.58731173  0.08076975  0.20413176  1
  O  O361  1  0.58619390  0.07738917  0.53548191  1
  O  O362  1  0.58490347  0.06908456  0.86465736  1
  O  O363  1  0.59727127  0.59102822  0.21082947  1
  O  O364  1  0.57405072  0.57568455  0.51826063  1
  O  O365  1  0.59566522  0.57622243  0.87562361  1
  O  O366  1  0.13485599  0.21367785  0.06030282  1
  O  O367  1  0.13541335  0.21876292  0.39549125  1
  O  O368  1  0.13861354  0.22430998  0.72447464  1
  O  O369  1  0.13264573  0.73836979  0.06153814  1
  O  O370  1  0.13771287  0.71842639  0.39070190  1
  O  O371  1  0.13514341  0.72662133  0.72559565  1
  O  O372  1  0.65147479  0.21314555  0.04266194  1
  O  O373  1  0.63603914  0.21867355  0.39525664  1
  O  O374  1  0.63758002  0.21306802  0.72329261  1
  O  O375  1  0.64281970  0.72400896  0.05535025  1
  O  O376  1  0.63924353  0.72862778  0.39296637  1
  O  O377  1  0.63796585  0.72023623  0.72216445  1
  O  O378  1  0.27638324  0.35849471  0.10440249  1
  O  O379  1  0.27531123  0.36504485  0.44472428  1
  O  O380  1  0.28640877  0.36380188  0.77263848  1
  O  O381  1  0.28463358  0.86071162  0.12073748  1
  O  O382  1  0.28010153  0.85858502  0.44198551  1
  O  O383  1  0.27812694  0.85768418  0.77313635  1
  O  O384  1  0.77622398  0.36358002  0.10902913  1
  O  O385  1  0.77929968  0.36810007  0.44645522  1
  O  O386  1  0.77271985  0.36460652  0.77657347  1
  O  O387  1  0.77907132  0.86143698  0.10718631  1
  O  O388  1  0.78475805  0.86557646  0.44353067  1
  O  O389  1  0.77766984  0.86234520  0.77189507  1
  O  O390  1  0.35534460  0.27911506  0.28551546  1
  O  O391  1  0.35923126  0.28290900  0.60718610  1
  O  O392  1  0.35597955  0.27722827  0.94223251  1
  O  O393  1  0.35771671  0.77896521  0.27613493  1
  O  O394  1  0.36006420  0.78058230  0.60626410  1
  O  O395  1  0.36503980  0.78450196  0.93833955  1
  O  O396  1  0.85850146  0.27887769  0.27841153  1
  O  O397  1  0.86717796  0.26410868  0.60461258  1
  O  O398  1  0.86713272  0.27442484  0.94808118  1
  O  O399  1  0.86475614  0.77197387  0.27324533  1
  O  O400  1  0.86113225  0.77706797  0.60853125  1
  O  O401  1  0.86421027  0.78084260  0.94176586  1
  O  O402  1  0.22060332  0.13315094  0.21933190  1
  O  O403  1  0.22286637  0.13768845  0.56154844  1
  O  O404  1  0.22907589  0.13512379  0.89036323  1
  O  O405  1  0.21704108  0.63110909  0.21905707  1
  O  O406  1  0.22253405  0.63844254  0.55785715  1
  O  O407  1  0.23001080  0.63285063  0.88592866  1
  O  O408  1  0.71932298  0.13978608  0.22548551  1
  O  O409  1  0.71791519  0.14147132  0.56294024  1
  O  O410  1  0.71509775  0.13483226  0.88757752  1
  O  O411  1  0.72918620  0.64399516  0.22875796  1
  O  O412  1  0.70928184  0.63711199  0.55725880  1
  O  O413  1  0.72725314  0.63562319  0.89439826  1
  O  O414  1  0.48607048  0.34147452  0.02761881  1
  O  O415  1  0.48796072  0.33559531  0.36774117  1
  O  O416  1  0.49303453  0.33101523  0.69361295  1
  O  O417  1  0.49406673  0.83844954  0.02980072  1
  O  O418  1  0.49000450  0.83398670  0.36196587  1
  O  O419  1  0.49146597  0.82810681  0.69547726  1
  O  O420  1  0.99848191  0.33240355  0.03238147  1
  O  O421  1  0.99093084  0.33177482  0.36426143  1
  O  O422  1  0.99288210  0.32715989  0.69681721  1
  O  O423  1  0.99442737  0.83774600  0.03108806  1
  O  O424  1  0.99363354  0.82874055  0.36165884  1
  O  O425  1  0.99276646  0.83114719  0.69417802  1
  O  O426  1  0.15576377  0.00048706  0.14130431  1
  O  O427  1  0.16870190  0.00867796  0.47015600  1
  O  O428  1  0.16636016  0.00766299  0.80096920  1
  O  O429  1  0.14872476  0.49998270  0.13746532  1
  O  O430  1  0.16538659  0.50828930  0.46918711  1
  O  O431  1  0.15945752  0.50801802  0.79848187  1
  O  O432  1  0.66868959  0.00956396  0.13590351  1
  O  O433  1  0.67468574  0.00983860  0.47224781  1
  O  O434  1  0.67208617  0.00209380  0.80153915  1
  O  O435  1  0.67489662  0.51379401  0.13969002  1
  O  O436  1  0.66817156  0.50490174  0.46868269  1
  O  O437  1  0.67563417  0.50660606  0.80355157  1
  O  O438  1  0.00470741  0.16853341  0.30568923  1
  O  O439  1  0.00917988  0.16382255  0.63620771  1
  O  O440  1  0.00464155  0.16685418  0.97040251  1
  O  O441  1  0.00591090  0.66551691  0.30403864  1
  O  O442  1  0.00529204  0.66917467  0.63500742  1
  O  O443  1  0.00690320  0.67267115  0.97230494  1
  O  O444  1  0.50302427  0.15963630  0.31027612  1
  O  O445  1  0.50627919  0.15940946  0.63663760  1
  O  O446  1  0.51497883  0.17163574  0.96507774  1
  O  O447  1  0.50970495  0.66902857  0.30320865  1
  O  O448  1  0.51075806  0.66135146  0.62919566  1
  O  O449  1  0.50880092  0.66912898  0.97250536  1
  O  O450  1  0.31865495  0.48921924  0.19114236  1
  O  O451  1  0.33081261  0.49546730  0.53266409  1
  O  O452  1  0.32089358  0.49320617  0.86572151  1
  O  O453  1  0.33675750  0.99539131  0.19741182  1
  O  O454  1  0.33333749  0.98964449  0.53032546  1
  O  O455  1  0.33053692  0.98665473  0.86494055  1
  O  O456  1  0.83842386  0.49201346  0.19869628  1
  O  O457  1  0.84268718  0.49912323  0.53177471  1
  O  O458  1  0.83931450  0.48954101  0.86808123  1
  O  O459  1  0.83729564  0.99374291  0.19068891  1
  O  O460  1  0.84115401  0.99387632  0.53546837  1
  O  O461  1  0.83348723  0.99227013  0.86158946  1
