# generated using pymatgen
data_Na31Fe20(SO4)36
_symmetry_space_group_name_H-M   'P 1'
_cell_length_a   18.07220724
_cell_length_b   18.06627742
_cell_length_c   19.69640431
_cell_angle_alpha   107.59280923
_cell_angle_beta   107.61084506
_cell_angle_gamma   90.71134910
_symmetry_Int_Tables_number   1
_chemical_formula_structural   Na31Fe20(SO4)36
_chemical_formula_sum   'Na62 Fe40 S72 O288'
_cell_volume   5804.45223770
_cell_formula_units_Z   2
loop_
 _symmetry_equiv_pos_site_id
 _symmetry_equiv_pos_as_xyz
  1  'x, y, z'
loop_
 _atom_site_type_symbol
 _atom_site_label
 _atom_site_symmetry_multiplicity
 _atom_site_fract_x
 _atom_site_fract_y
 _atom_site_fract_z
 _atom_site_occupancy
  Na  Na0  1  0.13208380  0.34193545  0.07924802  1
  Na  Na1  1  0.12513027  0.35704089  0.39996756  1
  Na  Na2  1  0.13084837  0.36577718  0.74306016  1
  Na  Na3  1  0.13574013  0.86372244  0.08133999  1
  Na  Na4  1  0.13455896  0.86427544  0.41571851  1
  Na  Na5  1  0.13755200  0.86410511  0.75393322  1
  Na  Na6  1  0.62541905  0.37876626  0.08836349  1
  Na  Na7  1  0.63635434  0.36171295  0.41104826  1
  Na  Na8  1  0.63455851  0.37456871  0.75197754  1
  Na  Na9  1  0.64477661  0.86542997  0.08592958  1
  Na  Na10  1  0.63031265  0.86036022  0.41103204  1
  Na  Na11  1  0.64873920  0.87237607  0.76466300  1
  Na  Na12  1  0.35613178  0.13469311  0.24115094  1
  Na  Na13  1  0.36160082  0.13513088  0.57835953  1
  Na  Na14  1  0.36781244  0.13474301  0.91847317  1
  Na  Na15  1  0.37492682  0.62463691  0.24465459  1
  Na  Na16  1  0.36933926  0.62529916  0.58554184  1
  Na  Na17  1  0.36614271  0.64169491  0.92263185  1
  Na  Na18  1  0.85279081  0.14743277  0.24107895  1
  Na  Na19  1  0.86185410  0.13485470  0.58074730  1
  Na  Na20  1  0.86742171  0.13439692  0.93635696  1
  Na  Na21  1  0.86958231  0.62728641  0.24991394  1
  Na  Na22  1  0.86926652  0.63933471  0.59226164  1
  Na  Na23  1  0.85595954  0.63245794  0.90357843  1
  Na  Na24  1  0.50824535  -0.00522064  0.08795668  1
  Na  Na25  1  0.98934870  0.01498825  0.40845062  1
  Na  Na26  1  0.98718207  0.50500720  0.42694631  1
  Na  Na27  1  0.99450278  0.52625826  0.73068288  1
  Na  Na28  1  0.99240659  0.00283126  0.75255614  1
  Na  Na29  1  0.49190572  0.00712295  0.74738205  1
  Na  Na30  1  0.97441215  0.03492111  0.07012337  1
  Na  Na31  1  1.01209196  0.44663311  0.15212582  1
  Na  Na32  1  0.49922485  0.50444958  0.40615514  1
  Na  Na33  1  0.00696119  0.98920941  0.58061956  1
  Na  Na34  1  0.50298324  0.98155135  0.26432696  1
  Na  Na35  1  0.50744658  0.49832540  0.91391702  1
  Na  Na36  1  -0.02298051  1.04276734  0.22563053  1
  Na  Na37  1  0.00156535  0.95221596  0.90367023  1
  Na  Na38  1  0.52652281  0.48880718  0.61984638  1
  Na  Na39  1  0.51705526  0.99006652  0.56891059  1
  Na  Na40  1  -0.00292277  0.49611801  0.93030793  1
  Na  Na41  1  0.56481370  0.99571937  0.94029898  1
  Na  Na42  1  0.26166583  0.27094358  0.65531205  1
  Na  Na43  1  0.72995135  0.73433887  0.34465917  1
  Na  Na44  1  0.25254516  0.25851040  0.31362810  1
  Na  Na45  1  0.24392955  0.74013715  0.67244604  1
  Na  Na46  1  0.75337838  0.25617005  0.66434046  1
  Na  Na47  1  0.25906041  0.75219856  0.32548081  1
  Na  Na48  1  0.75022928  0.23555948  0.01964127  1
  Na  Na49  1  0.76071300  0.76585047  -0.00519960  1
  Na  Na50  1  0.76681586  0.76161547  0.65629019  1
  Na  Na51  1  0.24334795  0.24017367  0.00682722  1
  Na  Na52  1  0.25096493  0.25485665  0.83059546  1
  Na  Na53  1  0.73947463  0.24390917  0.17944662  1
  Na  Na54  1  0.25887110  0.26955178  0.48878934  1
  Na  Na55  1  0.26249604  0.75660689  0.15133600  1
  Na  Na56  1  0.75567318  0.25952284  0.48590287  1
  Na  Na57  1  0.74373975  0.74665000  0.17481809  1
  Na  Na58  1  0.25019472  0.74446245  0.50219651  1
  Na  Na59  1  0.24295731  0.73805582  0.84822734  1
  Na  Na60  1  0.76788542  0.76155982  0.82406177  1
  Na  Na61  1  0.75067122  0.24852496  0.84010570  1
  Fe  Fe62  1  0.96156180  0.80748604  0.44884067  1
  Fe  Fe63  1  0.46258389  0.30882430  0.45122656  1
  Fe  Fe64  1  0.96078753  0.31322492  0.45239688  1
  Fe  Fe65  1  0.46117230  0.31100711  0.12059185  1
  Fe  Fe66  1  0.96785229  0.80967776  0.12362341  1
  Fe  Fe67  1  0.96638743  0.30697983  0.78828683  1
  Fe  Fe68  1  0.46584834  0.80884646  0.78705446  1
  Fe  Fe69  1  0.46672942  0.80253838  0.45016321  1
  Fe  Fe70  1  0.46909333  0.79863361  0.12028105  1
  Fe  Fe71  1  0.46543259  0.30757704  0.78291181  1
  Fe  Fe72  1  0.19223953  0.53270676  0.37719839  1
  Fe  Fe73  1  0.69124409  0.03848302  0.38072341  1
  Fe  Fe74  1  0.68804049  0.53860173  0.37974615  1
  Fe  Fe75  1  0.19466268  0.03631749  0.71404451  1
  Fe  Fe76  1  0.19451356  0.03178391  0.04673531  1
  Fe  Fe77  1  0.69496671  0.03540958  0.71637070  1
  Fe  Fe78  1  0.19282087  0.53566328  0.04588882  1
  Fe  Fe79  1  0.18585796  0.03697533  0.37590578  1
  Fe  Fe80  1  0.69045575  0.54017120  0.05163243  1
  Fe  Fe81  1  0.19974305  0.53085989  0.70712251  1
  Fe  Fe82  1  0.03261608  0.69665855  0.54700502  1
  Fe  Fe83  1  0.53812995  0.69042873  0.55008163  1
  Fe  Fe84  1  0.53305063  0.18728055  0.54175329  1
  Fe  Fe85  1  0.03679323  0.68881816  0.21173927  1
  Fe  Fe86  1  0.53722136  0.68324878  0.87340745  1
  Fe  Fe87  1  0.53591969  0.19199280  0.21532138  1
  Fe  Fe88  1  0.03667182  0.69865567  0.87965241  1
  Fe  Fe89  1  0.53300146  0.19666474  0.88390263  1
  Fe  Fe90  1  0.03321671  0.19554546  0.55060249  1
  Fe  Fe91  1  0.03266736  0.19401011  0.88566171  1
  Fe  Fe92  1  0.30815513  0.96670024  0.28654705  1
  Fe  Fe93  1  0.30510492  0.46072844  0.28321640  1
  Fe  Fe94  1  0.80823987  0.96170911  0.61590993  1
  Fe  Fe95  1  0.79758610  0.46935277  0.62432022  1
  Fe  Fe96  1  0.80311462  0.46531541  0.28576961  1
  Fe  Fe97  1  0.30885462  0.46803747  0.95559794  1
  Fe  Fe98  1  0.31227549  0.96377176  0.95249534  1
  Fe  Fe99  1  0.80741245  0.46623626  0.95708545  1
  Fe  Fe100  1  0.80370028  0.96919146  0.28131815  1
  Fe  Fe101  1  0.30742060  0.96493499  0.61719609  1
  S  S102  1  0.36043601  0.13758335  0.08282452  1
  S  S103  1  0.35508855  0.14121620  0.41638006  1
  S  S104  1  0.35908072  0.14186681  0.74684363  1
  S  S105  1  0.35796926  0.63960065  0.08113972  1
  S  S106  1  0.35969314  0.63821369  0.41486215  1
  S  S107  1  0.36105136  0.64358661  0.75215029  1
  S  S108  1  0.85780772  0.13838097  0.08700141  1
  S  S109  1  0.86108977  0.14142228  0.41843595  1
  S  S110  1  0.86058966  0.13936476  0.74659302  1
  S  S111  1  0.86113686  0.64231782  0.08407637  1
  S  S112  1  0.85854639  0.64157293  0.41763902  1
  S  S113  1  0.86194829  0.63935607  0.75193503  1
  S  S114  1  0.14196680  0.35885253  0.25189689  1
  S  S115  1  0.13750048  0.35788460  0.58286653  1
  S  S116  1  0.14096886  0.35953198  0.91687781  1
  S  S117  1  0.14419378  0.85657487  0.25303763  1
  S  S118  1  0.14045040  0.86211416  0.58209454  1
  S  S119  1  0.14789324  0.85956363  0.91480534  1
  S  S120  1  0.63478127  0.36220381  0.25064354  1
  S  S121  1  0.63857283  0.35204042  0.57907068  1
  S  S122  1  0.63777130  0.36087337  0.91831182  1
  S  S123  1  0.64006337  0.86216335  0.25271587  1
  S  S124  1  0.63984570  0.86070506  0.58390891  1
  S  S125  1  0.64059543  0.85201913  0.91351517  1
  S  S126  1  0.06949974  0.15025861  0.03068805  1
  S  S127  1  0.06284883  0.16979360  0.37929861  1
  S  S128  1  0.06539686  0.16631332  0.70965444  1
  S  S129  1  0.06835598  0.67103135  0.04238586  1
  S  S130  1  0.06889486  0.67286964  0.37760566  1
  S  S131  1  0.07467965  0.67053294  0.70891514  1
  S  S132  1  0.55959869  0.17057042  0.04636211  1
  S  S133  1  0.56202027  0.16871281  0.37513399  1
  S  S134  1  0.56521984  0.16801112  0.70577553  1
  S  S135  1  0.56818080  0.67245524  0.04089768  1
  S  S136  1  0.56317214  0.67117352  0.38016476  1
  S  S137  1  0.56895359  0.67539223  0.71259429  1
  S  S138  1  0.32343493  0.42924342  0.11928197  1
  S  S139  1  0.33259656  0.43607447  0.45597277  1
  S  S140  1  0.32832489  0.43122808  0.79186740  1
  S  S141  1  0.33655451  0.93306681  0.12732735  1
  S  S142  1  0.32972616  0.93148477  0.45670504  1
  S  S143  1  0.33232841  0.93534334  0.78822048  1
  S  S144  1  0.81677470  0.42884323  0.11760366  1
  S  S145  1  0.82577489  0.43589819  0.46151200  1
  S  S146  1  0.83387943  0.42817009  0.79467507  1
  S  S147  1  0.83430086  0.92528246  0.12878547  1
  S  S148  1  0.82984691  0.93501988  0.45408108  1
  S  S149  1  0.83271190  0.94234321  0.78750828  1
  S  S150  1  0.43172010  0.32711692  0.29029049  1
  S  S151  1  0.43729907  0.32780406  0.61989021  1
  S  S152  1  0.43067381  0.32923765  0.95502418  1
  S  S153  1  0.43056710  0.83273093  0.29162137  1
  S  S154  1  0.43416676  0.83353229  0.62421357  1
  S  S155  1  0.43577156  0.83256097  0.95976776  1
  S  S156  1  0.92801518  0.33935478  0.29431307  1
  S  S157  1  0.92717926  0.32981672  0.62407295  1
  S  S158  1  0.93528296  0.33054891  0.95849344  1
  S  S159  1  0.93307284  0.83196849  0.29184779  1
  S  S160  1  0.94093459  0.83754954  0.62435402  1
  S  S161  1  0.94096105  0.83185179  0.96248029  1
  S  S162  1  0.16881432  0.05966779  0.20850542  1
  S  S163  1  0.16759299  0.06823167  0.54305461  1
  S  S164  1  0.17279652  0.06832872  0.87346854  1
  S  S165  1  0.17141300  0.56657747  0.20648878  1
  S  S166  1  0.16975749  0.57252616  0.53965860  1
  S  S167  1  0.16862371  0.56494628  0.87131766  1
  S  S168  1  0.66374806  0.06495662  0.20950955  1
  S  S169  1  0.67127914  0.06636363  0.54292981  1
  S  S170  1  0.66244073  0.07354769  0.87285028  1
  S  S171  1  0.67363720  0.57443616  0.21700914  1
  S  S172  1  0.66754945  0.56414980  0.54213749  1
  S  S173  1  0.67210370  0.56397530  0.88026133  1
  O  O174  1  0.36645540  0.21603875  0.07326460  1
  O  O175  1  0.36249046  0.22299583  0.41370579  1
  O  O176  1  0.36766595  0.22011034  0.73721701  1
  O  O177  1  0.36818959  0.71950756  0.07437781  1
  O  O178  1  0.36886192  0.71723968  0.40614247  1
  O  O179  1  0.36773207  0.72630965  0.74885338  1
  O  O180  1  0.87772272  0.21223383  0.07453254  1
  O  O181  1  0.87033835  0.22131161  0.41469782  1
  O  O182  1  0.87146627  0.21743692  0.73671961  1
  O  O183  1  0.87189570  0.72006942  0.07425193  1
  O  O184  1  0.86790153  0.71966324  0.40736768  1
  O  O185  1  0.86860430  0.71365660  0.73698390  1
  O  O186  1  0.28328881  0.12555607  0.09273485  1
  O  O187  1  0.27685512  0.12971541  0.42615467  1
  O  O188  1  0.27954333  0.13312739  0.75379138  1
  O  O189  1  0.27473204  0.63079884  0.08233789  1
  O  O190  1  0.27875561  0.63006223  0.41915146  1
  O  O191  1  0.28118684  0.63296594  0.75992168  1
  O  O192  1  0.78188701  0.14393669  0.10285347  1
  O  O193  1  0.78323608  0.13125885  0.42882307  1
  O  O194  1  0.78061279  0.13352993  0.75319870  1
  O  O195  1  0.78338093  0.63578047  0.09483663  1
  O  O196  1  0.77864476  0.63232939  0.42201847  1
  O  O197  1  0.79006827  0.62857663  0.76921783  1
  O  O198  1  0.12987145  0.28814274  0.27018875  1
  O  O199  1  0.12316818  0.28332937  0.60048157  1
  O  O200  1  0.13152423  0.28151918  0.92744337  1
  O  O201  1  0.13145751  0.77834865  0.26235849  1
  O  O202  1  0.13220861  0.78306573  0.58953063  1
  O  O203  1  0.13940855  0.77801966  0.91601477  1
  O  O204  1  0.62526498  0.28370909  0.25966835  1
  O  O205  1  0.63232440  0.26977239  0.58170003  1
  O  O206  1  0.62892267  0.28246631  0.92777477  1
  O  O207  1  0.63562354  0.78766816  0.26618532  1
  O  O208  1  0.63116599  0.78354296  0.59475132  1
  O  O209  1  0.62683140  0.77040312  0.91644055  1
  O  O210  1  0.22595182  0.36659100  0.25173794  1
  O  O211  1  0.21561562  0.35899293  0.57564628  1
  O  O212  1  0.22184636  0.36883206  0.91332950  1
  O  O213  1  0.22491553  0.86213432  0.24775259  1
  O  O214  1  0.21849862  0.87058273  0.57149812  1
  O  O215  1  0.22737933  0.87071610  0.90612689  1
  O  O216  1  0.71303764  0.37000370  0.24131862  1
  O  O217  1  0.71922341  0.36471691  0.57495085  1
  O  O218  1  0.71732244  0.36980843  0.91187708  1
  O  O219  1  0.71827385  0.87553412  0.24341482  1
  O  O220  1  0.71803388  0.86931750  0.57510852  1
  O  O221  1  0.71430694  0.85751340  0.89802707  1
  O  O222  1  0.42181218  0.12986794  0.14960519  1
  O  O223  1  0.41506484  0.12982995  0.48209230  1
  O  O224  1  0.41708879  0.13447006  0.81558217  1
  O  O225  1  0.41216260  0.63010720  0.14783972  1
  O  O226  1  0.41608826  0.63288587  0.48527724  1
  O  O227  1  0.41838005  0.63795013  0.82285631  1
  O  O228  1  0.91698736  0.12362382  0.15241268  1
  O  O229  1  0.92094025  0.12905674  0.48506017  1
  O  O230  1  0.91881601  0.13084228  0.81435724  1
  O  O231  1  0.92087219  0.63561747  0.15287625  1
  O  O232  1  0.91638849  0.63636392  0.48825059  1
  O  O233  1  0.92933593  0.63180787  0.81678822  1
  O  O234  1  0.36806024  0.07900344  0.01369905  1
  O  O235  1  0.36102606  0.08675233  0.34558258  1
  O  O236  1  0.36865553  0.08177807  0.67986209  1
  O  O237  1  0.36451337  0.58173673  0.01080306  1
  O  O238  1  0.37080198  0.57829483  0.34881538  1
  O  O239  1  0.37004816  0.58831139  0.68559094  1
  O  O240  1  0.85432684  0.07316757  0.01823986  1
  O  O241  1  0.86881170  0.08360733  0.34941997  1
  O  O242  1  0.86887573  0.07922051  0.67880967  1
  O  O243  1  0.86798923  0.58153327  0.01653900  1
  O  O244  1  0.87187483  0.58118991  0.35306553  1
  O  O245  1  0.86833753  0.57486729  0.68391311  1
  O  O246  1  0.09117374  0.36060761  0.17902585  1
  O  O247  1  0.07870949  0.36172675  0.51289440  1
  O  O248  1  0.08521232  0.36194556  0.84451691  1
  O  O249  1  0.08815374  0.86416980  0.18410955  1
  O  O250  1  0.07984818  0.87268719  0.51609370  1
  O  O251  1  0.08897388  0.87551251  0.85281234  1
  O  O252  1  0.57548638  0.36988928  0.18263319  1
  O  O253  1  0.58184610  0.35977862  0.50911958  1
  O  O254  1  0.58005677  0.36574405  0.84737112  1
  O  O255  1  0.58009414  0.86659472  0.18292282  1
  O  O256  1  0.57979624  0.86882726  0.51550756  1
  O  O257  1  0.57712289  0.86801574  0.84972282  1
  O  O258  1  0.13039477  0.42707058  0.31378896  1
  O  O259  1  0.13034493  0.42202229  0.64830137  1
  O  O260  1  0.12742643  0.42078281  0.98046380  1
  O  O261  1  0.13708639  0.91677598  0.32107418  1
  O  O262  1  0.13486468  0.92123334  0.65134068  1
  O  O263  1  0.14541037  0.91357441  0.98821220  1
  O  O264  1  0.62800472  0.42213959  0.31862439  1
  O  O265  1  0.62624898  0.40648101  0.64544358  1
  O  O266  1  0.62438552  0.42106695  0.98253210  1
  O  O267  1  0.62894407  0.92603755  0.31776370  1
  O  O268  1  0.62952377  0.92188662  0.65025675  1
  O  O269  1  0.63703662  0.90714746  0.98422580  1
  O  O270  1  0.04515881  0.16749541  0.09635461  1
  O  O271  1  0.03234369  0.19907236  0.44524390  1
  O  O272  1  0.03148527  0.19659827  0.77189494  1
  O  O273  1  0.03191373  0.69891765  0.10394386  1
  O  O274  1  0.02949401  0.70402102  0.43673389  1
  O  O275  1  0.04029044  0.69233222  0.76981104  1
  O  O276  1  0.52424923  0.21030991  0.10710370  1
  O  O277  1  0.52235694  0.19825648  0.43390022  1
  O  O278  1  0.52902085  0.19919109  0.76657922  1
  O  O279  1  0.53235005  0.70068945  0.10041208  1
  O  O280  1  0.53190165  0.70275907  0.44752327  1
  O  O281  1  0.52597323  0.70618806  0.76939022  1
  O  O282  1  0.29556933  0.47094180  0.06153488  1
  O  O283  1  0.30133181  0.47243447  0.39384630  1
  O  O284  1  0.29896071  0.46545217  0.73143875  1
  O  O285  1  0.30704621  0.96791628  0.06522130  1
  O  O286  1  0.30179930  0.96883432  0.39691659  1
  O  O287  1  0.30189845  0.97363512  0.72766702  1
  O  O288  1  0.78615096  0.47307962  0.06110303  1
  O  O289  1  0.79449732  0.47235981  0.40056760  1
  O  O290  1  0.80534079  0.45640833  0.73033024  1
  O  O291  1  0.80841793  0.94385896  0.06021346  1
  O  O292  1  0.80017083  0.97228335  0.39396110  1
  O  O293  1  0.79341451  0.97233000  0.72050478  1
  O  O294  1  0.46489425  0.29533102  0.22721455  1
  O  O295  1  0.47403976  0.29057885  0.55903661  1
  O  O296  1  0.46723457  0.29757838  0.89339141  1
  O  O297  1  0.46566584  0.81260674  0.23120445  1
  O  O298  1  0.46807563  0.80156082  0.56212464  1
  O  O299  1  0.47089905  0.80427002  0.89860911  1
  O  O300  1  0.96211227  0.32536368  0.23531016  1
  O  O301  1  0.96313071  0.30192752  0.56262698  1
  O  O302  1  0.96933130  0.29813137  0.89350177  1
  O  O303  1  0.97174782  0.80275392  0.23280025  1
  O  O304  1  0.96941233  0.80193292  0.55692944  1
  O  O305  1  0.98023671  0.80007688  0.90486146  1
  O  O306  1  0.20335504  0.02173660  0.26995619  1
  O  O307  1  0.19951995  0.03138302  0.60380119  1
  O  O308  1  0.20347067  0.03322437  0.93475765  1
  O  O309  1  0.20479379  0.53237832  0.26851786  1
  O  O310  1  0.19468367  0.54062347  0.60185854  1
  O  O311  1  0.19610063  0.52568188  0.93080096  1
  O  O312  1  0.70233487  0.03803636  0.27727147  1
  O  O313  1  0.70114567  0.02904484  0.60314123  1
  O  O314  1  0.68106417  0.04286044  0.93484807  1
  O  O315  1  0.70737134  0.53088074  0.27402766  1
  O  O316  1  0.69386061  0.52518589  0.59984728  1
  O  O317  1  0.70440419  0.53146869  0.94586847  1
  O  O318  1  0.08459959  0.06426001  0.00808610  1
  O  O319  1  0.08058000  0.08587752  0.37335990  1
  O  O320  1  0.08123946  0.08290770  0.70273009  1
  O  O321  1  0.08806848  0.58956326  0.03732914  1
  O  O322  1  0.08754372  0.59299165  0.37514147  1
  O  O323  1  0.09377237  0.58826474  0.69648913  1
  O  O324  1  0.56704904  0.08992885  0.04706901  1
  O  O325  1  0.58125394  0.08779102  0.37220020  1
  O  O326  1  0.58151730  0.08530517  0.70025764  1
  O  O327  1  0.58598250  0.58979013  0.03370073  1
  O  O328  1  0.58440842  0.59089604  0.38001504  1
  O  O329  1  0.58764715  0.59756068  0.71220977  1
  O  O330  1  0.40185257  0.40684383  0.11944029  1
  O  O331  1  0.41303447  0.41421767  0.45435568  1
  O  O332  1  0.40993834  0.41058667  0.79791864  1
  O  O333  1  0.41781156  0.91312854  0.13158673  1
  O  O334  1  0.41083842  0.91118649  0.46434438  1
  O  O335  1  0.41392936  0.91920700  0.79153550  1
  O  O336  1  0.88911922  0.40119127  0.10891275  1
  O  O337  1  0.90809328  0.42027448  0.46650712  1
  O  O338  1  0.91837966  0.41282584  0.80588195  1
  O  O339  1  0.92063782  0.91342932  0.14894930  1
  O  O340  1  0.91326877  0.91998779  0.45966715  1
  O  O341  1  0.91301744  0.93021755  0.78579979  1
  O  O342  1  0.41199405  0.40773401  0.29358694  1
  O  O343  1  0.42588164  0.40742007  0.62130418  1
  O  O344  1  0.41232630  0.40927570  0.95648477  1
  O  O345  1  0.41045137  0.91560063  0.30352906  1
  O  O346  1  0.41742002  0.91625718  0.62750492  1
  O  O347  1  0.41994373  0.91627353  0.96698309  1
  O  O348  1  0.90562226  0.42271123  0.31416794  1
  O  O349  1  0.90779812  0.41080937  0.63256286  1
  O  O350  1  0.91205596  0.40998618  0.95727265  1
  O  O351  1  0.91307955  0.91319688  0.29814018  1
  O  O352  1  0.91879767  0.91803766  0.62106323  1
  O  O353  1  0.92974797  0.91356733  0.96800086  1
  O  O354  1  0.08724466  0.06776850  0.20229740  1
  O  O355  1  0.08450504  0.08202535  0.53867375  1
  O  O356  1  0.09100640  0.08665671  0.86544527  1
  O  O357  1  0.09015254  0.58350054  0.20489529  1
  O  O358  1  0.08775449  0.59444611  0.52848509  1
  O  O359  1  0.08718818  0.58461004  0.86677813  1
  O  O360  1  0.58266719  0.08370591  0.21212485  1
  O  O361  1  0.58967015  0.08336843  0.53968405  1
  O  O362  1  0.57725934  0.09219525  0.85669263  1
  O  O363  1  0.60138139  0.60070396  0.22547537  1
  O  O364  1  0.58437864  0.58151067  0.53561601  1
  O  O365  1  0.59016543  0.58101183  0.87853616  1
  O  O366  1  0.13945988  0.20046266  0.03935144  1
  O  O367  1  0.13536470  0.21875368  0.39395686  1
  O  O368  1  0.13718371  0.21592358  0.72384736  1
  O  O369  1  0.13781340  0.72483873  0.05893291  1
  O  O370  1  0.14004550  0.72644111  0.39566579  1
  O  O371  1  0.14585527  0.72491005  0.72687075  1
  O  O372  1  0.63357221  0.21719626  0.06105655  1
  O  O373  1  0.63287644  0.22097814  0.39252152  1
  O  O374  1  0.63723887  0.21858444  0.72145380  1
  O  O375  1  0.64079838  0.72309385  0.05671147  1
  O  O376  1  0.63299495  0.72392980  0.39540033  1
  O  O377  1  0.63767012  0.73116937  0.72967800  1
  O  O378  1  0.26758974  0.36047398  0.10057523  1
  O  O379  1  0.27959797  0.36387042  0.43675499  1
  O  O380  1  0.27609651  0.35955669  0.77783856  1
  O  O381  1  0.28310154  0.86545340  0.11588702  1
  O  O382  1  0.27623517  0.86086329  0.44042711  1
  O  O383  1  0.28035427  0.86403574  0.77017240  1
  O  O384  1  0.75656514  0.36416838  0.10225851  1
  O  O385  1  0.77595441  0.36328929  0.44488176  1
  O  O386  1  0.78460577  0.35587404  0.78299769  1
  O  O387  1  0.78788276  0.85454316  0.12578885  1
  O  O388  1  0.78000546  0.86346393  0.43837719  1
  O  O389  1  0.78575496  0.86700075  0.77129551  1
  O  O390  1  0.36407180  0.27400801  0.27968128  1
  O  O391  1  0.36345322  0.27726224  0.60219403  1
  O  O392  1  0.35974687  0.27611377  0.93852907  1
  O  O393  1  0.36017850  0.77819730  0.27357970  1
  O  O394  1  0.36200647  0.78426823  0.61079348  1
  O  O395  1  0.36406681  0.78249303  0.94436114  1
  O  O396  1  0.85874687  0.28474342  0.27923372  1
  O  O397  1  0.85668142  0.27517102  0.60619202  1
  O  O398  1  0.86579447  0.27676977  0.94295758  1
  O  O399  1  0.86411153  0.77800348  0.27673107  1
  O  O400  1  0.87259486  0.78738439  0.61619916  1
  O  O401  1  0.86688183  0.78143641  0.94313834  1
  O  O402  1  0.21810909  0.13307303  0.22788525  1
  O  O403  1  0.21686383  0.14112336  0.55995226  1
  O  O404  1  0.22493857  0.13933380  0.88787937  1
  O  O405  1  0.22178484  0.63790220  0.21933094  1
  O  O406  1  0.22386724  0.64303199  0.55441179  1
  O  O407  1  0.22294844  0.63427667  0.88914817  1
  O  O408  1  0.71093883  0.13507525  0.21722035  1
  O  O409  1  0.72276883  0.13800686  0.55960059  1
  O  O410  1  0.71418514  0.14444968  0.88608975  1
  O  O411  1  0.73457847  0.63966170  0.23234925  1
  O  O412  1  0.71920623  0.63568038  0.55926832  1
  O  O413  1  0.72198592  0.63699592  0.89733852  1
  O  O414  1  0.48915830  0.33148630  0.02738860  1
  O  O415  1  0.49483498  0.33335046  0.36240443  1
  O  O416  1  0.49329943  0.32551917  0.69313175  1
  O  O417  1  0.49491654  0.83538100  0.03296551  1
  O  O418  1  0.48998323  0.83229995  0.36342778  1
  O  O419  1  0.49371819  0.83855925  0.69715474  1
  O  O420  1  0.99790022  0.33844499  0.02824531  1
  O  O421  1  0.98838649  0.33897563  0.36806873  1
  O  O422  1  0.98750582  0.32872662  0.69540619  1
  O  O423  1  0.99569470  0.83029529  0.03720840  1
  O  O424  1  0.99358640  0.83648184  0.36555562  1
  O  O425  1  1.00635760  0.84991463  0.69305068  1
  O  O426  1  0.17436725  0.00313293  0.13695260  1
  O  O427  1  0.16610765  0.00988344  0.47036092  1
  O  O428  1  0.17082689  0.00773623  0.80107426  1
  O  O429  1  0.16630957  0.50611590  0.13386225  1
  O  O430  1  0.16868411  0.51084104  0.46869504  1
  O  O431  1  0.16463308  0.50643392  0.79736197  1
  O  O432  1  0.65322651  -0.00071066  0.14093672  1
  O  O433  1  0.66907899  0.00840825  0.46989853  1
  O  O434  1  0.66174435  0.01194067  0.80060254  1
  O  O435  1  0.66480478  0.51660586  0.14096505  1
  O  O436  1  0.66294779  0.50687679  0.46670914  1
  O  O437  1  0.67035807  0.50388230  0.81147174  1
  O  O438  1  0.00043034  0.16733867  0.31116337  1
  O  O439  1  0.00511637  0.16406614  0.63734479  1
  O  O440  1  0.00432716  0.15696687  0.96327683  1
  O  O441  1  0.01127871  0.67108711  0.30431392  1
  O  O442  1  0.01460231  0.67466823  0.63855391  1
  O  O443  1  0.00878772  0.66607565  0.96926677  1
  O  O444  1  0.50316558  0.16538197  0.30199969  1
  O  O445  1  0.50587708  0.16379083  0.63237492  1
  O  O446  1  0.50371737  0.16886931  0.97150384  1
  O  O447  1  0.49989641  0.66755060  0.31319400  1
  O  O448  1  0.51016582  0.67251608  0.63772824  1
  O  O449  1  0.50962724  0.66917839  0.96701589  1
  O  O450  1  0.32908379  0.48676827  0.19369508  1
  O  O451  1  0.33876197  0.49352976  0.52751939  1
  O  O452  1  0.33297955  0.49079608  0.86558722  1
  O  O453  1  0.34325421  0.99535308  0.20046465  1
  O  O454  1  0.33123485  0.99170554  0.52931155  1
  O  O455  1  0.33405948  0.99330051  0.86100155  1
  O  O456  1  0.82841703  0.48723261  0.19362242  1
  O  O457  1  0.82698157  0.49402042  0.53425255  1
  O  O458  1  0.83458393  0.49011367  0.86571879  1
  O  O459  1  0.83133805  0.99331252  0.19647165  1
  O  O460  1  0.83262364  0.99400990  0.52740645  1
  O  O461  1  0.83204346  1.00136226  0.85630075  1
