# generated using pymatgen
data_Na31Fe20(SO4)36
_symmetry_space_group_name_H-M   'P 1'
_cell_length_a   18.09768399
_cell_length_b   18.09421038
_cell_length_c   19.73304578
_cell_angle_alpha   107.61490610
_cell_angle_beta   107.60630251
_cell_angle_gamma   90.75056755
_symmetry_Int_Tables_number   1
_chemical_formula_structural   Na31Fe20(SO4)36
_chemical_formula_sum   'Na62 Fe40 S72 O288'
_cell_volume   5831.30081060
_cell_formula_units_Z   2
loop_
 _symmetry_equiv_pos_site_id
 _symmetry_equiv_pos_as_xyz
  1  'x, y, z'
loop_
 _atom_site_type_symbol
 _atom_site_label
 _atom_site_symmetry_multiplicity
 _atom_site_fract_x
 _atom_site_fract_y
 _atom_site_fract_z
 _atom_site_occupancy
  Na  Na0  1  0.12762992  0.35885427  0.07356765  1
  Na  Na1  1  0.13759176  0.36354332  0.41727361  1
  Na  Na2  1  0.13234375  0.36047761  0.74931387  1
  Na  Na3  1  0.13317249  0.86287455  0.08438093  1
  Na  Na4  1  0.12618438  0.86756566  0.41113848  1
  Na  Na5  1  0.13515003  0.86760610  0.75102356  1
  Na  Na6  1  0.64238054  0.36858018  0.08885202  1
  Na  Na7  1  0.63770585  0.36555436  0.42083475  1
  Na  Na8  1  0.69302003  0.40814236  0.79838321  1
  Na  Na9  1  0.63470264  0.85738948  0.08330215  1
  Na  Na10  1  0.62476733  0.86402612  0.40111590  1
  Na  Na11  1  0.63297132  0.86733782  0.75245937  1
  Na  Na12  1  0.38451730  0.12849201  0.24943297  1
  Na  Na13  1  0.36803845  0.14362968  0.59044968  1
  Na  Na14  1  0.35742154  0.14771099  0.92518168  1
  Na  Na15  1  0.36304305  0.65293700  0.23979213  1
  Na  Na16  1  0.36355260  0.63069426  0.58290867  1
  Na  Na17  1  0.37793126  0.64297109  0.93818107  1
  Na  Na18  1  0.85876528  0.13346552  0.24522557  1
  Na  Na19  1  0.86733770  0.14416899  0.59149884  1
  Na  Na20  1  0.86347728  0.13134126  0.91290856  1
  Na  Na21  1  0.85615031  0.61939613  0.22479354  1
  Na  Na22  1  0.85488702  0.63175016  0.58338090  1
  Na  Na23  1  0.84676449  0.62202553  0.90030682  1
  Na  Na24  1  0.99128054  0.50746836  0.39913608  1
  Na  Na25  1  0.51757005  0.54470875  0.07823664  1
  Na  Na26  1  0.49105790  0.01788205  0.74716991  1
  Na  Na27  1  0.50895682  0.48345685  0.77682411  1
  Na  Na28  1  0.49122487  0.50584701  0.41805311  1
  Na  Na29  1  0.99082060  0.01011380  0.08729116  1
  Na  Na30  1  0.51332167  -0.03685926  0.15901621  1
  Na  Na31  1  0.99266142  0.02099503  0.74019099  1
  Na  Na32  1  0.96468955  0.48850146  0.75126403  1
  Na  Na33  1  0.51377812  0.99691651  0.55804296  1
  Na  Na34  1  0.00997338  0.99536260  0.91223237  1
  Na  Na35  1  0.49042379  1.00894764  0.93273236  1
  Na  Na36  1  -0.00075793  0.98896729  0.26729193  1
  Na  Na37  1  0.48712117  0.52554379  0.22849586  1
  Na  Na38  1  -0.03835805  0.50799642  0.97327482  1
  Na  Na39  1  -0.02010899  0.50973234  0.58952406  1
  Na  Na40  1  0.59625585  0.49720744  0.64017750  1
  Na  Na41  1  0.00148190  1.00693223  0.55453550  1
  Na  Na42  1  0.73384938  0.73654263  0.33388936  1
  Na  Na43  1  0.79121585  0.29625706  0.67359922  1
  Na  Na44  1  0.25291158  0.75889705  0.32082230  1
  Na  Na45  1  0.25984471  0.25273852  0.32973502  1
  Na  Na46  1  0.75200921  0.26102538  0.00123156  1
  Na  Na47  1  0.74685992  0.25603184  0.31445103  1
  Na  Na48  1  0.24419779  0.74986327  0.66557520  1
  Na  Na49  1  0.25612139  0.74304001  0.02531346  1
  Na  Na50  1  0.73963359  0.71601705  0.00234643  1
  Na  Na51  1  0.73639490  0.72867673  0.67341716  1
  Na  Na52  1  0.24792837  0.25230182  0.83047003  1
  Na  Na53  1  0.76327302  0.25837268  0.48979038  1
  Na  Na54  1  0.74138529  0.74393355  0.50054108  1
  Na  Na55  1  0.24839629  0.74407821  0.84768602  1
  Na  Na56  1  0.72469231  0.72595004  0.16783211  1
  Na  Na57  1  0.76363000  0.26126476  0.83294899  1
  Na  Na58  1  0.24339548  0.24434025  0.51073481  1
  Na  Na59  1  0.25445210  0.75746194  0.49295193  1
  Na  Na60  1  0.26008471  0.25520729  0.15622781  1
  Na  Na61  1  0.74741979  0.74595373  0.83266887  1
  Fe  Fe62  1  0.45859267  0.81850934  0.78695523  1
  Fe  Fe63  1  0.47055314  0.30047450  0.12457011  1
  Fe  Fe64  1  0.47328150  0.31075862  0.45960985  1
  Fe  Fe65  1  0.96637909  0.80614062  0.78239517  1
  Fe  Fe66  1  0.96751067  0.80670516  0.11659546  1
  Fe  Fe67  1  0.46761452  0.30835623  0.79126240  1
  Fe  Fe68  1  0.96516619  0.31042001  0.45315984  1
  Fe  Fe69  1  0.96230335  0.31174582  0.12533800  1
  Fe  Fe70  1  0.46124112  0.80497283  0.44463895  1
  Fe  Fe71  1  0.96163629  0.80338789  0.44685856  1
  Fe  Fe72  1  0.19115928  0.03734350  0.71347360  1
  Fe  Fe73  1  0.18860918  0.53282569  0.37720415  1
  Fe  Fe74  1  0.68780794  0.03782612  0.37569113  1
  Fe  Fe75  1  0.68775636  0.53295540  0.37594715  1
  Fe  Fe76  1  0.19234952  0.53091079  0.04573297  1
  Fe  Fe77  1  0.69190765  0.03586570  0.71333376  1
  Fe  Fe78  1  0.19554102  0.03802561  0.38246531  1
  Fe  Fe79  1  0.19263326  0.03875605  0.05008124  1
  Fe  Fe80  1  0.19368471  0.53152486  0.71353382  1
  Fe  Fe81  1  0.69238400  0.03753238  0.05286792  1
  Fe  Fe82  1  0.03731716  0.68981578  0.21030566  1
  Fe  Fe83  1  0.03531360  0.69285435  0.88247757  1
  Fe  Fe84  1  0.03846601  0.19409357  0.54807656  1
  Fe  Fe85  1  0.53744095  0.18682019  0.54250686  1
  Fe  Fe86  1  0.03183544  0.19945305  0.88056975  1
  Fe  Fe87  1  0.52717480  0.70319818  0.88019431  1
  Fe  Fe88  1  0.53637346  0.19312858  0.88579980  1
  Fe  Fe89  1  0.03249006  0.69386726  0.54509712  1
  Fe  Fe90  1  0.52978723  0.69560681  0.54696124  1
  Fe  Fe91  1  0.03419118  0.19241848  0.21558523  1
  Fe  Fe92  1  0.80886861  0.96371374  0.28509326  1
  Fe  Fe93  1  0.80131876  0.45653235  0.27843731  1
  Fe  Fe94  1  0.80600042  0.96434423  0.95167879  1
  Fe  Fe95  1  0.80384481  0.96100547  0.61404217  1
  Fe  Fe96  1  0.31408489  0.46269069  0.62412787  1
  Fe  Fe97  1  0.31015800  0.96684957  0.28469979  1
  Fe  Fe98  1  0.30439766  0.46608544  0.28373673  1
  Fe  Fe99  1  0.30523443  0.96850415  0.95508519  1
  Fe  Fe100  1  0.30300629  0.96876024  0.61668959  1
  Fe  Fe101  1  0.30983176  0.45567963  0.95267946  1
  S  S102  1  0.36004939  0.13769971  0.08217868  1
  S  S103  1  0.36066099  0.14321592  0.41827685  1
  S  S104  1  0.36150062  0.14060867  0.75176816  1
  S  S105  1  0.36208177  0.62656085  0.08158442  1
  S  S106  1  0.35497008  0.64031893  0.41754004  1
  S  S107  1  0.35488577  0.64428968  0.74977275  1
  S  S108  1  0.86080523  0.13703536  0.08400217  1
  S  S109  1  0.86378256  0.13664561  0.41723514  1
  S  S110  1  0.86109957  0.13310506  0.74722300  1
  S  S111  1  0.86649632  0.64339031  0.07971741  1
  S  S112  1  0.85899189  0.63945141  0.41671895  1
  S  S113  1  0.86638864  0.64215336  0.74603914  1
  S  S114  1  0.14154483  0.35619204  0.25269065  1
  S  S115  1  0.14322479  0.36024194  0.58133497  1
  S  S116  1  0.14080418  0.35750711  0.91627622  1
  S  S117  1  0.13696568  0.86512471  0.25137478  1
  S  S118  1  0.13779941  0.86110631  0.58026222  1
  S  S119  1  0.13757567  0.86297622  0.91491966  1
  S  S120  1  0.63512218  0.35826142  0.25309027  1
  S  S121  1  0.64924606  0.34737497  0.58802506  1
  S  S122  1  0.63853861  0.35348326  0.91271720  1
  S  S123  1  0.64610062  0.86076403  0.24837773  1
  S  S124  1  0.63781546  0.86047046  0.58451986  1
  S  S125  1  0.63775224  0.86460596  0.91652990  1
  S  S126  1  0.06442592  0.16332163  0.04278850  1
  S  S127  1  0.06836257  0.16971961  0.37624589  1
  S  S128  1  0.06636871  0.16029271  0.70436886  1
  S  S129  1  0.07220747  0.67187407  0.04147761  1
  S  S130  1  0.06624168  0.67101382  0.37551554  1
  S  S131  1  0.07203925  0.67243454  0.70917987  1
  S  S132  1  0.56849658  0.17016915  0.03916349  1
  S  S133  1  0.57038793  0.17559361  0.37911020  1
  S  S134  1  0.56672752  0.15941957  0.70563655  1
  S  S135  1  0.56819043  0.66789290  0.03197163  1
  S  S136  1  0.55927069  0.66924992  0.37554951  1
  S  S137  1  0.55400538  0.68030768  0.71048905  1
  S  S138  1  0.32886475  0.42745847  0.12707077  1
  S  S139  1  0.32991395  0.43310296  0.45870909  1
  S  S140  1  0.32702712  0.42929657  0.78982379  1
  S  S141  1  0.32002517  0.93158470  0.11812070  1
  S  S142  1  0.32572255  0.93375797  0.45679463  1
  S  S143  1  0.32617722  0.93891767  0.78887686  1
  S  S144  1  0.83468214  0.43228036  0.12857799  1
  S  S145  1  0.83299821  0.43660340  0.45368077  1
  S  S146  1  0.85158807  0.43434029  0.80490289  1
  S  S147  1  0.83561740  0.93125195  0.12266653  1
  S  S148  1  0.82879863  0.92861359  0.45552090  1
  S  S149  1  0.82930832  0.92745924  0.78846978  1
  S  S150  1  0.42926458  0.33306126  0.29494312  1
  S  S151  1  0.43342885  0.32882395  0.62547518  1
  S  S152  1  0.43386737  0.32726305  0.95883000  1
  S  S153  1  0.42819600  0.83666377  0.29652714  1
  S  S154  1  0.42964869  0.83687982  0.62453890  1
  S  S155  1  0.43370111  0.84033268  0.95740396  1
  S  S156  1  0.93263860  0.32522246  0.29283327  1
  S  S157  1  0.94487047  0.33174331  0.61966740  1
  S  S158  1  0.92970525  0.31828610  0.96251959  1
  S  S159  1  0.92983348  0.82544720  0.28673407  1
  S  S160  1  0.93292496  0.83045001  0.62104879  1
  S  S161  1  0.93478961  0.83532706  0.95584186  1
  S  S162  1  0.16795588  0.06723085  0.20948502  1
  S  S163  1  0.17240614  0.06865425  0.54147299  1
  S  S164  1  0.16356238  0.06753788  0.87135394  1
  S  S165  1  0.17357635  0.56776407  0.21186709  1
  S  S166  1  0.16499493  0.56704571  0.54105740  1
  S  S167  1  0.17125101  0.56987633  0.87622637  1
  S  S168  1  0.67388970  0.06502903  0.21126424  1
  S  S169  1  0.67598744  0.06596488  0.54254877  1
  S  S170  1  0.66995312  0.06525621  0.87650561  1
  S  S171  1  0.66881338  0.56145489  0.21069227  1
  S  S172  1  0.66396510  0.57199040  0.53919739  1
  S  S173  1  0.65877918  0.58241188  0.86375478  1
  O  O174  1  0.37190199  0.21732169  0.07656336  1
  O  O175  1  0.37140460  0.22390159  0.41526136  1
  O  O176  1  0.37351798  0.21926146  0.74613200  1
  O  O177  1  0.37185447  0.70108848  0.06907972  1
  O  O178  1  0.36234983  0.72187084  0.41498123  1
  O  O179  1  0.36170234  0.72206809  0.73888569  1
  O  O180  1  0.87049425  0.21607961  0.07902053  1
  O  O181  1  0.87094566  0.21676440  0.41060356  1
  O  O182  1  0.86773629  0.20618502  0.73234198  1
  O  O183  1  0.87843353  0.72404539  0.07158166  1
  O  O184  1  0.86540286  0.71846634  0.40771341  1
  O  O185  1  0.87799298  0.72058726  0.73320646  1
  O  O186  1  0.27844676  0.13149996  0.08765706  1
  O  O187  1  0.28166593  0.13430216  0.42778476  1
  O  O188  1  0.28243261  0.13113080  0.75915676  1
  O  O189  1  0.28151770  0.61821918  0.08916027  1
  O  O190  1  0.27596514  0.62915321  0.42522937  1
  O  O191  1  0.27653819  0.63350281  0.75842158  1
  O  O192  1  0.78344536  0.12538972  0.09269859  1
  O  O193  1  0.78536157  0.12614465  0.42594239  1
  O  O194  1  0.78408918  0.12193016  0.75998846  1
  O  O195  1  0.79179380  0.64055679  0.09409505  1
  O  O196  1  0.77914766  0.62926446  0.42262589  1
  O  O197  1  0.78655814  0.63692360  0.74848326  1
  O  O198  1  0.13112163  0.27860419  0.26400867  1
  O  O199  1  0.13736885  0.27939602  0.58449458  1
  O  O200  1  0.13118318  0.28120919  0.92974899  1
  O  O201  1  0.12693747  0.78802561  0.26296862  1
  O  O202  1  0.12867721  0.78091316  0.58613256  1
  O  O203  1  0.13054154  0.78409685  0.92290536  1
  O  O204  1  0.62182628  0.28411002  0.26407173  1
  O  O205  1  0.63206369  0.26516159  0.58620112  1
  O  O206  1  0.62942471  0.26733907  0.90832889  1
  O  O207  1  0.63949939  0.78521228  0.26035726  1
  O  O208  1  0.62791637  0.78234156  0.59378010  1
  O  O209  1  0.62447731  0.78409354  0.92050685  1
  O  O210  1  0.22295346  0.36415536  0.24999361  1
  O  O211  1  0.22161457  0.37398671  0.57291538  1
  O  O212  1  0.22346836  0.36576944  0.91320710  1
  O  O213  1  0.21563676  0.87464291  0.24569289  1
  O  O214  1  0.21631330  0.86961974  0.57093833  1
  O  O215  1  0.21531301  0.87292276  0.90458145  1
  O  O216  1  0.71518263  0.36496039  0.24584258  1
  O  O217  1  0.72033974  0.35201925  0.56791514  1
  O  O218  1  0.71481735  0.36500494  0.90337952  1
  O  O219  1  0.72612413  0.87012726  0.23882633  1
  O  O220  1  0.71597511  0.86626316  0.57380242  1
  O  O221  1  0.71522798  0.86922670  0.90407537  1
  O  O222  1  0.41620389  0.12305807  0.14514231  1
  O  O223  1  0.41936099  0.13071536  0.48419302  1
  O  O224  1  0.42003503  0.12777356  0.81796637  1
  O  O225  1  0.41996840  0.61509023  0.14691026  1
  O  O226  1  0.41416308  0.63124957  0.48519408  1
  O  O227  1  0.41515047  0.64064249  0.81919737  1
  O  O228  1  0.92143693  0.12501235  0.15006197  1
  O  O229  1  0.92336367  0.12831823  0.48489637  1
  O  O230  1  0.92204333  0.12620237  0.81554581  1
  O  O231  1  0.92903712  0.63604939  0.14719148  1
  O  O232  1  0.91669221  0.63691319  0.48874949  1
  O  O233  1  0.92170190  0.64316435  0.82098759  1
  O  O234  1  0.36187716  0.08081901  0.00887098  1
  O  O235  1  0.36303888  0.08686037  0.34705685  1
  O  O236  1  0.36831932  0.08137445  0.68246148  1
  O  O237  1  0.36735908  0.56361973  0.01223335  1
  O  O238  1  0.36453611  0.58426766  0.34936592  1
  O  O239  1  0.36278861  0.58349644  0.68292413  1
  O  O240  1  0.86888129  0.07878481  0.01447843  1
  O  O241  1  0.87221872  0.07923288  0.34846648  1
  O  O242  1  0.86946961  0.06784855  0.68172720  1
  O  O243  1  0.87113250  0.58651721  0.01115961  1
  O  O244  1  0.87345016  0.58014900  0.35329970  1
  O  O245  1  0.88387360  0.58146065  0.68614239  1
  O  O246  1  0.08613731  0.35979056  0.18210295  1
  O  O247  1  0.08382125  0.37046080  0.51459409  1
  O  O248  1  0.08688105  0.36106295  0.84664064  1
  O  O249  1  0.07784861  0.87119567  0.18212608  1
  O  O250  1  0.07774264  0.87153626  0.51418461  1
  O  O251  1  0.07757500  0.87048846  0.84633085  1
  O  O252  1  0.57857385  0.36846769  0.18408724  1
  O  O253  1  0.58408341  0.37061401  0.53104157  1
  O  O254  1  0.57741997  0.36431614  0.84494899  1
  O  O255  1  0.58780309  0.86823066  0.18167797  1
  O  O256  1  0.57760072  0.87073217  0.51861712  1
  O  O257  1  0.57757400  0.87883497  0.85251748  1
  O  O258  1  0.13162352  0.41713092  0.31888758  1
  O  O259  1  0.13552150  0.41607638  0.65106635  1
  O  O260  1  0.13380344  0.41967129  0.98399936  1
  O  O261  1  0.12508471  0.92673258  0.31685034  1
  O  O262  1  0.13279725  0.91823040  0.65023318  1
  O  O263  1  0.12756308  0.92258160  0.98131013  1
  O  O264  1  0.62810681  0.42252936  0.31987349  1
  O  O265  1  0.65643797  0.39858467  0.66386384  1
  O  O266  1  0.62906639  0.40185211  0.98215399  1
  O  O267  1  0.64135855  0.92306273  0.31737131  1
  O  O268  1  0.63331864  0.92021451  0.65374447  1
  O  O269  1  0.63666655  0.92094193  0.98822123  1
  O  O270  1  0.02917201  0.19114596  0.10438851  1
  O  O271  1  0.03265524  0.20022030  0.43684689  1
  O  O272  1  0.03416698  0.17928678  0.76649220  1
  O  O273  1  0.04306578  0.70771659  0.10676081  1
  O  O274  1  0.02805204  0.70181853  0.43596209  1
  O  O275  1  0.03915507  0.70292865  0.77202859  1
  O  O276  1  0.53662396  0.20283341  0.10037212  1
  O  O277  1  0.53193699  0.20615526  0.44073037  1
  O  O278  1  0.52711833  0.18477712  0.76373748  1
  O  O279  1  0.53960110  0.68552549  0.09566776  1
  O  O280  1  0.52725721  0.70346925  0.44093009  1
  O  O281  1  0.52029559  0.71937972  0.77318989  1
  O  O282  1  0.29721517  0.45891337  0.06345545  1
  O  O283  1  0.29945943  0.47194883  0.39956438  1
  O  O284  1  0.29790857  0.46870019  0.72953245  1
  O  O285  1  0.28744144  0.97182167  0.05849756  1
  O  O286  1  0.29788077  0.97051492  0.39624613  1
  O  O287  1  0.29446480  0.97115307  0.72514027  1
  O  O288  1  0.81438658  0.46963864  0.07204245  1
  O  O289  1  0.79884623  0.46790885  0.38923524  1
  O  O290  1  0.84074116  0.43313761  0.72688545  1
  O  O291  1  0.80512847  0.96712646  0.06135769  1
  O  O292  1  0.80329677  0.96469836  0.39530753  1
  O  O293  1  0.79723626  0.96012463  0.72599942  1
  O  O294  1  0.46036983  0.30995111  0.23256178  1
  O  O295  1  0.47000002  0.29964428  0.56507433  1
  O  O296  1  0.47158780  0.29626548  0.89821923  1
  O  O297  1  0.45475745  0.80770391  0.23304827  1
  O  O298  1  0.46515260  0.80505992  0.56392152  1
  O  O299  1  0.46489980  0.80272082  0.89087590  1
  O  O300  1  0.96869463  0.29490835  0.23125367  1
  O  O301  1  0.97922200  0.29340472  0.55587770  1
  O  O302  1  0.96607307  0.28870825  0.90241759  1
  O  O303  1  0.96875282  0.79856072  0.22771909  1
  O  O304  1  0.96963638  0.80084300  0.56027057  1
  O  O305  1  0.97092664  0.80519929  0.89499853  1
  O  O306  1  0.20130818  0.03366930  0.27188420  1
  O  O307  1  0.20049628  0.03160554  0.60275158  1
  O  O308  1  0.19455485  0.03276671  0.93297714  1
  O  O309  1  0.20162183  0.52643849  0.27082011  1
  O  O310  1  0.19436714  0.53286298  0.60287005  1
  O  O311  1  0.19670242  0.53071904  0.93447625  1
  O  O312  1  0.71255856  0.03169247  0.27424286  1
  O  O313  1  0.70266036  0.02625566  0.60262535  1
  O  O314  1  0.70010531  0.02884153  0.93745488  1
  O  O315  1  0.70569126  0.52768743  0.27462913  1
  O  O316  1  0.68884068  0.54266475  0.60207320  1
  O  O317  1  0.69037962  0.56037037  0.93017410  1
  O  O318  1  0.08120205  0.07963764  0.03739575  1
  O  O319  1  0.08773093  0.08857882  0.37158313  1
  O  O320  1  0.08079720  0.07405761  0.68693607  1
  O  O321  1  0.08923664  0.59108629  0.03907768  1
  O  O322  1  0.08526384  0.59096255  0.37577816  1
  O  O323  1  0.08936733  0.59056349  0.70169694  1
  O  O324  1  0.59078154  0.08982217  0.03837931  1
  O  O325  1  0.59467130  0.09816372  0.38342750  1
  O  O326  1  0.57735142  0.07299976  0.69434247  1
  O  O327  1  0.57446878  0.58496964  0.00178333  1
  O  O328  1  0.57918459  0.58861387  0.37440313  1
  O  O329  1  0.55810136  0.59934469  0.70623926  1
  O  O330  1  0.40822245  0.40484677  0.12973053  1
  O  O331  1  0.41127075  0.41649378  0.46321713  1
  O  O332  1  0.40664682  0.40919714  0.78965720  1
  O  O333  1  0.39374583  0.90606600  0.11227936  1
  O  O334  1  0.40605779  0.91226002  0.46438085  1
  O  O335  1  0.41024393  0.92728871  0.79592059  1
  O  O336  1  0.91740259  0.41181536  0.14448885  1
  O  O337  1  0.91521872  0.41838642  0.45521673  1
  O  O338  1  0.93690640  0.45021391  0.84719680  1
  O  O339  1  0.91962563  0.91818836  0.12913772  1
  O  O340  1  0.90980996  0.90663202  0.46158819  1
  O  O341  1  0.91264206  0.91396644  0.79493166  1
  O  O342  1  0.40721126  0.41555232  0.30635191  1
  O  O343  1  0.41887005  0.41239431  0.63385330  1
  O  O344  1  0.41960700  0.40942704  0.96545028  1
  O  O345  1  0.40869061  0.91921652  0.30877728  1
  O  O346  1  0.41125900  0.91818085  0.62728931  1
  O  O347  1  0.40570391  0.91496371  0.94570655  1
  O  O348  1  0.91154640  0.40494834  0.29680262  1
  O  O349  1  0.93183773  0.41102648  0.61752242  1
  O  O350  1  0.90966347  0.39664083  0.97031912  1
  O  O351  1  0.91239763  0.90719469  0.29166131  1
  O  O352  1  0.91561092  0.91240394  0.62708247  1
  O  O353  1  0.92052935  0.91906211  0.96222313  1
  O  O354  1  0.08585792  0.08315490  0.20687035  1
  O  O355  1  0.09224866  0.08929397  0.53865774  1
  O  O356  1  0.08130014  0.08390853  0.86798476  1
  O  O357  1  0.09561053  0.59039028  0.21187148  1
  O  O358  1  0.08195302  0.58383796  0.53321247  1
  O  O359  1  0.09015988  0.59051199  0.86767003  1
  O  O360  1  0.59468147  0.07716826  0.21036936  1
  O  O361  1  0.59497665  0.08383917  0.53938042  1
  O  O362  1  0.58735539  0.08073505  0.87020006  1
  O  O363  1  0.59158261  0.58221217  0.21496598  1
  O  O364  1  0.58049509  0.59188135  0.52808275  1
  O  O365  1  0.57674284  0.61033147  0.85998213  1
  O  O366  1  0.13578633  0.21354242  0.05885644  1
  O  O367  1  0.13933175  0.22154827  0.39111150  1
  O  O368  1  0.13821749  0.21014075  0.72043877  1
  O  O369  1  0.14103504  0.72165910  0.04921441  1
  O  O370  1  0.13746687  0.72396931  0.39339139  1
  O  O371  1  0.14277906  0.72502912  0.72367511  1
  O  O372  1  0.63437047  0.22009083  0.04109891  1
  O  O373  1  0.64090244  0.23022666  0.39760723  1
  O  O374  1  0.64162124  0.20484478  0.72538157  1
  O  O375  1  0.64182401  0.71998590  0.05059345  1
  O  O376  1  0.63104086  0.72081092  0.39085518  1
  O  O377  1  0.63012167  0.72576382  0.72713331  1
  O  O378  1  0.27402528  0.36298477  0.12061163  1
  O  O379  1  0.27806072  0.36093762  0.44045073  1
  O  O380  1  0.27342307  0.35990957  0.77335907  1
  O  O381  1  0.26205825  0.86629146  0.10431151  1
  O  O382  1  0.27061847  0.86412696  0.43983842  1
  O  O383  1  0.27914936  0.86478551  0.77306970  1
  O  O384  1  0.78148469  0.36138035  0.11332891  1
  O  O385  1  0.78391096  0.36393343  0.43969549  1
  O  O386  1  0.81543829  0.35658831  0.79963775  1
  O  O387  1  0.78674346  0.85903679  0.10657715  1
  O  O388  1  0.77465443  0.85973389  0.44185834  1
  O  O389  1  0.78072619  0.85487433  0.77519972  1
  O  O390  1  0.36012476  0.27819287  0.28037444  1
  O  O391  1  0.36017662  0.27904020  0.60657001  1
  O  O392  1  0.36024266  0.27702052  0.93740307  1
  O  O393  1  0.35999121  0.78681960  0.29364043  1
  O  O394  1  0.35845881  0.78564376  0.61075691  1
  O  O395  1  0.36702903  0.78665397  0.94889218  1
  O  O396  1  0.86545712  0.27113521  0.28073803  1
  O  O397  1  0.87142840  0.28074528  0.60040677  1
  O  O398  1  0.85957950  0.26280007  0.94620115  1
  O  O399  1  0.85981862  0.77290448  0.27099635  1
  O  O400  1  0.86156318  0.77909332  0.60465407  1
  O  O401  1  0.86202131  0.78709911  0.93987730  1
  O  O402  1  0.21710783  0.13838697  0.22121089  1
  O  O403  1  0.22631501  0.13681979  0.55609573  1
  O  O404  1  0.21343788  0.13693385  0.88162426  1
  O  O405  1  0.22951151  0.63654289  0.23116718  1
  O  O406  1  0.21601478  0.63909577  0.55660562  1
  O  O407  1  0.22614013  0.64097573  0.89621585  1
  O  O408  1  0.72369636  0.13600046  0.22311854  1
  O  O409  1  0.72960706  0.13606533  0.56184227  1
  O  O410  1  0.72158978  0.13592946  0.89240070  1
  O  O411  1  0.72277064  0.63233634  0.22668904  1
  O  O412  1  0.71535531  0.64379888  0.55171869  1
  O  O413  1  0.70990611  0.64971924  0.86696952  1
  O  O414  1  0.49004146  0.32423993  0.03023880  1
  O  O415  1  0.49091307  0.33682417  0.36730878  1
  O  O416  1  0.49025186  0.32803875  0.69745385  1
  O  O417  1  0.49808347  0.85783923  0.02693365  1
  O  O418  1  0.49300525  0.83985376  0.36908816  1
  O  O419  1  0.48872180  0.84421643  0.69890947  1
  O  O420  1  0.99037243  0.31650648  0.03471546  1
  O  O421  1  0.99612352  0.33108082  0.36475514  1
  O  O422  1  1.00091152  0.33322665  0.69109553  1
  O  O423  1  0.99413979  0.83691386  0.02803308  1
  O  O424  1  0.98923695  0.82873928  0.36008908  1
  O  O425  1  0.99299699  0.83296926  0.69332051  1
  O  O426  1  0.16243021  0.00648056  0.13687196  1
  O  O427  1  0.16703588  0.00740661  0.46911925  1
  O  O428  1  0.15731011  0.00574491  0.79786727  1
  O  O429  1  0.16947860  0.50905670  0.13902717  1
  O  O430  1  0.16379774  0.50781497  0.46884413  1
  O  O431  1  0.17018616  0.51201410  0.80308621  1
  O  O432  1  0.67409896  0.00381283  0.13939014  1
  O  O433  1  0.67357889  0.00720840  0.47024337  1
  O  O434  1  0.66777550  0.00615275  0.80351616  1
  O  O435  1  0.66172045  0.50313671  0.13866566  1
  O  O436  1  0.66328966  0.51127060  0.46741130  1
  O  O437  1  0.64069458  0.51711009  0.79252251  1
  O  O438  1  0.00809013  0.16500480  0.30329445  1
  O  O439  1  0.00625824  0.16262390  0.63350973  1
  O  O440  1  0.00589738  0.15745256  0.96915903  1
  O  O441  1  0.00892624  0.66754474  0.30281330  1
  O  O442  1  0.01080666  0.67014651  0.63740331  1
  O  O443  1  0.00758853  0.66759340  0.97114238  1
  O  O444  1  0.51229455  0.16923896  0.30820089  1
  O  O445  1  0.51034901  0.16084744  0.63244617  1
  O  O446  1  0.50300399  0.15501134  0.96443606  1
  O  O447  1  0.49749717  0.66409757  0.30639618  1
  O  O448  1  0.49856700  0.68579195  0.63866865  1
  O  O449  1  0.50774043  0.69146029  0.96819303  1
  O  O450  1  0.33898562  0.49338475  0.19945531  1
  O  O451  1  0.33016919  0.49019801  0.53196916  1
  O  O452  1  0.33231645  0.48838313  0.86265333  1
  O  O453  1  0.32840189  0.99209577  0.19241926  1
  O  O454  1  0.32856727  0.99446008  0.52892832  1
  O  O455  1  0.32440839  0.99805225  0.85904738  1
  O  O456  1  0.83429840  0.48994896  0.20359829  1
  O  O457  1  0.83907002  0.49796492  0.52386313  1
  O  O458  1  0.81039881  0.49535036  0.84320510  1
  O  O459  1  0.83891956  0.99075842  0.19561374  1
  O  O460  1  0.83549123  0.98965346  0.52885582  1
  O  O461  1  0.83060803  0.98766923  0.86047362  1
