# generated using pymatgen
data_Na31Fe20(SO4)36
_symmetry_space_group_name_H-M   'P 1'
_cell_length_a   18.07398336
_cell_length_b   18.06449097
_cell_length_c   19.69502294
_cell_angle_alpha   107.58179733
_cell_angle_beta   107.58592272
_cell_angle_gamma   90.71438750
_symmetry_Int_Tables_number   1
_chemical_formula_structural   Na31Fe20(SO4)36
_chemical_formula_sum   'Na62 Fe40 S72 O288'
_cell_volume   5805.30573145
_cell_formula_units_Z   2
loop_
 _symmetry_equiv_pos_site_id
 _symmetry_equiv_pos_as_xyz
  1  'x, y, z'
loop_
 _atom_site_type_symbol
 _atom_site_label
 _atom_site_symmetry_multiplicity
 _atom_site_fract_x
 _atom_site_fract_y
 _atom_site_fract_z
 _atom_site_occupancy
  Na  Na0  1  0.16271997  0.35854214  0.08488910  1
  Na  Na1  1  0.13495669  0.36331236  0.41236286  1
  Na  Na2  1  0.13450907  0.37250564  0.75334650  1
  Na  Na3  1  0.12726647  0.86136602  0.07199679  1
  Na  Na4  1  0.13794033  0.86183151  0.42237101  1
  Na  Na5  1  0.13093132  0.86615703  0.74574529  1
  Na  Na6  1  0.63252850  0.36756675  0.08592565  1
  Na  Na7  1  0.63452613  0.36351109  0.41856047  1
  Na  Na8  1  0.63235785  0.36803322  0.75153297  1
  Na  Na9  1  0.61753579  0.84716011  0.06409997  1
  Na  Na10  1  0.63095005  0.87996440  0.41480147  1
  Na  Na11  1  0.63535143  0.86224124  0.75412924  1
  Na  Na12  1  0.35849615  0.12305358  0.24261321  1
  Na  Na13  1  0.35805717  0.12622161  0.57710098  1
  Na  Na14  1  0.36689960  0.14058323  0.92581914  1
  Na  Na15  1  0.35122896  0.63724289  0.23603736  1
  Na  Na16  1  0.35849995  0.65085784  0.59165939  1
  Na  Na17  1  0.37703678  0.64328299  0.92876532  1
  Na  Na18  1  0.86923318  0.13070434  0.25163433  1
  Na  Na19  1  0.86612079  0.12953889  0.57768301  1
  Na  Na20  1  0.87546027  0.12263009  0.91617087  1
  Na  Na21  1  0.87020970  0.63971364  0.25798940  1
  Na  Na22  1  0.86132620  0.63721931  0.58263180  1
  Na  Na23  1  0.87456565  0.63948246  0.92016731  1
  Na  Na24  1  0.99703635  0.56228545  0.77111994  1
  Na  Na25  1  0.49231248  0.51937836  0.06185305  1
  Na  Na26  1  0.48639638  0.51002772  0.41362964  1
  Na  Na27  1  1.02873993  0.48645029  0.07451733  1
  Na  Na28  1  0.98854413  0.52052451  0.41387401  1
  Na  Na29  1  0.50704384  -0.05087326  0.22759449  1
  Na  Na30  1  0.43833520  0.00356654  0.73302704  1
  Na  Na31  1  1.00276045  -0.02554768  0.42655414  1
  Na  Na32  1  0.48767498  0.54916797  0.79514163  1
  Na  Na33  1  0.49538198  0.52043112  0.24018625  1
  Na  Na34  1  0.50175259  0.49126524  0.59039597  1
  Na  Na35  1  0.00782354  0.49322013  0.58273716  1
  Na  Na36  1  0.50253133  0.99329831  0.57179570  1
  Na  Na37  1  0.50005980  0.97443570  0.93666840  1
  Na  Na38  1  0.00557128  0.95792937  0.59456225  1
  Na  Na39  1  0.01165595  0.48888009  0.24399874  1
  Na  Na40  1  0.06686940  0.51216766  0.93639430  1
  Na  Na41  1  0.02263326  0.98732065  0.23715101  1
  Na  Na42  1  0.26447050  0.77114850  0.32656351  1
  Na  Na43  1  0.75054140  0.75209614  -0.01901720  1
  Na  Na44  1  0.24217777  0.24553640  0.67280268  1
  Na  Na45  1  0.74182064  0.24365299  0.67273716  1
  Na  Na46  1  0.26555351  0.75699249  -0.00394496  1
  Na  Na47  1  0.76564099  0.76574370  0.32980329  1
  Na  Na48  1  0.74316271  0.24297741  0.00567775  1
  Na  Na49  1  0.74342663  0.74504579  0.67412934  1
  Na  Na50  1  0.25503359  0.25186720  0.31901551  1
  Na  Na51  1  0.73506907  0.22958849  0.34180608  1
  Na  Na52  1  0.24046139  0.24200050  0.84749672  1
  Na  Na53  1  0.26120672  0.76364083  0.15577273  1
  Na  Na54  1  0.73681140  0.23167512  0.50475500  1
  Na  Na55  1  0.25310721  0.25019652  0.49769616  1
  Na  Na56  1  0.75623785  0.75577620  0.15872720  1
  Na  Na57  1  0.74366015  0.24027657  0.17521516  1
  Na  Na58  1  0.25088698  0.76048341  0.50740024  1
  Na  Na59  1  0.76455083  0.76423786  0.49238198  1
  Na  Na60  1  0.74722364  0.24146032  0.83946652  1
  Na  Na61  1  0.25113568  0.76079862  0.82154197  1
  Fe  Fe62  1  0.46351577  0.31982198  0.79181129  1
  Fe  Fe63  1  0.96641956  0.30714978  0.78327706  1
  Fe  Fe64  1  0.96731220  0.30385941  0.11380702  1
  Fe  Fe65  1  0.96762605  0.30646061  0.44787813  1
  Fe  Fe66  1  0.46644420  0.80638457  0.45130792  1
  Fe  Fe67  1  0.46175870  0.30735849  0.44997785  1
  Fe  Fe68  1  0.46049680  0.30735214  0.11870667  1
  Fe  Fe69  1  0.96718572  0.80461649  0.79630152  1
  Fe  Fe70  1  0.96315907  0.80443561  0.11695453  1
  Fe  Fe71  1  0.46725832  0.80213548  0.78653904  1
  Fe  Fe72  1  0.19913903  0.03113642  0.70969529  1
  Fe  Fe73  1  0.69364260  0.03353045  0.71485753  1
  Fe  Fe74  1  0.68995779  0.53122935  0.37885145  1
  Fe  Fe75  1  0.20492392  0.02507859  0.37668197  1
  Fe  Fe76  1  0.69172964  0.53568640  0.71795669  1
  Fe  Fe77  1  0.69307459  0.03388962  0.04654540  1
  Fe  Fe78  1  0.18908153  0.03703132  0.04781242  1
  Fe  Fe79  1  0.19069603  0.54158528  0.71450760  1
  Fe  Fe80  1  0.19439635  0.53568418  0.38307204  1
  Fe  Fe81  1  0.69104957  0.53183106  0.04202168  1
  Fe  Fe82  1  0.53774130  0.69047193  0.55106724  1
  Fe  Fe83  1  0.03843390  0.18465292  0.87708518  1
  Fe  Fe84  1  0.53168046  0.18613449  0.21194851  1
  Fe  Fe85  1  0.03491699  0.68762766  0.21329514  1
  Fe  Fe86  1  0.53124996  0.19467560  0.87856354  1
  Fe  Fe87  1  0.02946365  0.70227434  0.54640974  1
  Fe  Fe88  1  0.53282005  0.18706250  0.54098856  1
  Fe  Fe89  1  0.53569083  0.69877651  0.20670035  1
  Fe  Fe90  1  0.03639395  0.18712286  0.20621989  1
  Fe  Fe91  1  0.03541958  0.19223884  0.54256865  1
  Fe  Fe92  1  0.80967231  0.96207940  0.95463492  1
  Fe  Fe93  1  0.80251116  0.96755393  0.29273813  1
  Fe  Fe94  1  0.80683733  0.46416661  0.61905749  1
  Fe  Fe95  1  0.81227241  0.46327856  0.95149856  1
  Fe  Fe96  1  0.30462770  0.46425268  0.27544064  1
  Fe  Fe97  1  0.30692617  0.96941350  0.95939667  1
  Fe  Fe98  1  0.30638782  0.46974146  0.62184115  1
  Fe  Fe99  1  0.80926971  0.96734755  0.62331102  1
  Fe  Fe100  1  0.80399866  0.46187465  0.28132913  1
  Fe  Fe101  1  0.30127569  0.46736497  0.95579750  1
  S  S102  1  0.35718505  0.14229884  0.08397051  1
  S  S103  1  0.35848313  0.14535131  0.41802638  1
  S  S104  1  0.35839826  0.15101743  0.75220810  1
  S  S105  1  0.36462918  0.63678067  0.08672782  1
  S  S106  1  0.36149835  0.63837536  0.41454770  1
  S  S107  1  0.35325441  0.64554454  0.74661588  1
  S  S108  1  0.85804858  0.14134432  0.08230192  1
  S  S109  1  0.86155715  0.14427112  0.41331598  1
  S  S110  1  0.86043243  0.14341146  0.75030903  1
  S  S111  1  0.85995247  0.63622569  0.08487686  1
  S  S112  1  0.85578736  0.63462363  0.41621145  1
  S  S113  1  0.85085363  0.63999484  0.74568847  1
  S  S114  1  0.13878675  0.36084451  0.24821269  1
  S  S115  1  0.13902966  0.36303498  0.58256124  1
  S  S116  1  0.13707755  0.35672394  0.91399688  1
  S  S117  1  0.13764394  0.85479420  0.25218463  1
  S  S118  1  0.13900757  0.86318931  0.58228236  1
  S  S119  1  0.14350720  0.86147395  0.91567554  1
  S  S120  1  0.63807035  0.35682333  0.24866509  1
  S  S121  1  0.63855304  0.35974757  0.58295307  1
  S  S122  1  0.64350347  0.35591592  0.91627320  1
  S  S123  1  0.64459072  0.85319247  0.24695487  1
  S  S124  1  0.64258888  0.85888565  0.58257755  1
  S  S125  1  0.63781829  0.86196923  0.91665808  1
  S  S126  1  0.06915140  0.17309930  0.04139332  1
  S  S127  1  0.07207463  0.17081621  0.37289294  1
  S  S128  1  0.06879630  0.17056495  0.70676215  1
  S  S129  1  0.06452650  0.66842552  0.04940978  1
  S  S130  1  0.06672666  0.66332717  0.37660184  1
  S  S131  1  0.06053438  0.67008710  0.70488228  1
  S  S132  1  0.56780033  0.17237916  0.04256707  1
  S  S133  1  0.56359253  0.17222463  0.37767853  1
  S  S134  1  0.56616371  0.17120938  0.70888588  1
  S  S135  1  0.57043894  0.66132104  0.03891111  1
  S  S136  1  0.57174832  0.66993635  0.37432746  1
  S  S137  1  0.56098906  0.66381363  0.70327729  1
  S  S138  1  0.33954545  0.43295103  0.12816041  1
  S  S139  1  0.32936889  0.43574732  0.45789328  1
  S  S140  1  0.32704365  0.43843529  0.79095424  1
  S  S141  1  0.32371123  0.93417890  0.12018304  1
  S  S142  1  0.33259355  0.93150673  0.46234843  1
  S  S143  1  0.33095319  0.93549072  0.79543222  1
  S  S144  1  0.83153506  0.43046982  0.12271829  1
  S  S145  1  0.83025282  0.42836212  0.45466439  1
  S  S146  1  0.83012838  0.43110990  0.78789735  1
  S  S147  1  0.82579484  0.93055794  0.12474929  1
  S  S148  1  0.83515222  0.93839962  0.46195778  1
  S  S149  1  0.82651634  0.93029632  0.78965226  1
  S  S150  1  0.43316993  0.33408770  0.29319430  1
  S  S151  1  0.43249624  0.33538819  0.62634809  1
  S  S152  1  0.43320744  0.33268634  0.95748085  1
  S  S153  1  0.43980492  0.82705372  0.28894735  1
  S  S154  1  0.44370645  0.82976633  0.62272609  1
  S  S155  1  0.42567660  0.83312164  0.95621982  1
  S  S156  1  0.93447832  0.33401178  0.28793871  1
  S  S157  1  0.93245074  0.33161898  0.62065534  1
  S  S158  1  0.93496316  0.32869998  0.95512127  1
  S  S159  1  0.93346944  0.83066884  0.29031244  1
  S  S160  1  0.92527854  0.82454285  0.62856795  1
  S  S161  1  0.92865591  0.82953920  0.95951900  1
  S  S162  1  0.16305966  0.06317056  0.20695055  1
  S  S163  1  0.16847001  0.07159218  0.53944702  1
  S  S164  1  0.17773734  0.06952992  0.87501540  1
  S  S165  1  0.16923175  0.56261864  0.21210879  1
  S  S166  1  0.16579095  0.56601851  0.53915473  1
  S  S167  1  0.17679845  0.57079881  0.87589105  1
  S  S168  1  0.67250289  0.06704657  0.20854779  1
  S  S169  1  0.67077411  0.06698029  0.54685316  1
  S  S170  1  0.66899752  0.07066022  0.87552868  1
  S  S171  1  0.67164140  0.56753485  0.20907810  1
  S  S172  1  0.66598469  0.56125837  0.54060402  1
  S  S173  1  0.67863070  0.56315937  0.87921681  1
  O  O174  1  0.37031951  0.21810823  0.07164722  1
  O  O175  1  0.36206411  0.23019707  0.41947891  1
  O  O176  1  0.36922628  0.23335555  0.75140060  1
  O  O177  1  0.37294377  0.71117332  0.07317523  1
  O  O178  1  0.37028955  0.71664149  0.40555181  1
  O  O179  1  0.36686604  0.72129366  0.73428947  1
  O  O180  1  0.86780502  0.21989627  0.07273743  1
  O  O181  1  0.87777556  0.21965726  0.39850310  1
  O  O182  1  0.86879528  0.22309437  0.74227888  1
  O  O183  1  0.86399818  0.71524885  0.07593201  1
  O  O184  1  0.85916586  0.71121756  0.40664392  1
  O  O185  1  0.86535621  0.71886291  0.74005774  1
  O  O186  1  0.27895680  0.13291838  0.09056922  1
  O  O187  1  0.27953690  0.13029269  0.42538959  1
  O  O188  1  0.27736782  0.14006856  0.75500705  1
  O  O189  1  0.29361728  0.62661862  0.10529729  1
  O  O190  1  0.28524067  0.63089853  0.42804741  1
  O  O191  1  0.26993979  0.63843717  0.74479368  1
  O  O192  1  0.77785646  0.13444668  0.08923486  1
  O  O193  1  0.78330870  0.14375309  0.42025782  1
  O  O194  1  0.78074820  0.13496872  0.75775971  1
  O  O195  1  0.78166277  0.62364579  0.09337075  1
  O  O196  1  0.77935155  0.61998603  0.42886280  1
  O  O197  1  0.76743141  0.63194053  0.74268649  1
  O  O198  1  0.12805742  0.28192477  0.25552366  1
  O  O199  1  0.12991138  0.28473683  0.59171318  1
  O  O200  1  0.12904226  0.27416053  0.91261564  1
  O  O201  1  0.12144116  0.77866930  0.26496709  1
  O  O202  1  0.12365277  0.78413724  0.58956244  1
  O  O203  1  0.14466863  0.78725112  0.93064848  1
  O  O204  1  0.63141582  0.27745332  0.25614195  1
  O  O205  1  0.62946937  0.27967644  0.58888346  1
  O  O206  1  0.63330082  0.27523140  0.92142823  1
  O  O207  1  0.63561911  0.77010536  0.25297151  1
  O  O208  1  0.63438515  0.77772716  0.58647287  1
  O  O209  1  0.62917452  0.78796048  0.93014997  1
  O  O210  1  0.21873141  0.37076242  0.24396996  1
  O  O211  1  0.21826166  0.37214124  0.57510355  1
  O  O212  1  0.21518277  0.36948847  0.90501237  1
  O  O213  1  0.21526182  0.85590210  0.24419872  1
  O  O214  1  0.21748072  0.87176887  0.57795043  1
  O  O215  1  0.22212769  0.87846732  0.90444325  1
  O  O216  1  0.71613039  0.36734161  0.23786182  1
  O  O217  1  0.71670031  0.36776632  0.57234031  1
  O  O218  1  0.72246180  0.36366223  0.90770235  1
  O  O219  1  0.72957095  0.86159344  0.25169002  1
  O  O220  1  0.72098360  0.87017702  0.57443954  1
  O  O221  1  0.71685178  0.87528721  0.91025866  1
  O  O222  1  0.41630888  0.13714671  0.15349130  1
  O  O223  1  0.41671509  0.13941078  0.48854090  1
  O  O224  1  0.41439414  0.14032826  0.82180424  1
  O  O225  1  0.43308461  0.62842575  0.15312191  1
  O  O226  1  0.42388135  0.62776898  0.47958282  1
  O  O227  1  0.40489436  0.63963198  0.81746289  1
  O  O228  1  0.91537130  0.13636707  0.15227192  1
  O  O229  1  0.91958286  0.13952728  0.48378817  1
  O  O230  1  0.91845205  0.13678676  0.81906367  1
  O  O231  1  0.91879531  0.63041614  0.15437523  1
  O  O232  1  0.91832430  0.62667554  0.48267193  1
  O  O233  1  0.90318936  0.62750153  0.81286011  1
  O  O234  1  0.36761235  0.08009058  0.01731108  1
  O  O235  1  0.36944673  0.09454476  0.35070387  1
  O  O236  1  0.37055097  0.09612710  0.68588085  1
  O  O237  1  0.37185392  0.57222416  0.01998808  1
  O  O238  1  0.36674890  0.57847536  0.34512266  1
  O  O239  1  0.36570404  0.58253766  0.68162441  1
  O  O240  1  0.86470365  0.08104554  0.01515377  1
  O  O241  1  0.86968111  0.08059473  0.34829012  1
  O  O242  1  0.86816206  0.08536147  0.68236178  1
  O  O243  1  0.87103615  0.57781543  0.01819032  1
  O  O244  1  0.86405547  0.57351651  0.34795109  1
  O  O245  1  0.86239962  0.58073600  0.67716914  1
  O  O246  1  0.08098544  0.37040924  0.17969182  1
  O  O247  1  0.08022732  0.37001676  0.51322046  1
  O  O248  1  0.07766876  0.36972926  0.84680212  1
  O  O249  1  0.07827775  0.86612868  0.18529330  1
  O  O250  1  0.07924210  0.87564149  0.51764493  1
  O  O251  1  0.08396557  0.85940957  0.84368670  1
  O  O252  1  0.57769158  0.36545505  0.18206284  1
  O  O253  1  0.57787052  0.37128484  0.51757264  1
  O  O254  1  0.58461238  0.36553145  0.84925362  1
  O  O255  1  0.59444732  0.85735176  0.17500160  1
  O  O256  1  0.58253510  0.86984721  0.51658658  1
  O  O257  1  0.57927815  0.86681551  0.84613819  1
  O  O258  1  0.12771582  0.41979128  0.31550063  1
  O  O259  1  0.12860200  0.42322905  0.64860888  1
  O  O260  1  0.12735426  0.41065602  0.98252760  1
  O  O261  1  0.13140534  0.91733802  0.32031664  1
  O  O262  1  0.13074804  0.92219526  0.65300986  1
  O  O263  1  0.13138629  0.92463043  0.97856709  1
  O  O264  1  0.63260571  0.41527508  0.31817034  1
  O  O265  1  0.63300226  0.41757840  0.65285848  1
  O  O266  1  0.63772327  0.41225563  0.98629905  1
  O  O267  1  0.62838260  0.90880711  0.31026783  1
  O  O268  1  0.63506411  0.91509242  0.65255037  1
  O  O269  1  0.62543864  0.92659700  0.98075607  1
  O  O270  1  0.02781939  0.20204059  0.10078568  1
  O  O271  1  0.03775538  0.20280752  0.43583908  1
  O  O272  1  0.02840322  0.19791972  0.76538241  1
  O  O273  1  0.02696949  0.70451553  0.11134364  1
  O  O274  1  0.02844146  0.68432484  0.43476973  1
  O  O275  1  0.02158282  0.69292959  0.76287547  1
  O  O276  1  0.53191242  0.19995307  0.10400798  1
  O  O277  1  0.52518007  0.20829559  0.43851511  1
  O  O278  1  0.52964386  0.20002040  0.76970279  1
  O  O279  1  0.54166648  0.68511298  0.10595356  1
  O  O280  1  0.53312434  0.69943258  0.43307911  1
  O  O281  1  0.52781369  0.69609600  0.76430004  1
  O  O282  1  0.30238180  0.45296875  0.06006548  1
  O  O283  1  0.29964800  0.46999811  0.39569596  1
  O  O284  1  0.29576877  0.47699352  0.73086387  1
  O  O285  1  0.28964379  0.97135658  0.05503966  1
  O  O286  1  0.30201405  0.96296763  0.39880588  1
  O  O287  1  0.30592782  0.97931045  0.74099015  1
  O  O288  1  0.80040290  0.46321323  0.05982222  1
  O  O289  1  0.79740106  0.46052507  0.39115332  1
  O  O290  1  0.79783785  0.46911316  0.72771760  1
  O  O291  1  0.79888285  0.97042067  0.06539458  1
  O  O292  1  0.80646008  0.97571050  0.40321864  1
  O  O293  1  0.80090502  0.97352657  0.73206633  1
  O  O294  1  0.46791604  0.30142165  0.23167216  1
  O  O295  1  0.47034196  0.30690716  0.56679989  1
  O  O296  1  0.47461229  0.30647801  0.89908266  1
  O  O297  1  0.47956437  0.79000744  0.23087871  1
  O  O298  1  0.47760142  0.79010533  0.56015475  1
  O  O299  1  0.45537998  0.82082884  0.89140250  1
  O  O300  1  0.96923147  0.30413096  0.22628845  1
  O  O301  1  0.96823059  0.30200342  0.55899806  1
  O  O302  1  0.96952795  0.29832932  0.89357692  1
  O  O303  1  0.96117418  0.79998498  0.22298109  1
  O  O304  1  0.96010060  0.79684872  0.56744153  1
  O  O305  1  0.96394572  0.80328085  0.89900804  1
  O  O306  1  0.18522944  0.02595791  0.26621597  1
  O  O307  1  0.19172621  0.04177374  0.60332312  1
  O  O308  1  0.20877765  0.03358889  0.93719660  1
  O  O309  1  0.20384143  0.53240931  0.27858431  1
  O  O310  1  0.19779701  0.53100960  0.60116284  1
  O  O311  1  0.20404628  0.53082019  0.93374027  1
  O  O312  1  0.70134264  0.02821636  0.26565638  1
  O  O313  1  0.70297981  0.03339808  0.61143939  1
  O  O314  1  0.69861382  0.03580010  0.93719525  1
  O  O315  1  0.69671871  0.52872803  0.26921784  1
  O  O316  1  0.69492860  0.52332595  0.60006258  1
  O  O317  1  0.71090140  0.52169265  0.93757451  1
  O  O318  1  0.08920458  0.09422528  0.04089298  1
  O  O319  1  0.08930449  0.08956353  0.36673652  1
  O  O320  1  0.09076987  0.09104993  0.70231521  1
  O  O321  1  0.08371094  0.59064952  0.05537540  1
  O  O322  1  0.08287756  0.57836977  0.36438334  1
  O  O323  1  0.08003861  0.58673172  0.69834555  1
  O  O324  1  0.58636434  0.09092620  0.03344222  1
  O  O325  1  0.58088677  0.09469790  0.37729850  1
  O  O326  1  0.58457756  0.08934293  0.70202824  1
  O  O327  1  0.58891899  0.57773013  0.03132022  1
  O  O328  1  0.58307902  0.58518200  0.36794948  1
  O  O329  1  0.58255937  0.58307497  0.70369296  1
  O  O330  1  0.42386703  0.41929191  0.13406613  1
  O  O331  1  0.41242045  0.41956244  0.46403626  1
  O  O332  1  0.40865521  0.42294221  0.79243748  1
  O  O333  1  0.40106811  0.91405991  0.11898088  1
  O  O334  1  0.41233304  0.90619902  0.46197181  1
  O  O335  1  0.41281252  0.91734356  0.79807284  1
  O  O336  1  0.91365962  0.41274252  0.12770895  1
  O  O337  1  0.91416732  0.41615428  0.46085734  1
  O  O338  1  0.90939104  0.41090416  0.78757476  1
  O  O339  1  0.90742935  0.91212124  0.13200944  1
  O  O340  1  0.91764462  0.92511376  0.47280651  1
  O  O341  1  0.90450556  0.90665538  0.79341055  1
  O  O342  1  0.41505841  0.41593113  0.29511593  1
  O  O343  1  0.41474104  0.41762431  0.63045546  1
  O  O344  1  0.41164748  0.41268061  0.96157713  1
  O  O345  1  0.42711430  0.90532658  0.28702145  1
  O  O346  1  0.44422704  0.91277783  0.62870452  1
  O  O347  1  0.40219230  0.91693540  0.97156880  1
  O  O348  1  0.91828187  0.41730699  0.29417432  1
  O  O349  1  0.91597356  0.41415211  0.62577906  1
  O  O350  1  0.91685644  0.41073449  0.96023421  1
  O  O351  1  0.90955280  0.91119482  0.29482151  1
  O  O352  1  0.90876138  0.90710871  0.63456456  1
  O  O353  1  0.90866197  0.91080996  0.96817938  1
  O  O354  1  0.08011391  0.08318446  0.19934715  1
  O  O355  1  0.08371990  0.08712575  0.52330238  1
  O  O356  1  0.09812615  0.08901549  0.87354975  1
  O  O357  1  0.08567115  0.57665895  0.20799350  1
  O  O358  1  0.08338216  0.58095055  0.53489451  1
  O  O359  1  0.09867639  0.59274130  0.87572945  1
  O  O360  1  0.59396078  0.09142397  0.20880315  1
  O  O361  1  0.59150931  0.08959395  0.54951338  1
  O  O362  1  0.58827886  0.09075625  0.87028675  1
  O  O363  1  0.59024282  0.58911484  0.20360418  1
  O  O364  1  0.58287557  0.57712052  0.53435294  1
  O  O365  1  0.60275854  0.58540225  0.88228573  1
  O  O366  1  0.13628831  0.22817215  0.05755961  1
  O  O367  1  0.14263842  0.22399712  0.38820878  1
  O  O368  1  0.13802431  0.22762906  0.72640277  1
  O  O369  1  0.13513254  0.72106556  0.06517764  1
  O  O370  1  0.13925586  0.71414145  0.39598509  1
  O  O371  1  0.13054763  0.72275191  0.72166427  1
  O  O372  1  0.63930695  0.22616537  0.06099815  1
  O  O373  1  0.63468936  0.22789295  0.39621485  1
  O  O374  1  0.63830198  0.22414608  0.72725922  1
  O  O375  1  0.64276237  0.71213618  0.05538348  1
  O  O376  1  0.64569352  0.71750240  0.39215585  1
  O  O377  1  0.62823423  0.71432281  0.70817938  1
  O  O378  1  0.29737940  0.36524045  0.13178565  1
  O  O379  1  0.27853710  0.36393056  0.44237441  1
  O  O380  1  0.27580618  0.36573201  0.77167384  1
  O  O381  1  0.26777516  0.86330500  0.09967037  1
  O  O382  1  0.27948474  0.86071055  0.44896211  1
  O  O383  1  0.27743893  0.86591485  0.77721017  1
  O  O384  1  0.78056682  0.35978656  0.11069915  1
  O  O385  1  0.78286222  0.35536938  0.44160266  1
  O  O386  1  0.77631571  0.36106936  0.77264281  1
  O  O387  1  0.77209261  0.85869701  0.10311936  1
  O  O388  1  0.78381400  0.86485765  0.44319036  1
  O  O389  1  0.76771799  0.86326255  0.76892978  1
  O  O390  1  0.36437118  0.28374203  0.28394470  1
  O  O391  1  0.36062915  0.28430008  0.61020829  1
  O  O392  1  0.36452828  0.27706681  0.93815801  1
  O  O393  1  0.36650208  0.77545927  0.27098650  1
  O  O394  1  0.36625250  0.78823069  0.60425349  1
  O  O395  1  0.35441610  0.77814206  0.93436147  1
  O  O396  1  0.86266204  0.28437934  0.27360884  1
  O  O397  1  0.86057225  0.28086824  0.60532774  1
  O  O398  1  0.86481632  0.27711249  0.94271586  1
  O  O399  1  0.86488334  0.77574247  0.27791405  1
  O  O400  1  0.85172690  0.77420360  0.61089092  1
  O  O401  1  0.85958513  0.77580131  0.94554930  1
  O  O402  1  0.21574776  0.13448640  0.22527943  1
  O  O403  1  0.21865329  0.14510665  0.55588969  1
  O  O404  1  0.23119490  0.13880455  0.89002212  1
  O  O405  1  0.21590427  0.63622604  0.22636995  1
  O  O406  1  0.21529554  0.63624345  0.55039793  1
  O  O407  1  0.23283959  0.63781383  0.88900981  1
  O  O408  1  0.72768067  0.13794355  0.22498909  1
  O  O409  1  0.72397158  0.13905036  0.56416194  1
  O  O410  1  0.72335167  0.14067422  0.89084375  1
  O  O411  1  0.72683030  0.63629451  0.22692408  1
  O  O412  1  0.71608757  0.63338968  0.55737635  1
  O  O413  1  0.73563728  0.62935069  0.89347559  1
  O  O414  1  0.49189859  0.33559349  0.03083832  1
  O  O415  1  0.49496613  0.34335000  0.36733987  1
  O  O416  1  0.49062755  0.33793570  0.69983072  1
  O  O417  1  0.48629234  0.82975434  0.02216706  1
  O  O418  1  0.49490596  0.82712876  0.36362659  1
  O  O419  1  0.49679235  0.82185675  0.69446042  1
  O  O420  1  0.99586710  0.33512806  0.02865292  1
  O  O421  1  0.99440266  0.33682530  0.36055670  1
  O  O422  1  0.99197163  0.33238267  0.69238521  1
  O  O423  1  0.98969658  0.83119898  0.03194139  1
  O  O424  1  0.99770585  0.83711357  0.35886916  1
  O  O425  1  0.98316189  0.82432432  0.70057028  1
  O  O426  1  0.16066004  0.00585094  0.13376641  1
  O  O427  1  0.17279097  0.01115200  0.47008351  1
  O  O428  1  0.17352005  0.00958660  0.80244961  1
  O  O429  1  0.16793564  0.49943510  0.14441680  1
  O  O430  1  0.16277810  0.50371952  0.46690685  1
  O  O431  1  0.16790355  0.51105667  0.79960443  1
  O  O432  1  0.66479038  0.01135611  0.13251636  1
  O  O433  1  0.66580083  0.00870227  0.47667970  1
  O  O434  1  0.66648512  0.01078302  0.80307290  1
  O  O435  1  0.66789993  0.50713213  0.13679767  1
  O  O436  1  0.66328365  0.50292447  0.46700991  1
  O  O437  1  0.67119687  0.50314879  0.80419911  1
  O  O438  1  0.01096971  0.17139992  0.30197147  1
  O  O439  1  0.01077654  0.16850516  0.63330846  1
  O  O440  1  0.00848522  0.16766352  0.96798352  1
  O  O441  1  0.00915014  0.66445853  0.30397817  1
  O  O442  1  0.00295499  0.66372407  0.62936789  1
  O  O443  1  0.00629151  0.65988560  0.97661193  1
  O  O444  1  0.50604117  0.17454921  0.30544578  1
  O  O445  1  0.50783485  0.17149885  0.63698500  1
  O  O446  1  0.50877611  0.17381768  0.97123268  1
  O  O447  1  0.51603304  0.66752138  0.29928017  1
  O  O448  1  0.49856152  0.65046219  0.62776237  1
  O  O449  1  0.50885426  0.66175839  0.97210463  1
  O  O450  1  0.34620137  0.50174554  0.19783105  1
  O  O451  1  0.33174309  0.49534687  0.53030933  1
  O  O452  1  0.32962168  0.49405306  0.86443905  1
  O  O453  1  0.32332906  0.99333196  0.18887155  1
  O  O454  1  0.34386930  0.99217117  0.53468771  1
  O  O455  1  0.33775724  0.99192351  0.87298560  1
  O  O456  1  0.83469303  0.49161608  0.19482843  1
  O  O457  1  0.83064289  0.48882431  0.52608807  1
  O  O458  1  0.83590925  0.48964392  0.86148411  1
  O  O459  1  0.82544958  0.98796657  0.19702649  1
  O  O460  1  0.83121151  0.99415931  0.53541798  1
  O  O461  1  0.82843084  0.98884869  0.86293453  1
