# generated using pymatgen
data_Na31Fe20(SO4)36
_symmetry_space_group_name_H-M   'P 1'
_cell_length_a   18.06631018
_cell_length_b   18.06537131
_cell_length_c   19.69821524
_cell_angle_alpha   107.56228521
_cell_angle_beta   107.59026523
_cell_angle_gamma   90.73316947
_symmetry_Int_Tables_number   1
_chemical_formula_structural   Na31Fe20(SO4)36
_chemical_formula_sum   'Na62 Fe40 S72 O288'
_cell_volume   5804.37148781
_cell_formula_units_Z   2
loop_
 _symmetry_equiv_pos_site_id
 _symmetry_equiv_pos_as_xyz
  1  'x, y, z'
loop_
 _atom_site_type_symbol
 _atom_site_label
 _atom_site_symmetry_multiplicity
 _atom_site_fract_x
 _atom_site_fract_y
 _atom_site_fract_z
 _atom_site_occupancy
  Na  Na0  1  0.13333550  0.36376270  0.08392801  1
  Na  Na1  1  0.13559825  0.37249121  0.42271389  1
  Na  Na2  1  0.13143339  0.37095401  0.74997274  1
  Na  Na3  1  0.13686343  0.86900367  0.08008729  1
  Na  Na4  1  0.14107648  0.85555094  0.41574087  1
  Na  Na5  1  0.12304272  0.86837930  0.74072500  1
  Na  Na6  1  0.64190629  0.36513495  0.09070822  1
  Na  Na7  1  0.63540475  0.35874382  0.41188469  1
  Na  Na8  1  0.63784367  0.37468263  0.75946629  1
  Na  Na9  1  0.62903187  0.86107714  0.08079684  1
  Na  Na10  1  0.63166859  0.85498314  0.40806318  1
  Na  Na11  1  0.63932371  0.86845732  0.74684610  1
  Na  Na12  1  0.35870264  0.12909077  0.24156306  1
  Na  Na13  1  0.36667906  0.13319571  0.58227528  1
  Na  Na14  1  0.36827890  0.12934041  0.91952328  1
  Na  Na15  1  0.36496784  0.63621032  0.25056775  1
  Na  Na16  1  0.37190244  0.62868996  0.58481544  1
  Na  Na17  1  0.37006245  0.63699403  0.92026604  1
  Na  Na18  1  0.85086161  0.16021123  0.25090333  1
  Na  Na19  1  0.86736092  0.12641238  0.58040005  1
  Na  Na20  1  0.86245048  0.12983919  0.90853416  1
  Na  Na21  1  0.86859983  0.65624011  0.27438135  1
  Na  Na22  1  0.86827303  0.63371678  0.58343869  1
  Na  Na23  1  0.86180330  0.62899427  0.91445058  1
  Na  Na24  1  0.50505730  -0.00276951  0.76599181  1
  Na  Na25  1  1.01577551  -0.04054495  0.47298580  1
  Na  Na26  1  0.48977085  0.00851114  0.42137665  1
  Na  Na27  1  0.49073198  -0.00172186  0.07406589  1
  Na  Na28  1  0.99118511  0.52367914  0.42205765  1
  Na  Na29  1  0.48413053  0.53097638  0.47069664  1
  Na  Na30  1  0.49939713  0.52271702  0.07419880  1
  Na  Na31  1  1.00054532  0.04404950  0.09636348  1
  Na  Na32  1  0.94763396  0.50425485  0.06759016  1
  Na  Na33  1  -0.00264010  0.49313337  0.90364878  1
  Na  Na34  1  -0.01795265  1.02565277  0.25700645  1
  Na  Na35  1  0.51999318  0.49961468  0.88954594  1
  Na  Na36  1  0.01048163  0.48041140  0.24754620  1
  Na  Na37  1  0.01068677  0.48492408  0.59880256  1
  Na  Na38  1  0.54432384  0.98422673  0.59916791  1
  Na  Na39  1  0.03831072  0.99313658  0.91545126  1
  Na  Na40  1  0.50780430  0.48908157  0.25430664  1
  Na  Na41  1  0.51009643  0.95884542  0.24034550  1
  Na  Na42  1  0.74154304  0.24082257  0.01131924  1
  Na  Na43  1  0.74546834  0.74369578  0.66202301  1
  Na  Na44  1  0.74463278  0.74720835  0.00602517  1
  Na  Na45  1  0.23442730  0.24045674  0.33414458  1
  Na  Na46  1  0.26060192  0.75975716  0.64835231  1
  Na  Na47  1  0.24457490  0.74086424  0.34303863  1
  Na  Na48  1  0.25795499  0.26606138  0.66128076  1
  Na  Na49  1  0.74595543  0.24208548  0.67203426  1
  Na  Na50  1  0.26720920  0.76348412  -0.00575161  1
  Na  Na51  1  0.24168756  0.23570008  0.00705924  1
  Na  Na52  1  0.74635812  0.74790135  0.83248253  1
  Na  Na53  1  0.74663756  0.74390092  0.18363268  1
  Na  Na54  1  0.26075297  0.75593989  0.15845854  1
  Na  Na55  1  0.74394893  0.24186503  0.83893144  1
  Na  Na56  1  0.26081294  0.26846224  0.50044338  1
  Na  Na57  1  0.26137231  0.76248785  0.82362905  1
  Na  Na58  1  0.24937513  0.24946080  0.83445821  1
  Na  Na59  1  0.76161712  0.75871945  0.48288243  1
  Na  Na60  1  0.22397024  0.22557830  0.16878778  1
  Na  Na61  1  0.75522670  0.25294236  0.48903338  1
  Fe  Fe62  1  0.96557772  0.81603603  0.12366403  1
  Fe  Fe63  1  0.46561004  0.80890443  0.78442397  1
  Fe  Fe64  1  0.96341169  0.80611398  0.78691701  1
  Fe  Fe65  1  0.46354606  0.30900721  0.78307917  1
  Fe  Fe66  1  0.96482668  0.30463044  0.44646751  1
  Fe  Fe67  1  0.96706939  0.30140933  0.11899449  1
  Fe  Fe68  1  0.47368871  0.79828537  0.45908543  1
  Fe  Fe69  1  0.96302287  0.30387147  0.78300187  1
  Fe  Fe70  1  0.46695199  0.30547322  0.11932944  1
  Fe  Fe71  1  0.46324364  0.31316670  0.45836000  1
  Fe  Fe72  1  0.19125650  0.03497370  0.71027857  1
  Fe  Fe73  1  0.68633430  0.53424204  0.70763739  1
  Fe  Fe74  1  0.69044064  0.03386033  0.37977505  1
  Fe  Fe75  1  0.70286326  0.53099688  0.04326011  1
  Fe  Fe76  1  0.68848469  0.03807315  0.04913408  1
  Fe  Fe77  1  0.20005714  0.53530093  0.71187921  1
  Fe  Fe78  1  0.19123531  0.53368166  0.04627519  1
  Fe  Fe79  1  0.19287099  0.53588421  0.38309968  1
  Fe  Fe80  1  0.19080162  0.03542865  0.37902484  1
  Fe  Fe81  1  0.69331851  0.53385469  0.38430267  1
  Fe  Fe82  1  0.03418503  0.18718333  0.87487889  1
  Fe  Fe83  1  0.53479843  0.69670437  0.21280033  1
  Fe  Fe84  1  0.03324737  0.69452678  0.21467833  1
  Fe  Fe85  1  0.53820596  0.19128155  0.21717970  1
  Fe  Fe86  1  0.03605819  0.68884493  0.87819948  1
  Fe  Fe87  1  0.53191552  0.19422744  0.88285809  1
  Fe  Fe88  1  0.53496531  0.19225159  0.55122484  1
  Fe  Fe89  1  0.02922061  0.70494036  0.54523438  1
  Fe  Fe90  1  0.03378170  0.19052740  0.54625197  1
  Fe  Fe91  1  0.53239867  0.69558551  0.87500478  1
  Fe  Fe92  1  0.80485209  0.96899734  0.95210314  1
  Fe  Fe93  1  0.31041652  0.96568899  0.61957585  1
  Fe  Fe94  1  0.80953543  0.96422225  0.28919638  1
  Fe  Fe95  1  0.30678364  0.46418448  0.95184178  1
  Fe  Fe96  1  0.30747036  0.46553938  0.28593325  1
  Fe  Fe97  1  0.81215426  0.46179659  0.62156016  1
  Fe  Fe98  1  0.80765128  0.46133618  0.28618377  1
  Fe  Fe99  1  0.30894996  0.96345949  0.28451756  1
  Fe  Fe100  1  0.30080506  0.96714020  0.95700188  1
  Fe  Fe101  1  0.80334415  0.96600751  0.62304638  1
  S  S102  1  0.36254329  0.14191314  0.08442874  1
  S  S103  1  0.36022358  0.14095861  0.41694906  1
  S  S104  1  0.35741176  0.14286414  0.74986515  1
  S  S105  1  0.35987613  0.63757788  0.08386776  1
  S  S106  1  0.35580719  0.63957459  0.41394089  1
  S  S107  1  0.35841706  0.64442505  0.74980599  1
  S  S108  1  0.85667114  0.13978522  0.08536159  1
  S  S109  1  0.85980690  0.13839973  0.41360186  1
  S  S110  1  0.85788401  0.13780041  0.74659997  1
  S  S111  1  0.86004260  0.64857922  0.08587731  1
  S  S112  1  0.85852779  0.63720925  0.41796606  1
  S  S113  1  0.86101109  0.63833863  0.75078597  1
  S  S114  1  0.14174202  0.36109286  0.24689923  1
  S  S115  1  0.13638783  0.36118720  0.58536843  1
  S  S116  1  0.13985878  0.35885854  0.91526464  1
  S  S117  1  0.14454226  0.85636174  0.25031951  1
  S  S118  1  0.14349212  0.86325700  0.58272998  1
  S  S119  1  0.13871683  0.85467291  0.91438786  1
  S  S120  1  0.63840602  0.36134962  0.25140818  1
  S  S121  1  0.64259892  0.35441224  0.58265875  1
  S  S122  1  0.63924537  0.35962574  0.91641746  1
  S  S123  1  0.64237596  0.85888274  0.24840157  1
  S  S124  1  0.64670572  0.85349820  0.57958866  1
  S  S125  1  0.64014722  0.86281921  0.91786377  1
  S  S126  1  0.06117388  0.16704366  0.03675971  1
  S  S127  1  0.06706456  0.17358564  0.37953753  1
  S  S128  1  0.07051792  0.17363626  0.70978825  1
  S  S129  1  0.06712188  0.66802591  0.04194295  1
  S  S130  1  0.06650405  0.66676247  0.37288094  1
  S  S131  1  0.06919127  0.67313797  0.70949012  1
  S  S132  1  0.56634647  0.17093474  0.04395073  1
  S  S133  1  0.56267750  0.16461046  0.37504148  1
  S  S134  1  0.56010108  0.16727386  0.71175503  1
  S  S135  1  0.57096930  0.66358394  0.03938553  1
  S  S136  1  0.56605520  0.66457106  0.37248295  1
  S  S137  1  0.56787720  0.67574914  0.70812668  1
  S  S138  1  0.33097205  0.42938011  0.12245501  1
  S  S139  1  0.32622965  0.43407678  0.45530190  1
  S  S140  1  0.32892106  0.43434486  0.79308569  1
  S  S141  1  0.33267965  0.93569846  0.12312717  1
  S  S142  1  0.33628202  0.93415699  0.45791427  1
  S  S143  1  0.32737064  0.93498905  0.79017324  1
  S  S144  1  0.83216610  0.43359712  0.12493495  1
  S  S145  1  0.83319196  0.43016677  0.46006605  1
  S  S146  1  0.83119463  0.43148906  0.78791230  1
  S  S147  1  0.82699726  0.93622526  0.12386769  1
  S  S148  1  0.82000543  0.93062743  0.45551755  1
  S  S149  1  0.83359083  0.93020969  0.79189844  1
  S  S150  1  0.42900845  0.32838008  0.28992668  1
  S  S151  1  0.43331257  0.32945682  0.62168586  1
  S  S152  1  0.43267854  0.33191134  0.95931442  1
  S  S153  1  0.43461299  0.82719516  0.29343047  1
  S  S154  1  0.43724743  0.83934131  0.62823601  1
  S  S155  1  0.43340782  0.83170287  0.95599055  1
  S  S156  1  0.93699070  0.34165119  0.29481332  1
  S  S157  1  0.93190168  0.32508530  0.62061824  1
  S  S158  1  0.93825783  0.32794646  0.95387133  1
  S  S159  1  0.94122482  0.84046153  0.29246924  1
  S  S160  1  0.92393211  0.82828624  0.62363822  1
  S  S161  1  0.93083773  0.83142791  0.95888749  1
  S  S162  1  0.16547630  0.05795193  0.21308980  1
  S  S163  1  0.17412496  0.07035701  0.54334388  1
  S  S164  1  0.17353034  0.06661389  0.87353280  1
  S  S165  1  0.16483673  0.56626968  0.20577068  1
  S  S166  1  0.16496126  0.57258186  0.54265960  1
  S  S167  1  0.17229243  0.56827774  0.87772435  1
  S  S168  1  0.66403637  0.06457247  0.20803831  1
  S  S169  1  0.66805357  0.06368340  0.54133862  1
  S  S170  1  0.66683175  0.06705814  0.87789918  1
  S  S171  1  0.67238359  0.56755265  0.20751358  1
  S  S172  1  0.67686176  0.56117471  0.54642316  1
  S  S173  1  0.67112627  0.57214574  0.87448376  1
  O  O174  1  0.37615500  0.21772370  0.06973652  1
  O  O175  1  0.36921589  0.22145161  0.41193539  1
  O  O176  1  0.36559628  0.22241880  0.74258790  1
  O  O177  1  0.36378322  0.71364412  0.07330622  1
  O  O178  1  0.37028240  0.71834865  0.40683616  1
  O  O179  1  0.36451494  0.72749181  0.74696239  1
  O  O180  1  0.86774520  0.21954102  0.07888373  1
  O  O181  1  0.87151826  0.21693562  0.40591524  1
  O  O182  1  0.87273725  0.21360679  0.73276535  1
  O  O183  1  0.86924484  0.73002213  0.08242435  1
  O  O184  1  0.86342450  0.71275576  0.40735704  1
  O  O185  1  0.86868862  0.71796728  0.74283780  1
  O  O186  1  0.28555802  0.13940782  0.09384415  1
  O  O187  1  0.28111050  0.13263879  0.42513202  1
  O  O188  1  0.27806310  0.13330867  0.75682397  1
  O  O189  1  0.28205276  0.62282016  0.09431031  1
  O  O190  1  0.27285082  0.63249706  0.41271032  1
  O  O191  1  0.28001190  0.63465659  0.76123742  1
  O  O192  1  0.77521237  0.13155864  0.08813395  1
  O  O193  1  0.78081934  0.13108395  0.42237143  1
  O  O194  1  0.78253734  0.13610596  0.75918222  1
  O  O195  1  0.77883746  0.63748609  0.08921096  1
  O  O196  1  0.78162324  0.62305484  0.43007714  1
  O  O197  1  0.78186799  0.62824372  0.75800843  1
  O  O198  1  0.13708177  0.28230378  0.25192770  1
  O  O199  1  0.12440034  0.28471770  0.59851860  1
  O  O200  1  0.13324133  0.27903343  0.92156728  1
  O  O201  1  0.13351467  0.77726725  0.25825875  1
  O  O202  1  0.13013621  0.78507961  0.59181165  1
  O  O203  1  0.12997095  0.77460567  0.92196540  1
  O  O204  1  0.62748301  0.28451125  0.26161662  1
  O  O205  1  0.63331850  0.27544126  0.59183416  1
  O  O206  1  0.62564755  0.28035859  0.92431444  1
  O  O207  1  0.63315137  0.77861306  0.25329054  1
  O  O208  1  0.64248825  0.77313907  0.57919976  1
  O  O209  1  0.63114172  0.78347117  0.92628124  1
  O  O210  1  0.21816222  0.37539408  0.23405463  1
  O  O211  1  0.21274561  0.36624111  0.57512775  1
  O  O212  1  0.21735702  0.36943085  0.90430020  1
  O  O213  1  0.22393779  0.86368617  0.24247294  1
  O  O214  1  0.22713454  0.87059061  0.58477599  1
  O  O215  1  0.21981207  0.86321135  0.90985114  1
  O  O216  1  0.71547068  0.37131862  0.24148355  1
  O  O217  1  0.72103235  0.36202354  0.57323560  1
  O  O218  1  0.71203694  0.36429200  0.89997706  1
  O  O219  1  0.72466675  0.87017868  0.24703305  1
  O  O220  1  0.72661507  0.87189722  0.57139615  1
  O  O221  1  0.71983834  0.87079115  0.90988508  1
  O  O222  1  0.42334285  0.13543172  0.15273975  1
  O  O223  1  0.41910238  0.12921549  0.48363028  1
  O  O224  1  0.41584135  0.13501408  0.81861014  1
  O  O225  1  0.42068187  0.63156829  0.15246235  1
  O  O226  1  0.40880551  0.62983337  0.48217241  1
  O  O227  1  0.41785554  0.63857423  0.81963942  1
  O  O228  1  0.91262379  0.12802710  0.15168235  1
  O  O229  1  0.91853519  0.12864269  0.48126332  1
  O  O230  1  0.92035491  0.12731708  0.81081379  1
  O  O231  1  0.91580415  0.63983911  0.15597825  1
  O  O232  1  0.92082693  0.62961912  0.48561093  1
  O  O233  1  0.91987305  0.63377512  0.82072620  1
  O  O234  1  0.37007012  0.07845092  0.01821427  1
  O  O235  1  0.36877511  0.08373930  0.34823737  1
  O  O236  1  0.36656884  0.08460489  0.68225222  1
  O  O237  1  0.37049499  0.57579817  0.01769594  1
  O  O238  1  0.36549630  0.58010980  0.34532521  1
  O  O239  1  0.36443379  0.58921207  0.68225446  1
  O  O240  1  0.86584940  0.08220578  0.01536245  1
  O  O241  1  0.86555078  0.07943867  0.34437913  1
  O  O242  1  0.85898137  0.07554475  0.67563792  1
  O  O243  1  0.87210178  0.59252673  0.01999274  1
  O  O244  1  0.86690976  0.57440503  0.35117466  1
  O  O245  1  0.87157957  0.58020178  0.68405985  1
  O  O246  1  0.07930489  0.37131208  0.18098412  1
  O  O247  1  0.07424175  0.37026198  0.51879544  1
  O  O248  1  0.07831537  0.36962407  0.84989019  1
  O  O249  1  0.08657736  0.86382430  0.18150977  1
  O  O250  1  0.09177787  0.87047503  0.51279680  1
  O  O251  1  0.08259145  0.85992790  0.84276596  1
  O  O252  1  0.57732022  0.37051432  0.18386455  1
  O  O253  1  0.58322588  0.35989154  0.51332057  1
  O  O254  1  0.57387169  0.37357004  0.85409400  1
  O  O255  1  0.58688235  0.86904181  0.18137055  1
  O  O256  1  0.58718059  0.86533791  0.51206877  1
  O  O257  1  0.58189805  0.87078832  0.84993226  1
  O  O258  1  0.13424324  0.41960940  0.31631378  1
  O  O259  1  0.12930661  0.42364670  0.65305813  1
  O  O260  1  0.13456875  0.41662481  0.98535245  1
  O  O261  1  0.13846611  0.91522028  0.31912788  1
  O  O262  1  0.13177687  0.92300875  0.64904456  1
  O  O263  1  0.12583895  0.91339401  0.97777793  1
  O  O264  1  0.62953807  0.42272406  0.31865297  1
  O  O265  1  0.63538295  0.41368184  0.65045303  1
  O  O266  1  0.63855189  0.41797155  0.98840892  1
  O  O267  1  0.63097661  0.91637001  0.31676528  1
  O  O268  1  0.63844493  0.90967616  0.64758989  1
  O  O269  1  0.63363460  0.92096261  0.98672336  1
  O  O270  1  0.02569993  0.20070545  0.09661718  1
  O  O271  1  0.03769359  0.20639971  0.44654892  1
  O  O272  1  0.03278016  0.20375174  0.77014047  1
  O  O273  1  0.03065713  0.69618813  0.10275495  1
  O  O274  1  0.03218783  0.69100020  0.43368868  1
  O  O275  1  0.02994532  0.69830753  0.76946645  1
  O  O276  1  0.53511981  0.20465766  0.10862866  1
  O  O277  1  0.52784525  0.19251015  0.43712341  1
  O  O278  1  0.52549332  0.20729721  0.77319185  1
  O  O279  1  0.53389224  0.67953386  0.09872949  1
  O  O280  1  0.52678039  0.69126210  0.42965636  1
  O  O281  1  0.53279740  0.70820027  0.77233901  1
  O  O282  1  0.30034284  0.46357333  0.06005682  1
  O  O283  1  0.29476512  0.46682424  0.38996136  1
  O  O284  1  0.29901607  0.46974124  0.73376094  1
  O  O285  1  0.29530511  0.96893986  0.06289437  1
  O  O286  1  0.30786387  0.97153730  0.39694909  1
  O  O287  1  0.30019189  0.97600324  0.73193407  1
  O  O288  1  0.80783206  0.47474810  0.06814424  1
  O  O289  1  0.79959130  0.46335165  0.39737515  1
  O  O290  1  0.79897335  0.46413216  0.72356581  1
  O  O291  1  0.79618586  0.97114075  0.06199960  1
  O  O292  1  0.79257192  0.97476827  0.39876272  1
  O  O293  1  0.81244273  0.96258083  0.72852430  1
  O  O294  1  0.46689689  0.29829340  0.22993711  1
  O  O295  1  0.47207455  0.29199949  0.56150009  1
  O  O296  1  0.46466740  0.29977486  0.89565966  1
  O  O297  1  0.47280306  0.80075712  0.23508681  1
  O  O298  1  0.47327344  0.81745242  0.56826576  1
  O  O299  1  0.46721105  0.80343339  0.89193224  1
  O  O300  1  0.96895094  0.31819321  0.23205781  1
  O  O301  1  0.96506476  0.29321302  0.55762765  1
  O  O302  1  0.97247614  0.28892195  0.89153132  1
  O  O303  1  0.97501104  0.80522362  0.22857211  1
  O  O304  1  0.96407794  0.80244607  0.56689193  1
  O  O305  1  0.96896203  0.80240185  0.89899224  1
  O  O306  1  0.20753406  0.02572453  0.27747746  1
  O  O307  1  0.20562451  0.03328128  0.60363403  1
  O  O308  1  0.20106430  0.02876832  0.93208588  1
  O  O309  1  0.19453422  0.53149078  0.26749154  1
  O  O310  1  0.18314602  0.53391038  0.60070693  1
  O  O311  1  0.20188822  0.52899673  0.93750592  1
  O  O312  1  0.69556738  0.02835616  0.26911064  1
  O  O313  1  0.69947729  0.02561593  0.59955179  1
  O  O314  1  0.69928428  0.03419126  0.94218756  1
  O  O315  1  0.70006252  0.53081022  0.26862349  1
  O  O316  1  0.71042841  0.52159617  0.60614819  1
  O  O317  1  0.69320128  0.53523393  0.93389890  1
  O  O318  1  0.07671371  0.08671022  0.03494847  1
  O  O319  1  0.09016913  0.09382990  0.37853494  1
  O  O320  1  0.09306540  0.09550638  0.70881153  1
  O  O321  1  0.08311506  0.58474581  0.03333237  1
  O  O322  1  0.08194665  0.58204601  0.36028714  1
  O  O323  1  0.09054643  0.59255047  0.70342973  1
  O  O324  1  0.58152380  0.08931237  0.04134820  1
  O  O325  1  0.57773958  0.08080120  0.36637877  1
  O  O326  1  0.56649145  0.08608180  0.71039487  1
  O  O327  1  0.59017703  0.57990673  0.02334150  1
  O  O328  1  0.58497015  0.58200054  0.36682413  1
  O  O329  1  0.59371903  0.59863062  0.71151588  1
  O  O330  1  0.41413009  0.41425745  0.12958599  1
  O  O331  1  0.40719256  0.41396207  0.45564501  1
  O  O332  1  0.41014682  0.41359416  0.79787726  1
  O  O333  1  0.41500396  0.92695920  0.12824284  1
  O  O334  1  0.41917056  0.91878423  0.46575703  1
  O  O335  1  0.40805048  0.91562834  0.79332972  1
  O  O336  1  0.91391531  0.41310693  0.12790676  1
  O  O337  1  0.91600708  0.41536864  0.46413996  1
  O  O338  1  0.91021196  0.40590846  0.78633679  1
  O  O339  1  0.90998863  0.92122344  0.12995572  1
  O  O340  1  0.89899460  0.91323892  0.46062009  1
  O  O341  1  0.91737710  0.91460888  0.81069426  1
  O  O342  1  0.41397716  0.41084198  0.29393034  1
  O  O343  1  0.41215663  0.40419942  0.61655137  1
  O  O344  1  0.41745692  0.41475653  0.96583583  1
  O  O345  1  0.41907308  0.91140566  0.30116069  1
  O  O346  1  0.41939659  0.92347029  0.63982366  1
  O  O347  1  0.40447392  0.90938094  0.95693571  1
  O  O348  1  0.92321343  0.42732954  0.30872717  1
  O  O349  1  0.91618442  0.40712874  0.62406295  1
  O  O350  1  0.93251502  0.40963935  0.95549145  1
  O  O351  1  0.91803298  0.91926372  0.28846616  1
  O  O352  1  0.89804291  0.90709615  0.62493504  1
  O  O353  1  0.91213486  0.91286774  0.96517305  1
  O  O354  1  0.08758672  0.07418135  0.21939969  1
  O  O355  1  0.09237811  0.08607946  0.53924086  1
  O  O356  1  0.09317738  0.08765670  0.87163861  1
  O  O357  1  0.08163820  0.58162632  0.19791807  1
  O  O358  1  0.08473049  0.59865341  0.53366825  1
  O  O359  1  0.09054221  0.58406007  0.87469817  1
  O  O360  1  0.58045852  0.07857578  0.20335586  1
  O  O361  1  0.58660022  0.08246558  0.54211901  1
  O  O362  1  0.58816980  0.09274291  0.87964405  1
  O  O363  1  0.58927630  0.58380131  0.20002407  1
  O  O364  1  0.60049344  0.58197876  0.54975971  1
  O  O365  1  0.58903598  0.59231307  0.86377994  1
  O  O366  1  0.13399538  0.21794468  0.05147473  1
  O  O367  1  0.13648135  0.22700058  0.39173115  1
  O  O368  1  0.13902103  0.22948718  0.72545495  1
  O  O369  1  0.13915246  0.71924596  0.05878533  1
  O  O370  1  0.13772150  0.71701489  0.38707524  1
  O  O371  1  0.13816089  0.72903426  0.72803184  1
  O  O372  1  0.63656015  0.22059265  0.05466756  1
  O  O373  1  0.63492085  0.21478415  0.39149300  1
  O  O374  1  0.63502866  0.21317588  0.72655014  1
  O  O375  1  0.64176285  0.71913059  0.06146455  1
  O  O376  1  0.63711194  0.71607531  0.38820397  1
  O  O377  1  0.63808834  0.73118438  0.72505392  1
  O  O378  1  0.28088494  0.35744793  0.10729713  1
  O  O379  1  0.27482095  0.36113139  0.43796582  1
  O  O380  1  0.27706674  0.36320575  0.77999130  1
  O  O381  1  0.28621435  0.86055024  0.10956198  1
  O  O382  1  0.28426323  0.86282020  0.44005104  1
  O  O383  1  0.27275750  0.86359215  0.76840972  1
  O  O384  1  0.77837784  0.36342834  0.10642405  1
  O  O385  1  0.78399196  0.35937890  0.44850277  1
  O  O386  1  0.77705307  0.36264024  0.77526541  1
  O  O387  1  0.77667982  0.86402056  0.10830824  1
  O  O388  1  0.76443094  0.86131976  0.43393450  1
  O  O389  1  0.78140590  0.85801541  0.77364327  1
  O  O390  1  0.35623767  0.27799803  0.27270523  1
  O  O391  1  0.36467811  0.27246492  0.60745433  1
  O  O392  1  0.36029008  0.28290951  0.94600975  1
  O  O393  1  0.36076653  0.77750248  0.27453195  1
  O  O394  1  0.36803135  0.78615529  0.61261911  1
  O  O395  1  0.36569830  0.77397739  0.94034105  1
  O  O396  1  0.86476151  0.29457651  0.28189732  1
  O  O397  1  0.85964235  0.27534789  0.60630594  1
  O  O398  1  0.86307514  0.28269137  0.93876703  1
  O  O399  1  0.87191953  0.78818586  0.27988625  1
  O  O400  1  0.85557627  0.77160845  0.60734343  1
  O  O401  1  0.86021512  0.77774331  0.94175415  1
  O  O402  1  0.21539540  0.13114246  0.22717329  1
  O  O403  1  0.22446613  0.14256510  0.55910528  1
  O  O404  1  0.22673241  0.13810128  0.89011751  1
  O  O405  1  0.21556196  0.63841525  0.22132957  1
  O  O406  1  0.22381550  0.63782261  0.55873470  1
  O  O407  1  0.22418781  0.64029684  0.89701818  1
  O  O408  1  0.71192869  0.13616729  0.22158606  1
  O  O409  1  0.71865194  0.13518969  0.55508532  1
  O  O410  1  0.72139149  0.13611719  0.89126458  1
  O  O411  1  0.72427613  0.63836283  0.22413574  1
  O  O412  1  0.73268020  0.62895539  0.56153751  1
  O  O413  1  0.72500709  0.64378339  0.89357601  1
  O  O414  1  0.49397428  0.33321714  0.03041880  1
  O  O415  1  0.48704655  0.32929360  0.36280811  1
  O  O416  1  0.49263075  0.33330598  0.69571154  1
  O  O417  1  0.49546776  0.84069223  0.02629351  1
  O  O418  1  0.49035338  0.82739657  0.36720850  1
  O  O419  1  0.49751386  0.84218220  0.70162343  1
  O  O420  1  0.99417998  0.32679227  0.02730971  1
  O  O421  1  0.99863274  0.33905139  0.36534078  1
  O  O422  1  0.99187693  0.32725368  0.69235628  1
  O  O423  1  0.99007904  0.83299779  0.03180276  1
  O  O424  1  1.00339501  0.85079683  0.36338973  1
  O  O425  1  0.98184753  0.83630017  0.69918360  1
  O  O426  1  0.15964900  -0.00035118  0.14165785  1
  O  O427  1  0.17193046  0.01065274  0.47080700  1
  O  O428  1  0.16808252  0.00924310  0.79912004  1
  O  O429  1  0.16563706  0.50656976  0.13419745  1
  O  O430  1  0.15896654  0.51150529  0.46830813  1
  O  O431  1  0.17119389  0.51187722  0.80461770  1
  O  O432  1  0.65982048  0.00443698  0.13454902  1
  O  O433  1  0.65760268  0.00675567  0.46496601  1
  O  O434  1  0.65565665  0.00469440  0.80724851  1
  O  O435  1  0.67073396  0.50848939  0.13446968  1
  O  O436  1  0.67066061  0.50157176  0.47204268  1
  O  O437  1  0.67365546  0.51351751  0.80319741  1
  O  O438  1  0.00189705  0.16667385  0.31171794  1
  O  O439  1  0.01007621  0.16761649  0.63641893  1
  O  O440  1  0.00406563  0.16337260  0.96165484  1
  O  O441  1  0.00588758  0.66822971  0.30131184  1
  O  O442  1  0.00962589  0.67183710  0.63737103  1
  O  O443  1  0.00828389  0.66727050  0.96937724  1
  O  O444  1  0.50377005  0.16597112  0.30358249  1
  O  O445  1  0.50392196  0.16838313  0.63820608  1
  O  O446  1  0.50379196  0.16876889  0.97311191  1
  O  O447  1  0.50874099  0.65960663  0.29672255  1
  O  O448  1  0.50750761  0.66919945  0.63801848  1
  O  O449  1  0.51277820  0.66809528  0.96843608  1
  O  O450  1  0.33233245  0.49001814  0.19410373  1
  O  O451  1  0.32859877  0.49415595  0.52378336  1
  O  O452  1  0.33525350  0.49354771  0.86797236  1
  O  O453  1  0.33162168  0.99156576  0.19778036  1
  O  O454  1  0.33495049  0.99300563  0.52984769  1
  O  O455  1  0.32819252  0.99041509  0.86364058  1
  O  O456  1  0.83803447  0.49003654  0.20043185  1
  O  O457  1  0.83843833  0.49152208  0.53290827  1
  O  O458  1  0.84305124  0.49395481  0.85874609  1
  O  O459  1  0.82846130  0.99546032  0.19607142  1
  O  O460  1  0.81836678  0.98753794  0.53017756  1
  O  O461  1  0.82539172  0.99099619  0.85962931  1
