# generated using pymatgen
data_Na31Fe20(SO4)36
_symmetry_space_group_name_H-M   'P 1'
_cell_length_a   18.07564320
_cell_length_b   18.07471029
_cell_length_c   19.71925085
_cell_angle_alpha   107.58421311
_cell_angle_beta   107.57931312
_cell_angle_gamma   90.74200025
_symmetry_Int_Tables_number   1
_chemical_formula_structural   Na31Fe20(SO4)36
_chemical_formula_sum   'Na62 Fe40 S72 O288'
_cell_volume   5816.06422661
_cell_formula_units_Z   2
loop_
 _symmetry_equiv_pos_site_id
 _symmetry_equiv_pos_as_xyz
  1  'x, y, z'
loop_
 _atom_site_type_symbol
 _atom_site_label
 _atom_site_symmetry_multiplicity
 _atom_site_fract_x
 _atom_site_fract_y
 _atom_site_fract_z
 _atom_site_occupancy
  Na  Na0  1  0.13519277  0.35263174  0.07220444  1
  Na  Na1  1  0.13586985  0.37460581  0.41590108  1
  Na  Na2  1  0.13345211  0.36624684  0.75783708  1
  Na  Na3  1  0.13755946  0.86129400  0.07555658  1
  Na  Na4  1  0.13873261  0.86593453  0.42165043  1
  Na  Na5  1  0.12340714  0.86522822  0.74146634  1
  Na  Na6  1  0.62864525  0.35355537  0.07160965  1
  Na  Na7  1  0.64715595  0.37660908  0.42277432  1
  Na  Na8  1  0.63525576  0.36879683  0.75488486  1
  Na  Na9  1  0.63604434  0.86501205  0.08328140  1
  Na  Na10  1  0.63479859  0.86298379  0.41835620  1
  Na  Na11  1  0.62756997  0.86657303  0.75688331  1
  Na  Na12  1  0.36425311  0.13539018  0.24685820  1
  Na  Na13  1  0.36643040  0.13567378  0.58534131  1
  Na  Na14  1  0.36683213  0.13857000  0.91721865  1
  Na  Na15  1  0.36402487  0.63041652  0.25010364  1
  Na  Na16  1  0.36748972  0.64371183  0.59595030  1
  Na  Na17  1  0.36540983  0.63815409  0.91885721  1
  Na  Na18  1  0.85908788  0.13758840  0.24441008  1
  Na  Na19  1  0.87762129  0.15376835  0.60776890  1
  Na  Na20  1  0.84184033  0.13665882  0.90497286  1
  Na  Na21  1  0.87245422  0.63076059  0.25259984  1
  Na  Na22  1  0.86073899  0.62863748  0.57439265  1
  Na  Na23  1  0.86952287  0.62956030  0.91397658  1
  Na  Na24  1  0.49194207  0.01331254  0.07610480  1
  Na  Na25  1  1.00722559  0.49071644  0.08031302  1
  Na  Na26  1  1.00372174  0.54164564  0.42131935  1
  Na  Na27  1  0.98548976  -0.00356491  0.44752740  1
  Na  Na28  1  0.94336813  0.01143281  0.05718140  1
  Na  Na29  1  0.50055433  0.50747561  0.41255721  1
  Na  Na30  1  0.48337535  0.02926280  0.75983824  1
  Na  Na31  1  0.49009362  0.01209585  0.41663296  1
  Na  Na32  1  0.97321201  0.49381218  0.75336156  1
  Na  Na33  1  0.50486189  0.48850459  0.60107953  1
  Na  Na34  1  0.51097770  0.98609547  0.58750699  1
  Na  Na35  1  0.51526967  0.98955368  0.24671116  1
  Na  Na36  1  0.49954585  0.47870451  0.92683302  1
  Na  Na37  1  -0.01334354  1.01588561  0.88937339  1
  Na  Na38  1  0.51540692  0.96362118  0.90213730  1
  Na  Na39  1  0.53818623  0.49153569  0.24286571  1
  Na  Na40  1  0.00951404  0.99186139  0.25334701  1
  Na  Na41  1  -0.01171370  0.51146126  0.58368029  1
  Na  Na42  1  0.74997771  0.25266789  0.68151093  1
  Na  Na43  1  0.23934175  0.74376598  0.67559730  1
  Na  Na44  1  0.74087865  0.72957995  0.33985078  1
  Na  Na45  1  0.74813468  0.74981933  0.66919811  1
  Na  Na46  1  0.76074204  0.76398646  -0.00343618  1
  Na  Na47  1  0.76266597  0.26784936  0.31972240  1
  Na  Na48  1  0.73886634  0.24341825  -0.00108756  1
  Na  Na49  1  0.24301980  0.24313520  0.67561502  1
  Na  Na50  1  0.23911568  0.73468073  0.33824642  1
  Na  Na51  1  0.25701260  0.26122993  0.32770502  1
  Na  Na52  1  0.25670824  0.75510538  0.15671914  1
  Na  Na53  1  0.24945861  0.25033280  0.49875911  1
  Na  Na54  1  0.22282557  0.71994849  0.50431845  1
  Na  Na55  1  0.73887408  0.73257643  0.50110187  1
  Na  Na56  1  0.75029190  0.74707809  0.17118446  1
  Na  Na57  1  0.25707563  0.25767968  0.15201342  1
  Na  Na58  1  0.24206701  0.74043868  0.84441070  1
  Na  Na59  1  0.76791011  0.27122898  0.50199124  1
  Na  Na60  1  0.75834748  0.75967687  0.83405216  1
  Na  Na61  1  0.23683021  0.24380732  0.84839119  1
  Fe  Fe62  1  0.46928094  0.30548753  0.45401924  1
  Fe  Fe63  1  0.96875643  0.79902679  0.45859907  1
  Fe  Fe64  1  0.46127006  0.80729243  0.44831047  1
  Fe  Fe65  1  0.96884302  0.31156994  0.45450626  1
  Fe  Fe66  1  0.46146490  0.80601204  0.11308568  1
  Fe  Fe67  1  0.96783006  0.80765861  0.11739486  1
  Fe  Fe68  1  0.47061892  0.29738007  0.78953313  1
  Fe  Fe69  1  0.46558697  0.30239653  0.11650428  1
  Fe  Fe70  1  0.96602337  0.80406138  0.78505967  1
  Fe  Fe71  1  0.96327636  0.31655466  0.12487521  1
  Fe  Fe72  1  0.18495539  0.03746994  0.04168763  1
  Fe  Fe73  1  0.69749587  0.03479942  0.38630174  1
  Fe  Fe74  1  0.69812088  0.03513144  0.04589543  1
  Fe  Fe75  1  0.69825947  0.53441157  0.70915120  1
  Fe  Fe76  1  0.19154891  0.53341774  0.04519661  1
  Fe  Fe77  1  0.19048361  0.03391067  0.71339307  1
  Fe  Fe78  1  0.69208171  0.53958005  0.04139865  1
  Fe  Fe79  1  0.19437606  0.03607426  0.37848929  1
  Fe  Fe80  1  0.69446431  0.03285884  0.72251711  1
  Fe  Fe81  1  0.19373952  0.53165995  0.71562430  1
  Fe  Fe82  1  0.02773156  0.20106265  0.87552427  1
  Fe  Fe83  1  0.03591244  0.19590859  0.54978050  1
  Fe  Fe84  1  0.03302081  0.19484532  0.21176236  1
  Fe  Fe85  1  0.03880688  0.68881976  0.88127820  1
  Fe  Fe86  1  0.53801069  0.19338405  0.55328347  1
  Fe  Fe87  1  0.52994654  0.69768531  0.54873971  1
  Fe  Fe88  1  0.53832985  0.19060149  0.21399243  1
  Fe  Fe89  1  0.53087611  0.70125089  0.87634503  1
  Fe  Fe90  1  0.53262258  0.68889475  0.20878940  1
  Fe  Fe91  1  0.03682816  0.69021062  0.21218398  1
  Fe  Fe92  1  0.30364994  0.96619604  0.94635894  1
  Fe  Fe93  1  0.80848802  0.46572490  0.95076756  1
  Fe  Fe94  1  0.31247330  0.46483108  0.62423393  1
  Fe  Fe95  1  0.30835098  0.46270016  0.95715327  1
  Fe  Fe96  1  0.30614466  0.96437108  0.61624448  1
  Fe  Fe97  1  0.30061759  0.46829839  0.29040933  1
  Fe  Fe98  1  0.30610903  0.96566946  0.27955960  1
  Fe  Fe99  1  0.80985304  0.96129276  0.62320216  1
  Fe  Fe100  1  0.80308790  0.46667398  0.28544962  1
  Fe  Fe101  1  0.80932137  0.96385516  0.28891539  1
  S  S102  1  0.36039221  0.13665863  0.08535194  1
  S  S103  1  0.36214096  0.13931723  0.41354328  1
  S  S104  1  0.35613270  0.13970717  0.74699246  1
  S  S105  1  0.35767870  0.64013560  0.08230892  1
  S  S106  1  0.35757086  0.64255418  0.41687884  1
  S  S107  1  0.35966258  0.64003894  0.75114711  1
  S  S108  1  0.85705253  0.15104138  0.08781326  1
  S  S109  1  0.86117226  0.13934799  0.41911394  1
  S  S110  1  0.85759295  0.13548440  0.74981586  1
  S  S111  1  0.86000505  0.64440225  0.08245863  1
  S  S112  1  0.86045080  0.63922175  0.41442011  1
  S  S113  1  0.86035798  0.64025646  0.74867277  1
  S  S114  1  0.14139769  0.35529339  0.24725383  1
  S  S115  1  0.14719736  0.35683604  0.58465178  1
  S  S116  1  0.13754934  0.36305277  0.91763658  1
  S  S117  1  0.14188682  0.85971852  0.24863137  1
  S  S118  1  0.14150415  0.86088923  0.58000074  1
  S  S119  1  0.14084626  0.86036244  0.91376401  1
  S  S120  1  0.63808401  0.35771611  0.24936585  1
  S  S121  1  0.64090929  0.36115449  0.58519580  1
  S  S122  1  0.63935705  0.36535505  0.91795233  1
  S  S123  1  0.63928704  0.85961079  0.25082916  1
  S  S124  1  0.63640624  0.86184027  0.58054000  1
  S  S125  1  0.64614139  0.85756826  0.92635022  1
  S  S126  1  0.06120021  0.16628631  0.03921495  1
  S  S127  1  0.06803312  0.17052389  0.37415154  1
  S  S128  1  0.07156542  0.16941377  0.70947315  1
  S  S129  1  0.06768701  0.66961923  0.04429416  1
  S  S130  1  0.06809420  0.67337499  0.37362290  1
  S  S131  1  0.06487632  0.66646234  0.71093954  1
  S  S132  1  0.56244408  0.16048080  0.04069198  1
  S  S133  1  0.57047785  0.16710797  0.37723123  1
  S  S134  1  0.56566017  0.16309283  0.70542554  1
  S  S135  1  0.56660798  0.67477175  0.04204481  1
  S  S136  1  0.55897840  0.66946877  0.37234377  1
  S  S137  1  0.57434646  0.67169545  0.70972374  1
  S  S138  1  0.33199359  0.43120539  0.12890586  1
  S  S139  1  0.34064495  0.43154613  0.46267048  1
  S  S140  1  0.33245086  0.42691404  0.79387687  1
  S  S141  1  0.33127596  0.93416592  0.12325615  1
  S  S142  1  0.33156876  0.93582379  0.45256825  1
  S  S143  1  0.32948439  0.93904929  0.78764196  1
  S  S144  1  0.82440160  0.43619884  0.12015901  1
  S  S145  1  0.83505388  0.43389070  0.45542433  1
  S  S146  1  0.82430934  0.43648456  0.78894099  1
  S  S147  1  0.83646483  0.93666339  0.13021785  1
  S  S148  1  0.82614587  0.92303517  0.45532886  1
  S  S149  1  0.82830127  0.93045975  0.79135476  1
  S  S150  1  0.43224016  0.32798800  0.29045460  1
  S  S151  1  0.43257639  0.32361149  0.62367945  1
  S  S152  1  0.42960546  0.32949162  0.95728464  1
  S  S153  1  0.43418960  0.83527143  0.28854272  1
  S  S154  1  0.43235112  0.83528188  0.62200234  1
  S  S155  1  0.43251899  0.83545980  0.95811005  1
  S  S156  1  0.93585504  0.33274667  0.29340493  1
  S  S157  1  0.94577852  0.33558663  0.62370739  1
  S  S158  1  0.92801305  0.32809072  0.96271424  1
  S  S159  1  0.93665568  0.83415303  0.29553487  1
  S  S160  1  0.92655431  0.82435170  0.62129307  1
  S  S161  1  0.94130738  0.82878987  0.95555780  1
  S  S162  1  0.16886759  0.06755791  0.20768655  1
  S  S163  1  0.17160615  0.06956414  0.53868253  1
  S  S164  1  0.16761958  0.06935689  0.87458309  1
  S  S165  1  0.17145198  0.56572174  0.20668427  1
  S  S166  1  0.17099363  0.55753353  0.54883348  1
  S  S167  1  0.17239867  0.56641870  0.87653947  1
  S  S168  1  0.67228824  0.06509238  0.21384672  1
  S  S169  1  0.66909062  0.06712471  0.54486877  1
  S  S170  1  0.66298275  0.05740010  0.87823641  1
  S  S171  1  0.67156931  0.56867441  0.20403833  1
  S  S172  1  0.66145383  0.56889475  0.54174734  1
  S  S173  1  0.67454258  0.57957776  0.87579946  1
  O  O174  1  0.36898770  0.21656247  0.08109069  1
  O  O175  1  0.37255835  0.21786531  0.40525660  1
  O  O176  1  0.36954492  0.21703908  0.73635005  1
  O  O177  1  0.36689950  0.71973140  0.07591355  1
  O  O178  1  0.37007895  0.71781147  0.40045084  1
  O  O179  1  0.36346755  0.71302461  0.73442445  1
  O  O180  1  0.86504919  0.23485718  0.09258241  1
  O  O181  1  0.87036193  0.21852556  0.41242314  1
  O  O182  1  0.86408973  0.21031632  0.73697954  1
  O  O183  1  0.87066101  0.72412035  0.07526803  1
  O  O184  1  0.87444085  0.71802072  0.40301474  1
  O  O185  1  0.86706583  0.72356725  0.74898851  1
  O  O186  1  0.28266293  0.12564730  0.09577532  1
  O  O187  1  0.28278040  0.13202492  0.42114856  1
  O  O188  1  0.27410221  0.13546197  0.74953115  1
  O  O189  1  0.27852346  0.62989842  0.08982851  1
  O  O190  1  0.27942404  0.63692186  0.42241996  1
  O  O191  1  0.28155702  0.62721160  0.76204064  1
  O  O192  1  0.78018796  0.13477787  0.09708217  1
  O  O193  1  0.78380049  0.13049165  0.43098723  1
  O  O194  1  0.78126051  0.12354781  0.76338922  1
  O  O195  1  0.77928452  0.63673721  0.08705742  1
  O  O196  1  0.78103121  0.63634890  0.41908882  1
  O  O197  1  0.77895876  0.63144615  0.75585033  1
  O  O198  1  0.13265385  0.27200975  0.24886390  1
  O  O199  1  0.13851740  0.27567904  0.58865033  1
  O  O200  1  0.12743847  0.28372864  0.92562916  1
  O  O201  1  0.13302117  0.78071944  0.25562298  1
  O  O202  1  0.14083038  0.78257044  0.58682469  1
  O  O203  1  0.13487088  0.78174494  0.92199084  1
  O  O204  1  0.62966006  0.27796425  0.25810824  1
  O  O205  1  0.62829524  0.28483170  0.59843718  1
  O  O206  1  0.63280426  0.29508784  0.93792403  1
  O  O207  1  0.62986628  0.78041644  0.25781948  1
  O  O208  1  0.62770801  0.78186785  0.58669594  1
  O  O209  1  0.62600575  0.78258889  0.93996893  1
  O  O210  1  0.22281169  0.36421868  0.24186615  1
  O  O211  1  0.22760974  0.36687476  0.57935413  1
  O  O212  1  0.21977670  0.37117513  0.91356330  1
  O  O213  1  0.22073441  0.86945713  0.24026959  1
  O  O214  1  0.21547640  0.87700696  0.56317391  1
  O  O215  1  0.21801828  0.87100519  0.90188921  1
  O  O216  1  0.71806115  0.36702412  0.24469709  1
  O  O217  1  0.71710762  0.36899347  0.57665711  1
  O  O218  1  0.71721932  0.37867810  0.91023751  1
  O  O219  1  0.71780923  0.86893071  0.24187264  1
  O  O220  1  0.71374084  0.86982486  0.56924138  1
  O  O221  1  0.72689792  0.85658168  0.92554544  1
  O  O222  1  0.42163413  0.12547804  0.15147533  1
  O  O223  1  0.42076114  0.12901622  0.48048903  1
  O  O224  1  0.41118295  0.13016052  0.81396586  1
  O  O225  1  0.41591978  0.63372604  0.15161644  1
  O  O226  1  0.41650427  0.64005174  0.48808590  1
  O  O227  1  0.41924015  0.63996798  0.82266463  1
  O  O228  1  0.91867303  0.13573100  0.15254736  1
  O  O229  1  0.92261404  0.12691606  0.48379501  1
  O  O230  1  0.91982791  0.12889893  0.81711347  1
  O  O231  1  0.91619806  0.63864314  0.15272040  1
  O  O232  1  0.91914208  0.62948793  0.48002867  1
  O  O233  1  0.91784504  0.62989362  0.81686823  1
  O  O234  1  0.36719405  0.07873532  0.01614134  1
  O  O235  1  0.36975459  0.07990123  0.34515407  1
  O  O236  1  0.36400333  0.07887147  0.67822903  1
  O  O237  1  0.36588682  0.58143727  0.01458340  1
  O  O238  1  0.37005204  0.57878833  0.35329324  1
  O  O239  1  0.37137007  0.57530809  0.68801339  1
  O  O240  1  0.86551742  0.10115210  0.01729415  1
  O  O241  1  0.86471042  0.08085861  0.34861933  1
  O  O242  1  0.86222020  0.07322832  0.68129706  1
  O  O243  1  0.87063351  0.58532891  0.01651529  1
  O  O244  1  0.86773330  0.57967585  0.34496452  1
  O  O245  1  0.86848953  0.58605459  0.68085429  1
  O  O246  1  0.08517676  0.36194277  0.17683136  1
  O  O247  1  0.09028563  0.36496449  0.51599786  1
  O  O248  1  0.08174603  0.37341579  0.85210688  1
  O  O249  1  0.08264104  0.86950527  0.18151488  1
  O  O250  1  0.07629598  0.86858974  0.51468828  1
  O  O251  1  0.07933719  0.86988488  0.84780175  1
  O  O252  1  0.58087763  0.36144067  0.17715547  1
  O  O253  1  0.57895124  0.36634431  0.51668174  1
  O  O254  1  0.57999496  0.36345136  0.84493878  1
  O  O255  1  0.57932305  0.86967775  0.18397895  1
  O  O256  1  0.57564127  0.87230330  0.51393453  1
  O  O257  1  0.59156323  0.86591867  0.85784403  1
  O  O258  1  0.13328772  0.40995050  0.31434161  1
  O  O259  1  0.13800600  0.41260140  0.65332854  1
  O  O260  1  0.13340599  0.42106574  0.98898632  1
  O  O261  1  0.13393943  0.91887946  0.31697379  1
  O  O262  1  0.13609212  0.91858014  0.64963515  1
  O  O263  1  0.13607762  0.91932072  0.98354018  1
  O  O264  1  0.62330736  0.41630393  0.31234056  1
  O  O265  1  0.62998148  0.42422494  0.65162219  1
  O  O266  1  0.62373496  0.43349283  0.97719053  1
  O  O267  1  0.63174168  0.91874053  0.31952255  1
  O  O268  1  0.62868089  0.91978531  0.64908904  1
  O  O269  1  0.63760583  0.92138810  0.99314975  1
  O  O270  1  0.02390036  0.19573148  0.09928016  1
  O  O271  1  0.03235909  0.19941904  0.43521892  1
  O  O272  1  0.03536267  0.19159162  0.76885659  1
  O  O273  1  0.02898657  0.70147738  0.10434595  1
  O  O274  1  0.03095444  0.70651423  0.43292842  1
  O  O275  1  0.03269866  0.70050930  0.77591381  1
  O  O276  1  0.53138680  0.19543155  0.10745088  1
  O  O277  1  0.53381897  0.19663311  0.43805588  1
  O  O278  1  0.53089512  0.19396337  0.76543698  1
  O  O279  1  0.52739245  0.70085789  0.10227528  1
  O  O280  1  0.52722411  0.70654631  0.43592324  1
  O  O281  1  0.54355371  0.69427750  0.77257564  1
  O  O282  1  0.30493894  0.47019818  0.06936412  1
  O  O283  1  0.31374135  0.46302350  0.40019686  1
  O  O284  1  0.30287066  0.46393422  0.73365002  1
  O  O285  1  0.30033783  0.96509941  0.05943542  1
  O  O286  1  0.30201516  0.97267105  0.39146153  1
  O  O287  1  0.29191176  0.97403693  0.72538506  1
  O  O288  1  0.79764235  0.47825356  0.06238949  1
  O  O289  1  0.80844654  0.46078764  0.38930606  1
  O  O290  1  0.79024400  0.47872298  0.73254902  1
  O  O291  1  0.80995160  0.97602371  0.07340453  1
  O  O292  1  0.80098719  0.96396849  0.39616016  1
  O  O293  1  0.79154770  0.95774962  0.72387901  1
  O  O294  1  0.46769367  0.29841714  0.22894336  1
  O  O295  1  0.46799126  0.29255729  0.56131805  1
  O  O296  1  0.46502376  0.30894543  0.89687646  1
  O  O297  1  0.46926094  0.80374359  0.22724912  1
  O  O298  1  0.46443508  0.80323214  0.55632889  1
  O  O299  1  0.46853019  0.80735423  0.89896770  1
  O  O300  1  0.97466238  0.30393011  0.23333817  1
  O  O301  1  0.97641252  0.29569104  0.55670972  1
  O  O302  1  0.96083989  0.29632305  0.90157619  1
  O  O303  1  0.97339559  0.80773634  0.23461136  1
  O  O304  1  0.96221531  0.80041263  0.56075164  1
  O  O305  1  0.97767896  0.79082093  0.89549416  1
  O  O306  1  0.19957110  0.02860629  0.26758671  1
  O  O307  1  0.20018576  0.03463468  0.59983439  1
  O  O308  1  0.19985504  0.03393792  0.93747948  1
  O  O309  1  0.20063800  0.53052573  0.26635698  1
  O  O310  1  0.20912603  0.52457252  0.61354543  1
  O  O311  1  0.20229401  0.53152357  0.93867919  1
  O  O312  1  0.69989697  0.02780907  0.27509945  1
  O  O313  1  0.69546622  0.03115742  0.60549757  1
  O  O314  1  0.70160489  0.02621795  0.94013045  1
  O  O315  1  0.69929623  0.52889647  0.26058526  1
  O  O316  1  0.68818938  0.53811820  0.60665658  1
  O  O317  1  0.70497785  0.53946723  0.93396239  1
  O  O318  1  0.07426108  0.08191625  0.03150916  1
  O  O319  1  0.08714773  0.08848532  0.36836195  1
  O  O320  1  0.09360279  0.08863507  0.69818153  1
  O  O321  1  0.08560534  0.58959930  0.04346561  1
  O  O322  1  0.08642962  0.59546021  0.37355120  1
  O  O323  1  0.08977217  0.58806164  0.71400268  1
  O  O324  1  0.58663369  0.08144490  0.04530020  1
  O  O325  1  0.58475073  0.08331193  0.37134029  1
  O  O326  1  0.58363882  0.08082973  0.70299912  1
  O  O327  1  0.58278422  0.59234036  0.03115918  1
  O  O328  1  0.56459909  0.58660287  0.36427902  1
  O  O329  1  0.59722079  0.58944614  0.69753311  1
  O  O330  1  0.41356895  0.41161526  0.13624566  1
  O  O331  1  0.42489453  0.41479368  0.47247633  1
  O  O332  1  0.41218412  0.40488183  0.79692465  1
  O  O333  1  0.41472455  0.91865548  0.13076773  1
  O  O334  1  0.41526823  0.92201087  0.45893815  1
  O  O335  1  0.41118895  0.93277056  0.79114701  1
  O  O336  1  0.90588706  0.41880611  0.12470419  1
  O  O337  1  0.91810184  0.41278545  0.46455696  1
  O  O338  1  0.90006649  0.41598913  0.78384370  1
  O  O339  1  0.91878393  0.91712485  0.13404035  1
  O  O340  1  0.90571360  0.90008697  0.45786901  1
  O  O341  1  0.90610566  0.90459599  0.78814699  1
  O  O342  1  0.41309519  0.40923832  0.29788854  1
  O  O343  1  0.41740338  0.40551032  0.62863126  1
  O  O344  1  0.41362948  0.41349976  0.97201106  1
  O  O345  1  0.41957485  0.91877211  0.29320193  1
  O  O346  1  0.41422725  0.91779019  0.62287575  1
  O  O347  1  0.41359906  0.91803185  0.96242219  1
  O  O348  1  0.91402128  0.41191944  0.29645499  1
  O  O349  1  0.93431910  0.41609398  0.62353414  1
  O  O350  1  0.90982913  0.41008196  0.96729779  1
  O  O351  1  0.92260974  0.91873958  0.30595897  1
  O  O352  1  0.90696495  0.90537171  0.63121589  1
  O  O353  1  0.92869529  0.90818465  0.95434326  1
  O  O354  1  0.08745434  0.08393584  0.20455711  1
  O  O355  1  0.09052317  0.08974446  0.53202575  1
  O  O356  1  0.08964528  0.09271395  0.87614943  1
  O  O357  1  0.08959717  0.58555242  0.19966698  1
  O  O358  1  0.08989872  0.56817296  0.54758266  1
  O  O359  1  0.09025095  0.58341671  0.86995068  1
  O  O360  1  0.58749051  0.07719232  0.20462633  1
  O  O361  1  0.58474308  0.08175066  0.53460772  1
  O  O362  1  0.57907137  0.05902836  0.86971887  1
  O  O363  1  0.59162916  0.59118695  0.20518833  1
  O  O364  1  0.57973298  0.59208672  0.53537994  1
  O  O365  1  0.59545787  0.59915836  0.87493543  1
  O  O366  1  0.13571351  0.21400016  0.05831548  1
  O  O367  1  0.13919856  0.22231014  0.38912416  1
  O  O368  1  0.14126099  0.22564033  0.72760936  1
  O  O369  1  0.13798247  0.72265830  0.06121521  1
  O  O370  1  0.13871877  0.72773189  0.38893772  1
  O  O371  1  0.13400238  0.72106173  0.72425335  1
  O  O372  1  0.63007099  0.21249565  0.05001841  1
  O  O373  1  0.64262969  0.21647611  0.39322906  1
  O  O374  1  0.63463147  0.21247658  0.71313825  1
  O  O375  1  0.63957973  0.72720601  0.06594009  1
  O  O376  1  0.63469341  0.71544452  0.38862686  1
  O  O377  1  0.64323511  0.72603141  0.72267667  1
  O  O378  1  0.27793615  0.36123551  0.11065760  1
  O  O379  1  0.29059094  0.35883671  0.44834205  1
  O  O380  1  0.27743215  0.35846452  0.77991089  1
  O  O381  1  0.28229649  0.86410512  0.11400081  1
  O  O382  1  0.28242771  0.86288357  0.43435473  1
  O  O383  1  0.28298496  0.86488172  0.77257357  1
  O  O384  1  0.77007437  0.36601287  0.09902757  1
  O  O385  1  0.78298805  0.36157862  0.44071660  1
  O  O386  1  0.76817860  0.36886048  0.77404623  1
  O  O387  1  0.78477253  0.86526781  0.11495670  1
  O  O388  1  0.76978944  0.85372366  0.43489301  1
  O  O389  1  0.77475626  0.86338920  0.78375590  1
  O  O390  1  0.36107183  0.27425542  0.27317845  1
  O  O391  1  0.35964129  0.27321516  0.60570378  1
  O  O392  1  0.35833771  0.27727815  0.93912642  1
  O  O393  1  0.36146040  0.78688374  0.27389786  1
  O  O394  1  0.35982717  0.78588409  0.60696937  1
  O  O395  1  0.36251416  0.78455146  0.94656852  1
  O  O396  1  0.86841520  0.27655384  0.27823059  1
  O  O397  1  0.87168362  0.28723811  0.60805976  1
  O  O398  1  0.85956844  0.27838521  0.95639280  1
  O  O399  1  0.86310903  0.78452927  0.27608077  1
  O  O400  1  0.85561131  0.77023745  0.60414198  1
  O  O401  1  0.86926519  0.77863526  0.94162564  1
  O  O402  1  0.22168479  0.13873115  0.22625253  1
  O  O403  1  0.22495227  0.13950370  0.55289971  1
  O  O404  1  0.22287923  0.13588991  0.88635574  1
  O  O405  1  0.22333848  0.63730374  0.22071145  1
  O  O406  1  0.21928138  0.63333489  0.56836918  1
  O  O407  1  0.22389595  0.63690460  0.89124660  1
  O  O408  1  0.72074968  0.13890013  0.23430910  1
  O  O409  1  0.71863365  0.13971281  0.56126527  1
  O  O410  1  0.70384736  0.13400805  0.89091424  1
  O  O411  1  0.72487781  0.64032156  0.22094382  1
  O  O412  1  0.71567325  0.63919238  0.55754587  1
  O  O413  1  0.72973637  0.64913222  0.89276529  1
  O  O414  1  0.48897593  0.32445720  0.02746276  1
  O  O415  1  0.49208970  0.32849823  0.36221492  1
  O  O416  1  0.49091092  0.32189006  0.69442564  1
  O  O417  1  0.49220613  0.84325711  0.03389727  1
  O  O418  1  0.49285069  0.83895862  0.36187692  1
  O  O419  1  0.49372258  0.83994357  0.69095503  1
  O  O420  1  0.99224507  0.33761210  0.03688723  1
  O  O421  1  0.99692023  0.33579307  0.36588907  1
  O  O422  1  1.00484672  0.33483879  0.69259463  1
  O  O423  1  0.99854225  0.83179813  0.03023062  1
  O  O424  1  0.99349171  0.83304661  0.36804611  1
  O  O425  1  0.98665952  0.82237612  0.69199274  1
  O  O426  1  0.16754393  0.00985729  0.13485135  1
  O  O427  1  0.16823017  0.00872238  0.46601183  1
  O  O428  1  0.15999847  0.00644814  0.80263000  1
  O  O429  1  0.16646626  0.50620714  0.13261159  1
  O  O430  1  0.17410719  0.50217173  0.47897562  1
  O  O431  1  0.17145924  0.50504200  0.80540547  1
  O  O432  1  0.67625169  0.00804006  0.14316317  1
  O  O433  1  0.66881442  0.00772266  0.47230669  1
  O  O434  1  0.66901943  0.00091446  0.80574159  1
  O  O435  1  0.66337581  0.51370046  0.12804341  1
  O  O436  1  0.65581815  0.50745345  0.47210837  1
  O  O437  1  0.67100341  0.52170246  0.80105055  1
  O  O438  1  0.00808044  0.16666738  0.30150605  1
  O  O439  1  0.01274159  0.16897400  0.63683073  1
  O  O440  1  0.00472322  0.16690817  0.96665264  1
  O  O441  1  0.01002234  0.67148382  0.29922675  1
  O  O442  1  0.00230706  0.65549181  0.64068881  1
  O  O443  1  0.00976364  0.66615368  0.97090004  1
  O  O444  1  0.51140024  0.16426937  0.30396899  1
  O  O445  1  0.50376721  0.15346584  0.63010746  1
  O  O446  1  0.49729668  0.14874751  0.97226430  1
  O  O447  1  0.50257719  0.67617498  0.30127493  1
  O  O448  1  0.51058837  0.67005464  0.63976413  1
  O  O449  1  0.50930782  0.67961890  0.97191558  1
  O  O450  1  0.33321865  0.49047405  0.20157057  1
  O  O451  1  0.34278049  0.49128493  0.53519568  1
  O  O452  1  0.33877890  0.48750729  0.86765812  1
  O  O453  1  0.33417138  0.99727596  0.19472059  1
  O  O454  1  0.33168589  0.99402586  0.52454512  1
  O  O455  1  0.32628619  0.99671721  0.85976219  1
  O  O456  1  0.82621046  0.49202773  0.19412482  1
  O  O457  1  0.83726308  0.49555659  0.52391281  1
  O  O458  1  0.83268153  0.49410350  0.86540880  1
  O  O459  1  0.84325428  0.99330620  0.20636985  1
  O  O460  1  0.82911007  0.98164633  0.52733098  1
  O  O461  1  0.84187748  0.99691098  0.85979478  1
