# generated using pymatgen
data_Na31Fe20(SO4)36
_symmetry_space_group_name_H-M   'P 1'
_cell_length_a   18.07573151
_cell_length_b   18.07488259
_cell_length_c   19.71626601
_cell_angle_alpha   107.60002729
_cell_angle_beta   107.56320340
_cell_angle_gamma   90.70595983
_symmetry_Int_Tables_number   1
_chemical_formula_structural   Na31Fe20(SO4)36
_chemical_formula_sum   'Na62 Fe40 S72 O288'
_cell_volume   5815.74405292
_cell_formula_units_Z   2
loop_
 _symmetry_equiv_pos_site_id
 _symmetry_equiv_pos_as_xyz
  1  'x, y, z'
loop_
 _atom_site_type_symbol
 _atom_site_label
 _atom_site_symmetry_multiplicity
 _atom_site_fract_x
 _atom_site_fract_y
 _atom_site_fract_z
 _atom_site_occupancy
  Na  Na0  1  0.14244792  0.37123506  0.09852310  1
  Na  Na1  1  0.13576985  0.36651172  0.42019289  1
  Na  Na2  1  0.12867895  0.35172707  0.73112589  1
  Na  Na3  1  0.13788640  0.86235703  0.08109009  1
  Na  Na4  1  0.13139298  0.87076680  0.41437535  1
  Na  Na5  1  0.14492714  0.86809226  0.75751914  1
  Na  Na6  1  0.63820025  0.36557298  0.08669493  1
  Na  Na7  1  0.64136810  0.36741981  0.41441378  1
  Na  Na8  1  0.63155132  0.35855120  0.74779777  1
  Na  Na9  1  0.62695555  0.86779317  0.08400506  1
  Na  Na10  1  0.62762327  0.86315031  0.41219310  1
  Na  Na11  1  0.63231910  0.86339015  0.75158524  1
  Na  Na12  1  0.36556911  0.14247633  0.25211654  1
  Na  Na13  1  0.36069091  0.12963032  0.57071864  1
  Na  Na14  1  0.36398723  0.12690038  0.91029737  1
  Na  Na15  1  0.35872412  0.62979607  0.25309045  1
  Na  Na16  1  0.36813282  0.64209254  0.59026841  1
  Na  Na17  1  0.36282894  0.63102540  0.91207183  1
  Na  Na18  1  0.86588299  0.13739307  0.25637587  1
  Na  Na19  1  0.87609268  0.12751397  0.58202371  1
  Na  Na20  1  0.87280093  0.13040465  0.92007891  1
  Na  Na21  1  0.86568425  0.64793868  0.26314414  1
  Na  Na22  1  0.85392701  0.62826599  0.56493398  1
  Na  Na23  1  0.86441397  0.63343035  0.91591892  1
  Na  Na24  1  0.98838986  0.54832095  0.10197630  1
  Na  Na25  1  0.99384292  0.50926672  0.74457737  1
  Na  Na26  1  0.48741299  0.51147171  0.08882387  1
  Na  Na27  1  0.48683200  0.50537669  0.74938788  1
  Na  Na28  1  0.48828986  0.00528279  0.73994426  1
  Na  Na29  1  1.01155500  0.05340305  0.44844615  1
  Na  Na30  1  0.46023911  0.51406799  0.40195393  1
  Na  Na31  1  1.00097149  0.00431488  0.74077008  1
  Na  Na32  1  1.00600994  0.01122654  0.06627096  1
  Na  Na33  1  0.01382112  0.48334479  0.91956933  1
  Na  Na34  1  0.50706678  0.45158977  0.90513736  1
  Na  Na35  1  0.55020745  0.49096658  0.27265937  1
  Na  Na36  1  0.49126410  0.95838787  0.91155644  1
  Na  Na37  1  0.04725658  0.99114169  0.26453401  1
  Na  Na38  1  0.01852982  0.49248015  0.56199456  1
  Na  Na39  1  0.50858742  0.48806320  0.57772302  1
  Na  Na40  1  0.50434666  0.99714016  0.25410701  1
  Na  Na41  1  0.00780359  0.50110236  0.26841900  1
  Na  Na42  1  0.74401557  0.74658020  0.00590315  1
  Na  Na43  1  0.74370552  0.24294211  0.00686728  1
  Na  Na44  1  0.25816555  0.76161892  -0.00805252  1
  Na  Na45  1  0.25326077  0.24931717  -0.00034053  1
  Na  Na46  1  0.23192249  0.73828084  0.34160415  1
  Na  Na47  1  0.26884529  0.76650326  0.65466927  1
  Na  Na48  1  0.23795166  0.23793356  0.35330140  1
  Na  Na49  1  0.25898760  0.25284156  0.64365325  1
  Na  Na50  1  0.75351743  0.75065830  0.65826787  1
  Na  Na51  1  0.75178492  0.24870677  0.66292163  1
  Na  Na52  1  0.74808954  0.74969866  0.83405913  1
  Na  Na53  1  0.74694572  0.24378773  0.83716230  1
  Na  Na54  1  0.73951697  0.23653488  0.18023602  1
  Na  Na55  1  0.75253763  0.75088255  0.47980931  1
  Na  Na56  1  0.27663145  0.77297514  0.82747278  1
  Na  Na57  1  0.23636005  0.74026773  0.17365157  1
  Na  Na58  1  0.25954590  0.25849528  0.17154617  1
  Na  Na59  1  0.74159387  0.74419401  0.17893015  1
  Na  Na60  1  0.25980863  0.25341590  0.82157997  1
  Na  Na61  1  0.76053946  0.25592141  0.48749371  1
  Fe  Fe62  1  0.96592285  0.30356221  0.78288273  1
  Fe  Fe63  1  0.46140262  0.81644173  0.45734580  1
  Fe  Fe64  1  0.46588836  0.30833026  0.12103159  1
  Fe  Fe65  1  0.96837376  0.80411870  0.45099391  1
  Fe  Fe66  1  0.46564619  0.30702897  0.44790821  1
  Fe  Fe67  1  0.96470181  0.30064440  0.45289113  1
  Fe  Fe68  1  0.96604174  0.80822728  0.78828261  1
  Fe  Fe69  1  0.97219420  0.80307418  0.12560471  1
  Fe  Fe70  1  0.46006764  0.80994523  0.12268934  1
  Fe  Fe71  1  0.96356299  0.31065888  0.12268121  1
  Fe  Fe72  1  0.69241088  0.53437132  0.71326640  1
  Fe  Fe73  1  0.69404656  0.03343842  0.38243915  1
  Fe  Fe74  1  0.68900471  0.03341201  0.70869597  1
  Fe  Fe75  1  0.19316815  0.53525840  0.71495758  1
  Fe  Fe76  1  0.20071321  0.03163073  0.04098260  1
  Fe  Fe77  1  0.20197488  0.53353948  0.37949844  1
  Fe  Fe78  1  0.19479935  0.53270403  0.05337736  1
  Fe  Fe79  1  0.18793226  0.03532001  0.71153905  1
  Fe  Fe80  1  0.69001169  0.53603162  0.04900316  1
  Fe  Fe81  1  0.69214019  0.03383899  0.04739318  1
  Fe  Fe82  1  0.04149430  0.68792314  0.54374124  1
  Fe  Fe83  1  0.53023327  0.19878631  0.87266159  1
  Fe  Fe84  1  0.03624308  0.19304648  0.88290863  1
  Fe  Fe85  1  0.53705750  0.18640590  0.20952859  1
  Fe  Fe86  1  0.03438466  0.19398605  0.21712900  1
  Fe  Fe87  1  0.03522629  0.69088153  0.88071835  1
  Fe  Fe88  1  0.53259539  0.19144795  0.54435070  1
  Fe  Fe89  1  0.53059732  0.69555892  0.54840389  1
  Fe  Fe90  1  0.53092229  0.69781058  0.87999547  1
  Fe  Fe91  1  0.53195580  0.69572282  0.22061106  1
  Fe  Fe92  1  0.80636754  0.96301484  0.95317388  1
  Fe  Fe93  1  0.80899969  0.46767592  0.95644457  1
  Fe  Fe94  1  0.80625191  0.96217241  0.61724878  1
  Fe  Fe95  1  0.30625243  0.46402877  0.95081329  1
  Fe  Fe96  1  0.80246673  0.46784894  0.29088161  1
  Fe  Fe97  1  0.80102877  0.46793655  0.61199566  1
  Fe  Fe98  1  0.30197591  0.97374712  0.29385411  1
  Fe  Fe99  1  0.30819115  0.46149828  0.61476104  1
  Fe  Fe100  1  0.80909836  0.96355298  0.28855512  1
  Fe  Fe101  1  0.30194400  0.96320469  0.61427230  1
  S  S102  1  0.36105019  0.14406293  0.08361621  1
  S  S103  1  0.35969464  0.14403911  0.41261022  1
  S  S104  1  0.35854714  0.13695386  0.74483167  1
  S  S105  1  0.35818318  0.64020921  0.08351931  1
  S  S106  1  0.35736658  0.64958750  0.42154554  1
  S  S107  1  0.35997056  0.63599321  0.75149149  1
  S  S108  1  0.86127150  0.13846793  0.08134306  1
  S  S109  1  0.85600251  0.13824951  0.41631285  1
  S  S110  1  0.86029578  0.13833047  0.75136624  1
  S  S111  1  0.85297840  0.64371430  0.08435066  1
  S  S112  1  0.86519676  0.63806357  0.41902517  1
  S  S113  1  0.86011341  0.63975231  0.74976968  1
  S  S114  1  0.13858836  0.35990888  0.25240376  1
  S  S115  1  0.13780319  0.36377430  0.58305008  1
  S  S116  1  0.14060890  0.35943524  0.91655506  1
  S  S117  1  0.14619530  0.85909561  0.24615297  1
  S  S118  1  0.13920504  0.85788699  0.58515595  1
  S  S119  1  0.13959743  0.85580419  0.91616448  1
  S  S120  1  0.64280087  0.35291799  0.24360380  1
  S  S121  1  0.63982685  0.35899152  0.58299164  1
  S  S122  1  0.64590198  0.35999906  0.91812711  1
  S  S123  1  0.63700314  0.86089598  0.25165358  1
  S  S124  1  0.64159144  0.85720111  0.58305651  1
  S  S125  1  0.64100955  0.85951111  0.91688119  1
  S  S126  1  0.07185598  0.17429291  0.04618653  1
  S  S127  1  0.06092163  0.17063460  0.37394444  1
  S  S128  1  0.06452762  0.17193845  0.71416679  1
  S  S129  1  0.06265144  0.66461752  0.03937232  1
  S  S130  1  0.06606610  0.66624494  0.37380840  1
  S  S131  1  0.06877640  0.66929063  0.71042947  1
  S  S132  1  0.56770368  0.16856814  0.03668191  1
  S  S133  1  0.57017223  0.17019402  0.37482821  1
  S  S134  1  0.57041267  0.16852641  0.70760115  1
  S  S135  1  0.56321622  0.66848840  0.04251625  1
  S  S136  1  0.55540694  0.67142341  0.37924514  1
  S  S137  1  0.56872383  0.66614814  0.71022557  1
  S  S138  1  0.33382507  0.43629699  0.12326632  1
  S  S139  1  0.33417346  0.43597195  0.45720379  1
  S  S140  1  0.32957487  0.43303838  0.78785839  1
  S  S141  1  0.32735183  0.93387387  0.12947929  1
  S  S142  1  0.32344147  0.93191292  0.45154759  1
  S  S143  1  0.33165576  0.93987171  0.78620369  1
  S  S144  1  0.82916545  0.43594868  0.12520767  1
  S  S145  1  0.83286054  0.42795177  0.45832000  1
  S  S146  1  0.83061709  0.43327150  0.79213025  1
  S  S147  1  0.82960794  0.93080412  0.12382592  1
  S  S148  1  0.82640658  0.92675222  0.45641772  1
  S  S149  1  0.82897568  0.93030186  0.78945696  1
  S  S150  1  0.44754214  0.33419666  0.29005221  1
  S  S151  1  0.43819704  0.33360804  0.62271507  1
  S  S152  1  0.43466273  0.33086004  0.95835921  1
  S  S153  1  0.42413075  0.83032250  0.29052750  1
  S  S154  1  0.43775769  0.83773672  0.62755477  1
  S  S155  1  0.43209438  0.82638976  0.96048631  1
  S  S156  1  0.92821688  0.32920290  0.28852872  1
  S  S157  1  0.92759944  0.33569278  0.62623226  1
  S  S158  1  0.93471312  0.33436334  0.96066926  1
  S  S159  1  0.93424130  0.83661283  0.29158021  1
  S  S160  1  0.93104958  0.82612357  0.62388974  1
  S  S161  1  0.93001540  0.82577671  0.95879932  1
  S  S162  1  0.17118150  0.06929557  0.20490199  1
  S  S163  1  0.16979377  0.06575775  0.54971280  1
  S  S164  1  0.16524039  0.06833673  0.87446872  1
  S  S165  1  0.16840874  0.56219112  0.21216689  1
  S  S166  1  0.17868945  0.56926662  0.54614803  1
  S  S167  1  0.16628116  0.56341948  0.87580681  1
  S  S168  1  0.67071399  0.06342656  0.20842332  1
  S  S169  1  0.67589275  0.06907143  0.54507317  1
  S  S170  1  0.67250828  0.06909823  0.87516509  1
  S  S171  1  0.66649212  0.56751961  0.20777145  1
  S  S172  1  0.66342663  0.56411219  0.54125572  1
  S  S173  1  0.66789559  0.56661340  0.87546452  1
  O  O174  1  0.36962598  0.22871777  0.08493497  1
  O  O175  1  0.37596350  0.21809298  0.39591189  1
  O  O176  1  0.36381679  0.21201399  0.73260250  1
  O  O177  1  0.36575312  0.71919128  0.07587177  1
  O  O178  1  0.36343987  0.73034572  0.41697124  1
  O  O179  1  0.36498065  0.71281800  0.74252761  1
  O  O180  1  0.87165246  0.21562490  0.06970608  1
  O  O181  1  0.86373593  0.21818445  0.41089078  1
  O  O182  1  0.86879191  0.21699165  0.74185142  1
  O  O183  1  0.86669604  0.72275082  0.07835877  1
  O  O184  1  0.87679142  0.71591181  0.40840320  1
  O  O185  1  0.86856550  0.72030665  0.74539810  1
  O  O186  1  0.28119709  0.13510631  0.09181644  1
  O  O187  1  0.28304193  0.14209916  0.42082796  1
  O  O188  1  0.28242174  0.12580908  0.75886869  1
  O  O189  1  0.27996823  0.62985519  0.09261700  1
  O  O190  1  0.27807675  0.63600701  0.42648129  1
  O  O191  1  0.28342267  0.62394326  0.76512616  1
  O  O192  1  0.78059383  0.13111305  0.08625605  1
  O  O193  1  0.77538196  0.12796643  0.42227158  1
  O  O194  1  0.78005504  0.12883433  0.75628425  1
  O  O195  1  0.76866422  0.63571423  0.08103344  1
  O  O196  1  0.79218923  0.63221091  0.43562982  1
  O  O197  1  0.78358100  0.63032286  0.76266527  1
  O  O198  1  0.12613685  0.28233046  0.26369814  1
  O  O199  1  0.13099936  0.29134307  0.59975021  1
  O  O200  1  0.13243996  0.28196090  0.92700022  1
  O  O201  1  0.14498828  0.77777298  0.24404740  1
  O  O202  1  0.13105133  0.77998247  0.59649874  1
  O  O203  1  0.12464848  0.77863778  0.92861879  1
  O  O204  1  0.63654641  0.26920091  0.23963534  1
  O  O205  1  0.63093582  0.27963528  0.58983382  1
  O  O206  1  0.63570250  0.28015800  0.92431697  1
  O  O207  1  0.62603571  0.78253635  0.25962130  1
  O  O208  1  0.62952232  0.77823001  0.59099510  1
  O  O209  1  0.63429864  0.78014821  0.92545698  1
  O  O210  1  0.21189957  0.36410925  0.23688823  1
  O  O211  1  0.21582343  0.37463969  0.57333861  1
  O  O212  1  0.21861167  0.36738110  0.90638445  1
  O  O213  1  0.22527353  0.87978162  0.23804087  1
  O  O214  1  0.21933177  0.86571244  0.57835957  1
  O  O215  1  0.21621528  0.85823081  0.90610555  1
  O  O216  1  0.71922084  0.36822797  0.23196450  1
  O  O217  1  0.71898613  0.36842474  0.57536930  1
  O  O218  1  0.72785064  0.36923429  0.91565259  1
  O  O219  1  0.71565826  0.86905904  0.24322944  1
  O  O220  1  0.72224998  0.86244508  0.57663063  1
  O  O221  1  0.72174786  0.86861429  0.91009269  1
  O  O222  1  0.41877614  0.13487157  0.15233745  1
  O  O223  1  0.42048155  0.13685264  0.48003856  1
  O  O224  1  0.42107075  0.13164470  0.81335954  1
  O  O225  1  0.41882946  0.63151558  0.15040142  1
  O  O226  1  0.41554422  0.64147241  0.49177330  1
  O  O227  1  0.42193456  0.62723379  0.81840835  1
  O  O228  1  0.91824065  0.13192999  0.15040044  1
  O  O229  1  0.91355843  0.12683919  0.48142692  1
  O  O230  1  0.91713378  0.13427395  0.82212773  1
  O  O231  1  0.90420214  0.63232520  0.15235141  1
  O  O232  1  0.93019583  0.62841710  0.48351403  1
  O  O233  1  0.92200751  0.62734042  0.81417866  1
  O  O234  1  0.36790132  0.09218506  0.01460927  1
  O  O235  1  0.36584989  0.07972825  0.34438053  1
  O  O236  1  0.36810078  0.07284784  0.67912197  1
  O  O237  1  0.36616958  0.58158054  0.01485865  1
  O  O238  1  0.37167822  0.59379054  0.35673098  1
  O  O239  1  0.36885435  0.57459679  0.68441662  1
  O  O240  1  0.87132871  0.07654640  0.01534017  1
  O  O241  1  0.86198938  0.08080840  0.34586328  1
  O  O242  1  0.87230004  0.07762764  0.68637067  1
  O  O243  1  0.86454125  0.58471600  0.01624776  1
  O  O244  1  0.86579876  0.57771949  0.34830588  1
  O  O245  1  0.86439797  0.58308603  0.67902680  1
  O  O246  1  0.07376195  0.36973003  0.18752009  1
  O  O247  1  0.07741530  0.36855147  0.51343816  1
  O  O248  1  0.08013612  0.36815804  0.84930949  1
  O  O249  1  0.08612742  0.86922364  0.17770552  1
  O  O250  1  0.08145028  0.86299993  0.51570455  1
  O  O251  1  0.07880554  0.86223203  0.84785455  1
  O  O252  1  0.58073207  0.36670409  0.17864145  1
  O  O253  1  0.58071312  0.36972315  0.51657448  1
  O  O254  1  0.59029633  0.37058631  0.85158615  1
  O  O255  1  0.57767668  0.86973346  0.18407467  1
  O  O256  1  0.58518728  0.86703050  0.51548198  1
  O  O257  1  0.58263908  0.86886159  0.85163020  1
  O  O258  1  0.13458408  0.42105133  0.32171596  1
  O  O259  1  0.12581174  0.42984864  0.64674720  1
  O  O260  1  0.13238255  0.41958090  0.98421342  1
  O  O261  1  0.13541246  0.91299186  0.31346646  1
  O  O262  1  0.12943283  0.91732617  0.65201734  1
  O  O263  1  0.13383480  0.91748417  0.98386141  1
  O  O264  1  0.63627148  0.40515011  0.31351182  1
  O  O265  1  0.63308507  0.41743551  0.65220529  1
  O  O266  1  0.63615338  0.41777991  0.98708600  1
  O  O267  1  0.62854931  0.92135648  0.31904997  1
  O  O268  1  0.63728893  0.91618318  0.65246780  1
  O  O269  1  0.63567252  0.91797205  0.98714354  1
  O  O270  1  0.03351304  0.20143966  0.10623891  1
  O  O271  1  0.02208857  0.20230226  0.43178901  1
  O  O272  1  0.03128530  0.20439266  0.78014289  1
  O  O273  1  0.02413243  0.69240454  0.09723219  1
  O  O274  1  0.03943098  0.70273226  0.44227051  1
  O  O275  1  0.02888932  0.69811614  0.76927617  1
  O  O276  1  0.52879508  0.19442936  0.09586106  1
  O  O277  1  0.53520159  0.20075907  0.43670620  1
  O  O278  1  0.53838390  0.19761452  0.76992802  1
  O  O279  1  0.52782729  0.69725662  0.10428653  1
  O  O280  1  0.52070979  0.71128635  0.44032072  1
  O  O281  1  0.53762663  0.69060324  0.77311699  1
  O  O282  1  0.29965381  0.46731155  0.05664874  1
  O  O283  1  0.30566299  0.47330815  0.39872213  1
  O  O284  1  0.29131997  0.46573420  0.72549362  1
  O  O285  1  0.30245983  0.97296773  0.07243582  1
  O  O286  1  0.30460338  0.97445412  0.39482693  1
  O  O287  1  0.29160599  0.96882538  0.71969936  1
  O  O288  1  0.79999046  0.47544721  0.06571180  1
  O  O289  1  0.80736025  0.45734946  0.39442900  1
  O  O290  1  0.80087607  0.46952135  0.73146148  1
  O  O291  1  0.79958979  0.96993940  0.06396019  1
  O  O292  1  0.79687791  0.96578341  0.39663040  1
  O  O293  1  0.79825343  0.96841544  0.72999219  1
  O  O294  1  0.48317259  0.29293730  0.22982765  1
  O  O295  1  0.46835014  0.30016694  0.55622219  1
  O  O296  1  0.47057595  0.30444606  0.89825662  1
  O  O297  1  0.46367839  0.80232146  0.23062035  1
  O  O298  1  0.46953515  0.80426641  0.56280002  1
  O  O299  1  0.47323227  0.79560087  0.90409795  1
  O  O300  1  0.96438821  0.29656769  0.22647704  1
  O  O301  1  0.96116658  0.31119736  0.56541464  1
  O  O302  1  0.97072270  0.30464269  0.89943572  1
  O  O303  1  0.97291234  0.81948766  0.23306393  1
  O  O304  1  0.96697066  0.79898179  0.56324028  1
  O  O305  1  0.96398956  0.79657597  0.89601287  1
  O  O306  1  0.20036927  0.03295265  0.26507927  1
  O  O307  1  0.20795706  0.02464939  0.60968547  1
  O  O308  1  0.19124561  0.03387261  0.93502994  1
  O  O309  1  0.20514848  0.52870339  0.27197958  1
  O  O310  1  0.20866972  0.53282878  0.60753156  1
  O  O311  1  0.19692514  0.52852173  0.93775282  1
  O  O312  1  0.70090306  0.02535270  0.26798051  1
  O  O313  1  0.70486319  0.02837188  0.60401620  1
  O  O314  1  0.69997882  0.03164406  0.93592136  1
  O  O315  1  0.69572881  0.53120807  0.26692564  1
  O  O316  1  0.69840838  0.53273899  0.60804531  1
  O  O317  1  0.69702579  0.52831386  0.93504573  1
  O  O318  1  0.09143800  0.09364641  0.04026877  1
  O  O319  1  0.07743262  0.09099948  0.37282928  1
  O  O320  1  0.08304233  0.09118873  0.71318435  1
  O  O321  1  0.08172673  0.58233963  0.03550140  1
  O  O322  1  0.09993529  0.59246811  0.38087618  1
  O  O323  1  0.08322909  0.58591769  0.70558772  1
  O  O324  1  0.58597806  0.08644557  0.02756431  1
  O  O325  1  0.58916818  0.08885213  0.37035019  1
  O  O326  1  0.58644506  0.08538373  0.69990305  1
  O  O327  1  0.57914035  0.58527791  0.03506774  1
  O  O328  1  0.56235697  0.59042360  0.37877241  1
  O  O329  1  0.58268434  0.58082104  0.69640326  1
  O  O330  1  0.41444669  0.41636664  0.12247936  1
  O  O331  1  0.41647525  0.41695405  0.45941480  1
  O  O332  1  0.41207088  0.42813826  0.79277153  1
  O  O333  1  0.41061230  0.91724458  0.14136241  1
  O  O334  1  0.40514421  0.91372062  0.46376938  1
  O  O335  1  0.41269562  0.92954162  0.78672399  1
  O  O336  1  0.91252240  0.42231838  0.13234635  1
  O  O337  1  0.91471350  0.40673585  0.46955792  1
  O  O338  1  0.91339946  0.41701670  0.79906935  1
  O  O339  1  0.90939444  0.91042309  0.12552065  1
  O  O340  1  0.90434638  0.90343066  0.45722707  1
  O  O341  1  0.90928452  0.91157933  0.79128439  1
  O  O342  1  0.44467272  0.41572429  0.29106667  1
  O  O343  1  0.41847483  0.41574187  0.62335248  1
  O  O344  1  0.41733602  0.41450087  0.96498650  1
  O  O345  1  0.40132762  0.90998148  0.29209875  1
  O  O346  1  0.40170039  0.91125511  0.61941902  1
  O  O347  1  0.41166265  0.90384123  0.96031765  1
  O  O348  1  0.90956125  0.40923484  0.28847470  1
  O  O349  1  0.90657694  0.41835214  0.63679800  1
  O  O350  1  0.91912776  0.41742541  0.96614923  1
  O  O351  1  0.91648383  0.92023895  0.30785064  1
  O  O352  1  0.91055058  0.90768568  0.63156989  1
  O  O353  1  0.91294183  0.90811046  0.96667384  1
  O  O354  1  0.08752996  0.08401239  0.19908899  1
  O  O355  1  0.10118551  0.09668610  0.56725386  1
  O  O356  1  0.08227707  0.08689412  0.86498518  1
  O  O357  1  0.08649316  0.57236254  0.20745067  1
  O  O358  1  0.09642579  0.58420267  0.54254305  1
  O  O359  1  0.08279834  0.57821027  0.86988408  1
  O  O360  1  0.59037422  0.08278920  0.20765022  1
  O  O361  1  0.59991189  0.09561322  0.54689337  1
  O  O362  1  0.59233027  0.09071110  0.86852303  1
  O  O363  1  0.58447170  0.58730206  0.20538005  1
  O  O364  1  0.58246694  0.58364301  0.54133123  1
  O  O365  1  0.58665633  0.58512466  0.87060387  1
  O  O366  1  0.14173972  0.22880997  0.06325292  1
  O  O367  1  0.12998304  0.22369710  0.38733584  1
  O  O368  1  0.13681425  0.22314444  0.73181809  1
  O  O369  1  0.13419834  0.71552823  0.05436282  1
  O  O370  1  0.12414324  0.72369873  0.37429770  1
  O  O371  1  0.14194480  0.71918504  0.73048860  1
  O  O372  1  0.64070617  0.22182599  0.05878807  1
  O  O373  1  0.63917648  0.22304016  0.38825927  1
  O  O374  1  0.64407102  0.21828010  0.72300757  1
  O  O375  1  0.63574357  0.72007430  0.06051543  1
  O  O376  1  0.62947250  0.71689817  0.39263913  1
  O  O377  1  0.64230634  0.71491314  0.72543745  1
  O  O378  1  0.28246867  0.36466557  0.10854763  1
  O  O379  1  0.28351963  0.36531179  0.44409506  1
  O  O380  1  0.28483298  0.35755822  0.77289165  1
  O  O381  1  0.27639566  0.86030242  0.10914221  1
  O  O382  1  0.26726249  0.86276252  0.42774247  1
  O  O383  1  0.28492388  0.86405102  0.77016028  1
  O  O384  1  0.77968529  0.36160028  0.10326571  1
  O  O385  1  0.77906710  0.36161875  0.44985000  1
  O  O386  1  0.78004780  0.36098218  0.77611289  1
  O  O387  1  0.77448490  0.86144429  0.10721959  1
  O  O388  1  0.76923940  0.86057060  0.44221025  1
  O  O389  1  0.77619813  0.85884508  0.77291295  1
  O  O390  1  0.37109512  0.29124810  0.27379195  1
  O  O391  1  0.36794991  0.28415405  0.61122116  1
  O  O392  1  0.36202823  0.28048269  0.94229389  1
  O  O393  1  0.35604508  0.77421749  0.27331843  1
  O  O394  1  0.37800340  0.77963935  0.62334657  1
  O  O395  1  0.36206253  0.77009857  0.94281044  1
  O  O396  1  0.85819427  0.27640773  0.27303683  1
  O  O397  1  0.85830090  0.28207661  0.61301940  1
  O  O398  1  0.86251459  0.28353143  0.94392742  1
  O  O399  1  0.86241350  0.78295797  0.26826120  1
  O  O400  1  0.86041032  0.77236164  0.60735466  1
  O  O401  1  0.85808467  0.77411817  0.94226577  1
  O  O402  1  0.22036509  0.14301096  0.22256821  1
  O  O403  1  0.22968333  0.12787150  0.55982161  1
  O  O404  1  0.21731759  0.13949551  0.88929639  1
  O  O405  1  0.21587754  0.63575226  0.22408180  1
  O  O406  1  0.22821818  0.64183590  0.56384126  1
  O  O407  1  0.21542792  0.63592066  0.89151895  1
  O  O408  1  0.72384799  0.13230404  0.22228233  1
  O  O409  1  0.73481989  0.13523639  0.56133097  1
  O  O410  1  0.72879851  0.13872636  0.89355843  1
  O  O411  1  0.71740790  0.63677930  0.21796298  1
  O  O412  1  0.71429295  0.63573046  0.55593593  1
  O  O413  1  0.72120941  0.63763183  0.89283235  1
  O  O414  1  0.49310723  0.33350300  0.03156083  1
  O  O415  1  0.50158332  0.33193539  0.36392650  1
  O  O416  1  0.50144163  0.34249481  0.69221884  1
  O  O417  1  0.48808512  0.82980060  0.03647669  1
  O  O418  1  0.48436441  0.83601861  0.36306604  1
  O  O419  1  0.50395155  0.86112696  0.69699122  1
  O  O420  1  0.99255488  0.33547230  0.03330040  1
  O  O421  1  0.98755438  0.33278080  0.36089132  1
  O  O422  1  0.98930026  0.34010912  0.69942585  1
  O  O423  1  0.99001389  0.82517714  0.02959822  1
  O  O424  1  0.99135284  0.82914843  0.36119258  1
  O  O425  1  0.99081186  0.82923098  0.69668163  1
  O  O426  1  0.16800929  0.01178060  0.13089268  1
  O  O427  1  0.14868404  0.00465600  0.47633857  1
  O  O428  1  0.16269420  0.00819224  0.80169582  1
  O  O429  1  0.16829604  0.50497079  0.13719713  1
  O  O430  1  0.17841983  0.51064942  0.47452371  1
  O  O431  1  0.16353050  0.50420702  0.80314832  1
  O  O432  1  0.66463777  0.00471456  0.13407683  1
  O  O433  1  0.66805185  0.00890783  0.47159870  1
  O  O434  1  0.67099406  0.00959223  0.80302445  1
  O  O435  1  0.65714365  0.50706078  0.13217386  1
  O  O436  1  0.66004407  0.50211960  0.47323931  1
  O  O437  1  0.66569985  0.50840372  0.80205134  1
  O  O438  1  0.00240388  0.16442019  0.29763342  1
  O  O439  1  0.00330554  0.17268961  0.64733892  1
  O  O440  1  0.01203888  0.17364223  0.97406835  1
  O  O441  1  -0.00348283  0.64411197  0.30664605  1
  O  O442  1  0.01270712  0.66695758  0.63669224  1
  O  O443  1  0.00473176  0.65847860  0.96401827  1
  O  O444  1  0.50885034  0.16423615  0.30178404  1
  O  O445  1  0.51150705  0.17044995  0.63674183  1
  O  O446  1  0.51177862  0.17173279  0.96475102  1
  O  O447  1  0.49882870  0.67111224  0.30498121  1
  O  O448  1  0.50915579  0.67130583  0.64083478  1
  O  O449  1  0.50590370  0.66844731  0.97034799  1
  O  O450  1  0.33847243  0.49773058  0.19180333  1
  O  O451  1  0.34211607  0.49488599  0.53260413  1
  O  O452  1  0.32628480  0.48983836  0.86087769  1
  O  O453  1  0.32601945  0.99047381  0.20384335  1
  O  O454  1  0.31880605  0.98841282  0.52367246  1
  O  O455  1  0.32991147  0.99715542  0.85574551  1
  O  O456  1  0.82585731  0.49153419  0.19681063  1
  O  O457  1  0.83603372  0.49352789  0.52891411  1
  O  O458  1  0.83180920  0.49227040  0.86488116  1
  O  O459  1  0.83298736  0.98952959  0.19685416  1
  O  O460  1  0.83338704  0.98789602  0.53020744  1
  O  O461  1  0.83256614  0.98774601  0.86345641  1
