# generated using pymatgen
data_Na31Fe20(SO4)36
_symmetry_space_group_name_H-M   'P 1'
_cell_length_a   18.07743636
_cell_length_b   18.07906285
_cell_length_c   19.70936954
_cell_angle_alpha   107.62540199
_cell_angle_beta   107.60498860
_cell_angle_gamma   90.67048446
_symmetry_Int_Tables_number   1
_chemical_formula_structural   Na31Fe20(SO4)36
_chemical_formula_sum   'Na62 Fe40 S72 O288'
_cell_volume   5813.62060628
_cell_formula_units_Z   2
loop_
 _symmetry_equiv_pos_site_id
 _symmetry_equiv_pos_as_xyz
  1  'x, y, z'
loop_
 _atom_site_type_symbol
 _atom_site_label
 _atom_site_symmetry_multiplicity
 _atom_site_fract_x
 _atom_site_fract_y
 _atom_site_fract_z
 _atom_site_occupancy
  Na  Na0  1  0.13361960  0.36469176  0.08188816  1
  Na  Na1  1  0.14105346  0.36270722  0.42267247  1
  Na  Na2  1  0.13474999  0.36297466  0.74732940  1
  Na  Na3  1  0.14314194  0.85863410  0.07905072  1
  Na  Na4  1  0.13955943  0.86684438  0.42285630  1
  Na  Na5  1  0.12451557  0.85654002  0.74107763  1
  Na  Na6  1  0.63091586  0.36567848  0.08070008  1
  Na  Na7  1  0.63318758  0.36733162  0.41654674  1
  Na  Na8  1  0.62754876  0.37184115  0.74806455  1
  Na  Na9  1  0.62851381  0.85493889  0.07271363  1
  Na  Na10  1  0.64260366  0.86861252  0.42877283  1
  Na  Na11  1  0.64808844  0.86007172  0.74672643  1
  Na  Na12  1  0.36391362  0.12351073  0.24039355  1
  Na  Na13  1  0.36453779  0.13472130  0.58194062  1
  Na  Na14  1  0.35560752  0.12875225  0.91512988  1
  Na  Na15  1  0.36941192  0.62872570  0.24973786  1
  Na  Na16  1  0.36216053  0.64889840  0.59759313  1
  Na  Na17  1  0.35570928  0.63505089  0.89824073  1
  Na  Na18  1  0.86277108  0.13232528  0.24615827  1
  Na  Na19  1  0.87218948  0.12788185  0.58782206  1
  Na  Na20  1  0.87014807  0.13495679  0.91479867  1
  Na  Na21  1  0.86419576  0.63675179  0.25015897  1
  Na  Na22  1  0.88605513  0.65067472  0.60849125  1
  Na  Na23  1  0.86823869  0.63107272  0.91680748  1
  Na  Na24  1  0.99241802  0.55227568  0.43027052  1
  Na  Na25  1  0.48901171  0.50912276  0.08420874  1
  Na  Na26  1  0.49353230  0.51019411  0.40981505  1
  Na  Na27  1  0.50368248  0.01059127  0.38959111  1
  Na  Na28  1  0.98932912  0.50872759  0.08179722  1
  Na  Na29  1  0.49516774  -0.00240574  0.75569372  1
  Na  Na30  1  1.04124529  -0.01885809  0.04771063  1
  Na  Na31  1  0.44725222  0.00318057  0.08464357  1
  Na  Na32  1  0.99352888  -0.00557624  0.44313302  1
  Na  Na33  1  0.00806417  0.99146383  0.24651183  1
  Na  Na34  1  -0.04639008  0.99947097  0.71414737  1
  Na  Na35  1  0.04045791  0.97406356  0.88460407  1
  Na  Na36  1  0.51698519  0.99490278  0.57835920  1
  Na  Na37  1  0.49256689  0.98769129  0.92908172  1
  Na  Na38  1  0.01376518  0.46483779  0.79801229  1
  Na  Na39  1  0.48496267  0.53743360  0.86456255  1
  Na  Na40  1  0.48087672  0.50942944  0.61171645  1
  Na  Na41  1  0.06273845  0.51282447  0.61517528  1
  Na  Na42  1  0.76207496  0.26114567  0.66240455  1
  Na  Na43  1  0.24243229  0.74267974  0.33960616  1
  Na  Na44  1  0.24203000  0.23718638  0.34566424  1
  Na  Na45  1  0.75842280  0.75856243  0.32693653  1
  Na  Na46  1  0.75728497  0.25758166  -0.00713304  1
  Na  Na47  1  0.73373862  0.73700672  0.00460457  1
  Na  Na48  1  0.23691169  0.23366408  0.00681669  1
  Na  Na49  1  0.26293710  0.76273113  -0.01393608  1
  Na  Na50  1  0.75377793  0.25254117  0.32933490  1
  Na  Na51  1  0.25710451  0.25720279  0.65562108  1
  Na  Na52  1  0.76371677  0.26015016  0.82582611  1
  Na  Na53  1  0.77058893  0.76073206  0.81955727  1
  Na  Na54  1  0.75479550  0.25827672  0.16102288  1
  Na  Na55  1  0.24013366  0.23227739  0.17207842  1
  Na  Na56  1  0.24189098  0.24521474  0.83472179  1
  Na  Na57  1  0.25904388  0.75536236  0.16386392  1
  Na  Na58  1  0.25354508  0.75985408  0.81687461  1
  Na  Na59  1  0.75820035  0.75790337  0.52214602  1
  Na  Na60  1  0.23039713  0.73870107  0.51967203  1
  Na  Na61  1  0.76046134  0.25716848  0.49847783  1
  Fe  Fe62  1  0.96528203  0.31212162  0.45566603  1
  Fe  Fe63  1  0.46531584  0.31294900  0.12209393  1
  Fe  Fe64  1  0.46210106  0.80469007  0.45197165  1
  Fe  Fe65  1  0.96501107  0.31173868  0.12342964  1
  Fe  Fe66  1  0.47242182  0.80023550  0.78913782  1
  Fe  Fe67  1  0.46810175  0.80373275  0.11816491  1
  Fe  Fe68  1  0.46358611  0.30966831  0.45310405  1
  Fe  Fe69  1  0.96786361  0.80604122  0.46169589  1
  Fe  Fe70  1  0.46496376  0.30729866  0.78675124  1
  Fe  Fe71  1  0.96252822  0.80520846  0.11796845  1
  Fe  Fe72  1  0.69364390  0.03529120  0.04613165  1
  Fe  Fe73  1  0.69718025  0.03095638  0.38020131  1
  Fe  Fe74  1  0.69042067  0.53797657  0.38241186  1
  Fe  Fe75  1  0.69849012  0.03191476  0.71248845  1
  Fe  Fe76  1  0.68652729  0.53682665  0.04591956  1
  Fe  Fe77  1  0.18792247  0.53552877  0.04714206  1
  Fe  Fe78  1  0.18869115  0.03408636  0.71021263  1
  Fe  Fe79  1  0.19332011  0.03777109  0.38399008  1
  Fe  Fe80  1  0.18750859  0.53266063  0.37894423  1
  Fe  Fe81  1  0.69232808  0.53863581  0.71829926  1
  Fe  Fe82  1  0.53481048  0.19622425  0.54849873  1
  Fe  Fe83  1  0.02754320  0.19954436  0.87044232  1
  Fe  Fe84  1  0.03198010  0.69369891  0.87610988  1
  Fe  Fe85  1  0.03515111  0.18861293  0.20974966  1
  Fe  Fe86  1  0.53344968  0.19361657  0.88161554  1
  Fe  Fe87  1  0.53465502  0.69304177  0.55007619  1
  Fe  Fe88  1  0.03298936  0.69348840  0.21318572  1
  Fe  Fe89  1  0.53833346  0.69276400  0.21674726  1
  Fe  Fe90  1  0.53653440  0.19214339  0.21310212  1
  Fe  Fe91  1  0.03479057  0.19539985  0.54623453  1
  Fe  Fe92  1  0.80603026  0.46411715  0.95115235  1
  Fe  Fe93  1  0.30281621  0.46767273  0.62420516  1
  Fe  Fe94  1  0.30912859  0.96145511  0.61943972  1
  Fe  Fe95  1  0.30078158  0.46684534  0.95008307  1
  Fe  Fe96  1  0.30647080  0.96322332  0.28725583  1
  Fe  Fe97  1  0.80662354  0.46831252  0.28883197  1
  Fe  Fe98  1  0.81430611  0.96721030  0.95252147  1
  Fe  Fe99  1  0.80736822  0.96112115  0.28201069  1
  Fe  Fe100  1  0.30482558  0.46237113  0.28483563  1
  Fe  Fe101  1  0.80715933  0.46793916  0.62254123  1
  S  S102  1  0.36347072  0.14591972  0.08364984  1
  S  S103  1  0.36340731  0.13983351  0.41584281  1
  S  S104  1  0.36159801  0.13740586  0.74856076  1
  S  S105  1  0.36057793  0.63745249  0.08563438  1
  S  S106  1  0.35761511  0.63790435  0.41600393  1
  S  S107  1  0.36831936  0.63754754  0.74903442  1
  S  S108  1  0.85833472  0.14348081  0.08571749  1
  S  S109  1  0.86024885  0.13814350  0.41405565  1
  S  S110  1  0.85324265  0.14406427  0.75011640  1
  S  S111  1  0.85807534  0.63876767  0.08350606  1
  S  S112  1  0.85409438  0.64342588  0.41645930  1
  S  S113  1  0.86064603  0.63784611  0.75485306  1
  S  S114  1  0.14198989  0.35549327  0.24942869  1
  S  S115  1  0.14231584  0.35680094  0.58158943  1
  S  S116  1  0.13896707  0.36179372  0.91655095  1
  S  S117  1  0.13954676  0.85940581  0.25184205  1
  S  S118  1  0.14150464  0.86161892  0.57854012  1
  S  S119  1  0.13858262  0.85139229  0.91961226  1
  S  S120  1  0.64031088  0.36035852  0.25107909  1
  S  S121  1  0.63693728  0.36329686  0.58389100  1
  S  S122  1  0.63945975  0.35800325  0.91790896  1
  S  S123  1  0.64087693  0.85908170  0.25109936  1
  S  S124  1  0.63314427  0.86373399  0.58227525  1
  S  S125  1  0.64397287  0.86439001  0.91493882  1
  S  S126  1  0.06296219  0.17463991  0.04184166  1
  S  S127  1  0.06460376  0.16781964  0.37234422  1
  S  S128  1  0.06727486  0.16973975  0.70470429  1
  S  S129  1  0.06661105  0.67044193  0.04590818  1
  S  S130  1  0.06617044  0.67370543  0.37553334  1
  S  S131  1  0.07413547  0.66384078  0.72134786  1
  S  S132  1  0.56892466  0.17102073  0.04265191  1
  S  S133  1  0.57342215  0.17400909  0.37839041  1
  S  S134  1  0.56940572  0.16896655  0.71017098  1
  S  S135  1  0.55791142  0.66182198  0.04073293  1
  S  S136  1  0.56698961  0.67154026  0.37995521  1
  S  S137  1  0.57277874  0.67317261  0.70931896  1
  S  S138  1  0.32829034  0.43201673  0.12320552  1
  S  S139  1  0.33222668  0.43313151  0.45748806  1
  S  S140  1  0.32990785  0.42734813  0.79021639  1
  S  S141  1  0.33492643  0.92700829  0.12933909  1
  S  S142  1  0.33205755  0.93330068  0.45670384  1
  S  S143  1  0.34082445  0.93257295  0.79224308  1
  S  S144  1  0.82676550  0.43380732  0.12442295  1
  S  S145  1  0.82708011  0.43475838  0.45722420  1
  S  S146  1  0.82161292  0.42993265  0.78684892  1
  S  S147  1  0.82891469  0.93179188  0.12147935  1
  S  S148  1  0.83010045  0.93286120  0.45349060  1
  S  S149  1  0.83467802  0.94239897  0.79616063  1
  S  S150  1  0.43172312  0.32868660  0.29052899  1
  S  S151  1  0.42869822  0.32794999  0.62328617  1
  S  S152  1  0.42959382  0.32964731  0.95660287  1
  S  S153  1  0.43328434  0.82579117  0.29246451  1
  S  S154  1  0.43222177  0.83042208  0.62379582  1
  S  S155  1  0.43574709  0.82907508  0.95499907  1
  S  S156  1  0.93077113  0.32948387  0.29117803  1
  S  S157  1  0.93289326  0.32979986  0.62127208  1
  S  S158  1  0.93318643  0.33217541  0.96201748  1
  S  S159  1  0.93519601  0.83162142  0.29336297  1
  S  S160  1  0.93218504  0.83679817  0.61824616  1
  S  S161  1  0.93279032  0.82731696  0.96026180  1
  S  S162  1  0.16882623  0.06102305  0.21054741  1
  S  S163  1  0.17300408  0.07012250  0.54273024  1
  S  S164  1  0.16175244  0.07301079  0.86864257  1
  S  S165  1  0.16892509  0.56586407  0.21008242  1
  S  S166  1  0.17333689  0.55964612  0.53792027  1
  S  S167  1  0.16836649  0.56768769  0.88081760  1
  S  S168  1  0.66915178  0.06632323  0.20746910  1
  S  S169  1  0.66270781  0.07150480  0.54052412  1
  S  S170  1  0.66913357  0.07179029  0.87519197  1
  S  S171  1  0.66949486  0.56523963  0.21044321  1
  S  S172  1  0.66719055  0.56857051  0.54058050  1
  S  S173  1  0.67609990  0.56730341  0.88262035  1
  O  O174  1  0.37642137  0.22620620  0.07662016  1
  O  O175  1  0.37372307  0.21740129  0.40506161  1
  O  O176  1  0.37055279  0.21581613  0.73919457  1
  O  O177  1  0.36819531  0.71615530  0.07720630  1
  O  O178  1  0.36771681  0.71582625  0.40554209  1
  O  O179  1  0.38489926  0.71304055  0.73409864  1
  O  O180  1  0.86368105  0.22488865  0.08212009  1
  O  O181  1  0.86812233  0.21867418  0.40872331  1
  O  O182  1  0.85542438  0.22398188  0.74722754  1
  O  O183  1  0.86711011  0.71757752  0.07539869  1
  O  O184  1  0.86846502  0.72208613  0.40808926  1
  O  O185  1  0.86649684  0.71400093  0.74636426  1
  O  O186  1  0.28624314  0.13988171  0.09207162  1
  O  O187  1  0.28276703  0.13117750  0.41874879  1
  O  O188  1  0.28342938  0.12791980  0.75723993  1
  O  O189  1  0.28456434  0.62917639  0.09973842  1
  O  O190  1  0.27671164  0.62996657  0.41914472  1
  O  O191  1  0.29186332  0.63678612  0.75926961  1
  O  O192  1  0.78047013  0.13123440  0.09596344  1
  O  O193  1  0.78266000  0.12950227  0.42562711  1
  O  O194  1  0.77550666  0.12825005  0.76224255  1
  O  O195  1  0.77851949  0.62799485  0.08807005  1
  O  O196  1  0.77094718  0.63690566  0.41538098  1
  O  O197  1  0.78447376  0.62518397  0.76898517  1
  O  O198  1  0.13256036  0.27372184  0.25265240  1
  O  O199  1  0.13332508  0.27468002  0.58343309  1
  O  O200  1  0.12991167  0.28178507  0.92343242  1
  O  O201  1  0.13031308  0.78026181  0.25952743  1
  O  O202  1  0.13795096  0.78300102  0.58211831  1
  O  O203  1  0.12216780  0.77215199  0.93303524  1
  O  O204  1  0.63109513  0.28123816  0.25968646  1
  O  O205  1  0.62854999  0.28626372  0.59662296  1
  O  O206  1  0.62738200  0.28046952  0.92881589  1
  O  O207  1  0.63128690  0.78149919  0.26281634  1
  O  O208  1  0.62123513  0.78658606  0.59223039  1
  O  O209  1  0.64100044  0.79092026  0.93009548  1
  O  O210  1  0.22128577  0.36445726  0.24129487  1
  O  O211  1  0.22166651  0.36724059  0.57435940  1
  O  O212  1  0.22085501  0.36990077  0.91192484  1
  O  O213  1  0.21822943  0.86677531  0.24285137  1
  O  O214  1  0.21604772  0.87743276  0.56148688  1
  O  O215  1  0.22048643  0.85270053  0.92228589  1
  O  O216  1  0.72042543  0.36801435  0.24448697  1
  O  O217  1  0.71664848  0.37033129  0.57638587  1
  O  O218  1  0.72016468  0.36249208  0.91268303  1
  O  O219  1  0.72051747  0.86724295  0.24533337  1
  O  O220  1  0.70594601  0.87221728  0.56726098  1
  O  O221  1  0.72116033  0.87986176  0.90472778  1
  O  O222  1  0.42333557  0.13896095  0.15436095  1
  O  O223  1  0.41971387  0.13523081  0.48691119  1
  O  O224  1  0.42187150  0.13067020  0.81677886  1
  O  O225  1  0.42319064  0.62853767  0.15184888  1
  O  O226  1  0.41469492  0.63159488  0.48569660  1
  O  O227  1  0.42909667  0.62828325  0.81351535  1
  O  O228  1  0.91870444  0.13443131  0.15228297  1
  O  O229  1  0.92205000  0.12669289  0.47858988  1
  O  O230  1  0.91484118  0.13692468  0.81802595  1
  O  O231  1  0.91655189  0.63190494  0.15290464  1
  O  O232  1  0.90723857  0.63198537  0.48353188  1
  O  O233  1  0.92266988  0.62846052  0.82280574  1
  O  O234  1  0.37504677  0.08711818  0.01909058  1
  O  O235  1  0.37685375  0.07860100  0.35143185  1
  O  O236  1  0.37085999  0.07765790  0.68113925  1
  O  O237  1  0.36590525  0.57734146  0.01703082  1
  O  O238  1  0.36920195  0.57720109  0.34990114  1
  O  O239  1  0.37031891  0.57414853  0.67784682  1
  O  O240  1  0.86511059  0.08824395  0.01595478  1
  O  O241  1  0.86394275  0.08121267  0.34313399  1
  O  O242  1  0.86046593  0.08669675  0.68257540  1
  O  O243  1  0.87157957  0.57921303  0.01803828  1
  O  O244  1  0.86431981  0.58382141  0.34788872  1
  O  O245  1  0.86603476  0.57564140  0.68693141  1
  O  O246  1  0.08346836  0.36635377  0.18316654  1
  O  O247  1  0.08314257  0.36575442  0.51307366  1
  O  O248  1  0.08311077  0.37099812  0.84981119  1
  O  O249  1  0.07946239  0.86895319  0.18517152  1
  O  O250  1  0.07720511  0.87323684  0.51349738  1
  O  O251  1  0.08612787  0.85489190  0.84794139  1
  O  O252  1  0.58295158  0.36621794  0.18130783  1
  O  O253  1  0.57930037  0.36633017  0.51301495  1
  O  O254  1  0.58318753  0.36340312  0.84756228  1
  O  O255  1  0.58369530  0.86350091  0.18100955  1
  O  O256  1  0.56750625  0.87494882  0.51815388  1
  O  O257  1  0.58294666  0.86724608  0.84442274  1
  O  O258  1  0.13646353  0.41079225  0.31968266  1
  O  O259  1  0.13272089  0.41162840  0.64909348  1
  O  O260  1  0.13296923  0.41878071  0.98707510  1
  O  O261  1  0.13310471  0.91869179  0.32072053  1
  O  O262  1  0.13965298  0.91969093  0.64952524  1
  O  O263  1  0.12355521  0.91177311  0.98272343  1
  O  O264  1  0.63173499  0.41929885  0.31826942  1
  O  O265  1  0.62570969  0.42502000  0.64823845  1
  O  O266  1  0.63080875  0.41862555  0.98431323  1
  O  O267  1  0.63072543  0.91971924  0.31793332  1
  O  O268  1  0.62778768  0.92512500  0.65217511  1
  O  O269  1  0.63105840  0.92825413  0.97918884  1
  O  O270  1  0.02295378  0.20667837  0.10168175  1
  O  O271  1  0.02893219  0.19928845  0.43315283  1
  O  O272  1  0.03095880  0.19727340  0.76385947  1
  O  O273  1  0.02680471  0.70158341  0.10517402  1
  O  O274  1  0.02585073  0.70411284  0.43184238  1
  O  O275  1  0.03141093  0.69289049  0.77945044  1
  O  O276  1  0.53653671  0.20290567  0.10587391  1
  O  O277  1  0.53565735  0.20263534  0.43868328  1
  O  O278  1  0.53225841  0.19951282  0.77061435  1
  O  O279  1  0.53104394  0.70046724  0.10878089  1
  O  O280  1  0.52646612  0.69980438  0.43862054  1
  O  O281  1  0.54218745  0.70785364  0.77146308  1
  O  O282  1  0.29617719  0.46922624  0.06357247  1
  O  O283  1  0.30164857  0.47097152  0.39754444  1
  O  O284  1  0.30720278  0.45921118  0.72748060  1
  O  O285  1  0.31665570  0.96417298  0.07196043  1
  O  O286  1  0.30139758  0.97201713  0.39732143  1
  O  O287  1  0.30939699  0.96231293  0.72574120  1
  O  O288  1  0.79558207  0.46963516  0.06345627  1
  O  O289  1  0.79556359  0.47200127  0.39632172  1
  O  O290  1  0.78661645  0.46671839  0.72592549  1
  O  O291  1  0.80375996  0.97133074  0.06234966  1
  O  O292  1  0.80128374  0.96590053  0.38737032  1
  O  O293  1  0.79163105  0.97128680  0.73299818  1
  O  O294  1  0.47083732  0.30326071  0.23139032  1
  O  O295  1  0.46665644  0.30008366  0.56250028  1
  O  O296  1  0.46751670  0.30065356  0.89620428  1
  O  O297  1  0.46919518  0.79700807  0.23139573  1
  O  O298  1  0.46295749  0.79540281  0.55941113  1
  O  O299  1  0.47273537  0.80525704  0.89471108  1
  O  O300  1  0.96947349  0.30156229  0.23158621  1
  O  O301  1  0.96673869  0.29675461  0.55668794  1
  O  O302  1  0.96940254  0.30443358  0.90335325  1
  O  O303  1  0.96998956  0.80055686  0.23083559  1
  O  O304  1  0.96949408  0.79988776  0.55705469  1
  O  O305  1  0.96588758  0.79054184  0.89995909  1
  O  O306  1  0.20056576  0.02954598  0.27600929  1
  O  O307  1  0.20209498  0.03572052  0.60469301  1
  O  O308  1  0.17526817  0.04115084  0.92987048  1
  O  O309  1  0.19608602  0.52706378  0.26989377  1
  O  O310  1  0.20511522  0.52283367  0.59763749  1
  O  O311  1  0.20127897  0.53900212  0.94893046  1
  O  O312  1  0.69897606  0.02984850  0.26839657  1
  O  O313  1  0.68155294  0.04055438  0.60395858  1
  O  O314  1  0.70147263  0.03976492  0.93836413  1
  O  O315  1  0.69736143  0.52663997  0.27032432  1
  O  O316  1  0.69869939  0.53480251  0.60305576  1
  O  O317  1  0.70612966  0.52294061  0.93948469  1
  O  O318  1  0.07726994  0.09467722  0.03831076  1
  O  O319  1  0.08241446  0.08574884  0.36890498  1
  O  O320  1  0.08501678  0.08747954  0.69416865  1
  O  O321  1  0.07994196  0.58836345  0.04282218  1
  O  O322  1  0.08543554  0.59340848  0.37546222  1
  O  O323  1  0.11152102  0.59531401  0.73350176  1
  O  O324  1  0.58616208  0.08909395  0.03671765  1
  O  O325  1  0.59445095  0.09381234  0.37470475  1
  O  O326  1  0.58692972  0.08705925  0.70621348  1
  O  O327  1  0.58171947  0.58351552  0.04735649  1
  O  O328  1  0.58381261  0.59000960  0.37657561  1
  O  O329  1  0.58907715  0.59092896  0.70594264  1
  O  O330  1  0.41030760  0.41739057  0.12628931  1
  O  O331  1  0.41588742  0.41963800  0.46329846  1
  O  O332  1  0.41372622  0.41017234  0.80426677  1
  O  O333  1  0.41760986  0.90561267  0.14326121  1
  O  O334  1  0.41401252  0.91695596  0.46121157  1
  O  O335  1  0.42076099  0.90527652  0.79092636  1
  O  O336  1  0.90757752  0.41554998  0.12749310  1
  O  O337  1  0.90746747  0.41622741  0.45929356  1
  O  O338  1  0.89651227  0.40574394  0.78236891  1
  O  O339  1  0.91080607  0.91243172  0.12972096  1
  O  O340  1  0.90766011  0.90371898  0.45106749  1
  O  O341  1  0.91617711  0.93914609  0.79825851  1
  O  O342  1  0.41075571  0.40973138  0.29717298  1
  O  O343  1  0.40619517  0.40747592  0.62529726  1
  O  O344  1  0.40898015  0.41030076  0.96211354  1
  O  O345  1  0.41249397  0.90659817  0.29921007  1
  O  O346  1  0.42269568  0.91491937  0.62987888  1
  O  O347  1  0.42342128  0.91205187  0.97002451  1
  O  O348  1  0.90996458  0.40970981  0.29665531  1
  O  O349  1  0.90224771  0.40415571  0.61438263  1
  O  O350  1  0.90970759  0.41275872  0.96678599  1
  O  O351  1  0.92085351  0.91497605  0.29832042  1
  O  O352  1  0.89313319  0.90293172  0.60194749  1
  O  O353  1  0.91778505  0.90944461  0.96158460  1
  O  O354  1  0.08805486  0.08261649  0.20907397  1
  O  O355  1  0.09189114  0.08997053  0.53569400  1
  O  O356  1  0.07841976  0.09270795  0.84705381  1
  O  O357  1  0.08780254  0.58556671  0.20266291  1
  O  O358  1  0.09346984  0.57553936  0.53550052  1
  O  O359  1  0.09023008  0.59558752  0.88311525  1
  O  O360  1  0.58776327  0.08463054  0.20089046  1
  O  O361  1  0.57685442  0.08573146  0.52256612  1
  O  O362  1  0.58558217  0.08586068  0.86924381  1
  O  O363  1  0.58809907  0.58424495  0.20513565  1
  O  O364  1  0.58390549  0.58389221  0.53466556  1
  O  O365  1  0.60249224  0.59364526  0.88907437  1
  O  O366  1  0.13639820  0.22720328  0.06438593  1
  O  O367  1  0.13500818  0.21840082  0.38519400  1
  O  O368  1  0.13956832  0.22163698  0.72100735  1
  O  O369  1  0.14055883  0.71981286  0.06722563  1
  O  O370  1  0.13857824  0.72534575  0.39265865  1
  O  O371  1  0.13140298  0.72830405  0.73167907  1
  O  O372  1  0.64018893  0.22186898  0.05587802  1
  O  O373  1  0.64378281  0.22794219  0.39509582  1
  O  O374  1  0.63936071  0.22124343  0.72475544  1
  O  O375  1  0.62514783  0.71167274  0.04578275  1
  O  O376  1  0.63789151  0.72453623  0.39944904  1
  O  O377  1  0.64323137  0.72010289  0.71594766  1
  O  O378  1  0.27862861  0.35955259  0.10795446  1
  O  O379  1  0.28337899  0.35975916  0.43888237  1
  O  O380  1  0.27835368  0.35582170  0.77475162  1
  O  O381  1  0.28068975  0.85563145  0.11155470  1
  O  O382  1  0.28100537  0.86129756  0.43833787  1
  O  O383  1  0.28683996  0.86815280  0.78520592  1
  O  O384  1  0.77456594  0.36187658  0.10807513  1
  O  O385  1  0.77471831  0.36209174  0.43864492  1
  O  O386  1  0.76426462  0.36285435  0.77368766  1
  O  O387  1  0.77429481  0.86292803  0.10363756  1
  O  O388  1  0.77357323  0.86558482  0.43853175  1
  O  O389  1  0.79288845  0.86808493  0.78752539  1
  O  O390  1  0.36286652  0.27347286  0.27356319  1
  O  O391  1  0.36146587  0.27266558  0.60857023  1
  O  O392  1  0.36076179  0.27478211  0.94015558  1
  O  O393  1  0.36300021  0.77217050  0.27679700  1
  O  O394  1  0.35748365  0.78651108  0.60977117  1
  O  O395  1  0.36300260  0.77650742  0.93349136  1
  O  O396  1  0.86004522  0.27450772  0.27235242  1
  O  O397  1  0.86688050  0.27164414  0.60857529  1
  O  O398  1  0.86318149  0.27831097  0.94831246  1
  O  O399  1  0.86373993  0.78206736  0.27840736  1
  O  O400  1  0.87512123  0.77468277  0.61356149  1
  O  O401  1  0.86032891  0.78093459  0.95080668  1
  O  O402  1  0.22147630  0.13196917  0.22565027  1
  O  O403  1  0.22694370  0.13794129  0.55543827  1
  O  O404  1  0.21728182  0.14439915  0.88781687  1
  O  O405  1  0.22346738  0.63611293  0.22898092  1
  O  O406  1  0.22551512  0.62890345  0.55032553  1
  O  O407  1  0.22405576  0.63256853  0.88996234  1
  O  O408  1  0.72158670  0.13833213  0.22493430  1
  O  O409  1  0.71309614  0.14366384  0.55661483  1
  O  O410  1  0.71691794  0.14468428  0.88870773  1
  O  O411  1  0.72284347  0.63520259  0.22777952  1
  O  O412  1  0.71603137  0.63848799  0.55075211  1
  O  O413  1  0.73564814  0.63288310  0.90050026  1
  O  O414  1  0.49045594  0.33415650  0.02956672  1
  O  O415  1  0.49155294  0.33264961  0.36377839  1
  O  O416  1  0.48991281  0.33309819  0.69606921  1
  O  O417  1  0.49221418  0.82045923  0.02570525  1
  O  O418  1  0.49353815  0.82906657  0.36487864  1
  O  O419  1  0.49273034  0.82868249  0.69412800  1
  O  O420  1  0.99182647  0.34073119  0.03775895  1
  O  O421  1  0.98909548  0.32999868  0.36345254  1
  O  O422  1  0.99572162  0.34384404  0.69198272  1
  O  O423  1  0.99357225  0.83577449  0.03535967  1
  O  O424  1  0.99542287  0.83397097  0.36569009  1
  O  O425  1  0.99603632  0.86309814  0.69017030  1
  O  O426  1  0.16306505  -0.00064131  0.14092441  1
  O  O427  1  0.16866332  0.00783805  0.47009463  1
  O  O428  1  0.17104415  0.01286918  0.80021071  1
  O  O429  1  0.16767719  0.50705840  0.13754647  1
  O  O430  1  0.16915905  0.49969606  0.46312330  1
  O  O431  1  0.15565290  0.49902454  0.81474510  1
  O  O432  1  0.66950395  0.00781340  0.13552333  1
  O  O433  1  0.66768333  0.01033074  0.47131625  1
  O  O434  1  0.66674556  0.01150789  0.80287812  1
  O  O435  1  0.66671734  0.50572551  0.13754440  1
  O  O436  1  0.66225524  0.50573851  0.46787061  1
  O  O437  1  0.66648995  0.50950079  0.80688636  1
  O  O438  1  0.00438189  0.16238523  0.29879038  1
  O  O439  1  0.00855071  0.17134965  0.63234954  1
  O  O440  1  0.00930573  0.17757273  0.96876677  1
  O  O441  1  0.01014172  0.66762117  0.29987129  1
  O  O442  1  0.01347752  0.64098114  0.64685924  1
  O  O443  1  0.01099171  0.67241458  0.97346404  1
  O  O444  1  0.51417710  0.17091052  0.30589383  1
  O  O445  1  0.50964878  0.16457577  0.63661920  1
  O  O446  1  0.50769333  0.16877456  0.97115384  1
  O  O447  1  0.51005315  0.66880707  0.30610788  1
  O  O448  1  0.50868467  0.66416147  0.63549646  1
  O  O449  1  0.49097628  0.64709199  0.97255269  1
  O  O450  1  0.33028285  0.48974954  0.19691238  1
  O  O451  1  0.33436125  0.48963459  0.53149695  1
  O  O452  1  0.32766302  0.48916746  0.86013131  1
  O  O453  1  0.33285704  0.98546340  0.20251103  1
  O  O454  1  0.33435935  0.99103525  0.53006141  1
  O  O455  1  0.35726918  0.99907792  0.86151450  1
  O  O456  1  0.82911625  0.49190251  0.19732682  1
  O  O457  1  0.82732007  0.49236010  0.52888840  1
  O  O458  1  0.82917105  0.48969951  0.86111265  1
  O  O459  1  0.83228574  0.99121946  0.19513662  1
  O  O460  1  0.83820297  0.99751404  0.52066755  1
  O  O461  1  0.83337085  1.00205489  0.86927490  1
