# generated using pymatgen
data_Na31Fe20(SO4)36
_symmetry_space_group_name_H-M   'P 1'
_cell_length_a   18.07288487
_cell_length_b   18.07285624
_cell_length_c   19.70954051
_cell_angle_alpha   107.58656690
_cell_angle_beta   107.55477691
_cell_angle_gamma   90.68394254
_symmetry_Int_Tables_number   1
_chemical_formula_structural   Na31Fe20(SO4)36
_chemical_formula_sum   'Na62 Fe40 S72 O288'
_cell_volume   5813.26974376
_cell_formula_units_Z   2
loop_
 _symmetry_equiv_pos_site_id
 _symmetry_equiv_pos_as_xyz
  1  'x, y, z'
loop_
 _atom_site_type_symbol
 _atom_site_label
 _atom_site_symmetry_multiplicity
 _atom_site_fract_x
 _atom_site_fract_y
 _atom_site_fract_z
 _atom_site_occupancy
  Na  Na0  1  0.14636702  0.32668404  0.05837129  1
  Na  Na1  1  0.13193416  0.36353657  0.40790213  1
  Na  Na2  1  0.13635501  0.36893409  0.75522305  1
  Na  Na3  1  0.13428752  0.86968821  0.09043381  1
  Na  Na4  1  0.12308227  0.85726762  0.40949458  1
  Na  Na5  1  0.13349121  0.86753496  0.75564505  1
  Na  Na6  1  0.66266740  0.37580225  0.10001486  1
  Na  Na7  1  0.64243904  0.35849436  0.40622993  1
  Na  Na8  1  0.63199749  0.36633023  0.74816061  1
  Na  Na9  1  0.63399426  0.86776696  0.08881602  1
  Na  Na10  1  0.64990791  0.87077868  0.42666883  1
  Na  Na11  1  0.62836009  0.86973532  0.74613129  1
  Na  Na12  1  0.37099903  0.12926187  0.25921475  1
  Na  Na13  1  0.36753914  0.12439368  0.57942774  1
  Na  Na14  1  0.36044214  0.14443388  0.92729534  1
  Na  Na15  1  0.36353029  0.63494973  0.24970412  1
  Na  Na16  1  0.36713689  0.62693072  0.57642742  1
  Na  Na17  1  0.36825860  0.63631889  0.91891165  1
  Na  Na18  1  0.86634781  0.13856610  0.25526787  1
  Na  Na19  1  0.86045040  0.12630498  0.56658662  1
  Na  Na20  1  0.86539004  0.13435905  0.91321609  1
  Na  Na21  1  0.86050737  0.62894994  0.25338521  1
  Na  Na22  1  0.86357829  0.63920399  0.57937474  1
  Na  Na23  1  0.87305703  0.64329800  0.92544431  1
  Na  Na24  1  0.95287774  0.50532942  0.40617263  1
  Na  Na25  1  0.99669740  0.50954816  0.07159175  1
  Na  Na26  1  0.48664779  0.00906307  0.10523726  1
  Na  Na27  1  0.98431813  -0.00359226  0.40269823  1
  Na  Na28  1  0.99009571  0.00618497  0.09917387  1
  Na  Na29  1  0.51794816  0.49042096  0.08166647  1
  Na  Na30  1  0.49480903  0.50917660  0.73509013  1
  Na  Na31  1  0.98222152  0.53044290  0.81737728  1
  Na  Na32  1  0.99225765  0.04696116  0.75782794  1
  Na  Na33  1  0.51014552  0.49540480  0.26016775  1
  Na  Na34  1  0.54527107  0.49299535  0.92344891  1
  Na  Na35  1  0.00042545  0.49305779  0.24917301  1
  Na  Na36  1  0.50917880  1.00117395  0.90904824  1
  Na  Na37  1  0.52766321  0.98773768  0.36483187  1
  Na  Na38  1  0.00328890  0.48997843  0.59082761  1
  Na  Na39  1  0.00423706  0.94074928  0.56708619  1
  Na  Na40  1  0.01099598  0.99241921  0.91592495  1
  Na  Na41  1  0.51883413  0.45712210  0.47124574  1
  Na  Na42  1  0.23450365  0.74349411  0.00254952  1
  Na  Na43  1  0.25006415  0.24872203  0.66796647  1
  Na  Na44  1  0.25540673  0.76451619  0.32780645  1
  Na  Na45  1  0.24824903  0.74874590  0.66702826  1
  Na  Na46  1  0.26795907  0.25987266  0.32289121  1
  Na  Na47  1  0.75251235  0.74740926  0.34485088  1
  Na  Na48  1  0.74119720  0.73820295  0.00607971  1
  Na  Na49  1  0.75557305  0.25571411  0.00268340  1
  Na  Na50  1  0.75197978  0.24927751  0.65582539  1
  Na  Na51  1  0.76080021  0.76141710  0.65526685  1
  Na  Na52  1  0.25738802  0.76543733  0.16620979  1
  Na  Na53  1  0.75498497  0.75580170  0.82878547  1
  Na  Na54  1  0.24982411  0.75149670  0.49739983  1
  Na  Na55  1  0.75349216  0.25396046  0.82895843  1
  Na  Na56  1  0.75038173  0.24601747  0.48854369  1
  Na  Na57  1  0.22906227  0.24044141  0.85254257  1
  Na  Na58  1  0.26719655  0.25766658  0.49063967  1
  Na  Na59  1  0.23896640  0.74502786  0.84025866  1
  Na  Na60  1  0.74630103  0.25059263  0.18292978  1
  Na  Na61  1  0.73903584  0.73684286  0.17364104  1
  Fe  Fe62  1  0.96141534  0.80980252  0.12128562  1
  Fe  Fe63  1  0.96951629  0.80238451  0.79208666  1
  Fe  Fe64  1  0.46284022  0.30991491  0.78558291  1
  Fe  Fe65  1  0.46128562  0.80923743  0.12134914  1
  Fe  Fe66  1  0.97179023  0.30201367  0.11493776  1
  Fe  Fe67  1  0.96957491  0.30410328  0.44900817  1
  Fe  Fe68  1  0.96845176  0.30100501  0.78893397  1
  Fe  Fe69  1  0.46414982  0.80653073  0.78387682  1
  Fe  Fe70  1  0.46744186  0.80684901  0.45352650  1
  Fe  Fe71  1  0.46004959  0.31043527  0.11851698  1
  Fe  Fe72  1  0.68199453  0.03807849  0.70586160  1
  Fe  Fe73  1  0.18909509  0.53718773  0.04465413  1
  Fe  Fe74  1  0.19549235  0.03803836  0.05521282  1
  Fe  Fe75  1  0.19289015  0.03360102  0.71672568  1
  Fe  Fe76  1  0.19183052  0.53356227  0.37775696  1
  Fe  Fe77  1  0.69045613  0.53342222  0.70880540  1
  Fe  Fe78  1  0.70334151  0.53325241  0.38043847  1
  Fe  Fe79  1  0.69137590  0.03799286  0.05049832  1
  Fe  Fe80  1  0.19157502  0.53716726  0.71331653  1
  Fe  Fe81  1  0.20023114  0.02754002  0.37969460  1
  Fe  Fe82  1  0.53491504  0.20168685  0.22307461  1
  Fe  Fe83  1  0.04070133  0.18795149  0.54413425  1
  Fe  Fe84  1  0.02883296  0.69573176  0.21563283  1
  Fe  Fe85  1  0.02693841  0.70051804  0.54237330  1
  Fe  Fe86  1  0.04226930  0.19153724  0.21651362  1
  Fe  Fe87  1  0.52840938  0.19879053  0.53943919  1
  Fe  Fe88  1  0.53404295  0.69334926  0.88048482  1
  Fe  Fe89  1  0.53369811  0.69085039  0.21516484  1
  Fe  Fe90  1  0.53188148  0.19133220  0.87503686  1
  Fe  Fe91  1  0.53942877  0.68889879  0.54492158  1
  Fe  Fe92  1  0.79448898  0.96927790  0.28774738  1
  Fe  Fe93  1  0.80350237  0.96651904  0.95245804  1
  Fe  Fe94  1  0.30750780  0.46648293  0.95082925  1
  Fe  Fe95  1  0.30994802  0.46497317  0.28244629  1
  Fe  Fe96  1  0.80500952  0.96580123  0.61529156  1
  Fe  Fe97  1  0.81202636  0.46244298  0.62246191  1
  Fe  Fe98  1  0.80226367  0.46635094  0.95654817  1
  Fe  Fe99  1  0.31262008  0.96479373  0.62458101  1
  Fe  Fe100  1  0.30477431  0.46509537  0.61518721  1
  Fe  Fe101  1  0.30813821  0.96657684  0.95468945  1
  S  S102  1  0.36406958  0.13924456  0.08522685  1
  S  S103  1  0.35753623  0.13834703  0.42078966  1
  S  S104  1  0.35617336  0.14287983  0.75320983  1
  S  S105  1  0.35764071  0.64072068  0.08322025  1
  S  S106  1  0.36105061  0.63899173  0.41606284  1
  S  S107  1  0.35910752  0.64058781  0.74783455  1
  S  S108  1  0.86026541  0.13911937  0.08430599  1
  S  S109  1  0.86751503  0.13899641  0.41325910  1
  S  S110  1  0.85337697  0.13985165  0.74639010  1
  S  S111  1  0.85968075  0.64049905  0.08014378  1
  S  S112  1  0.85949552  0.63990846  0.41901871  1
  S  S113  1  0.85429068  0.64045686  0.74921582  1
  S  S114  1  0.14414974  0.35867736  0.24489857  1
  S  S115  1  0.14084098  0.35974626  0.58452188  1
  S  S116  1  0.13943091  0.36455606  0.91450865  1
  S  S117  1  0.13317204  0.86054605  0.25262571  1
  S  S118  1  0.14745870  0.85738077  0.58785974  1
  S  S119  1  0.14172838  0.86288157  0.91975155  1
  S  S120  1  0.63640959  0.36616742  0.24651852  1
  S  S121  1  0.64433071  0.35972073  0.58390057  1
  S  S122  1  0.63880801  0.35612113  0.91618448  1
  S  S123  1  0.63427301  0.85662403  0.24777925  1
  S  S124  1  0.64037028  0.85977615  0.58369945  1
  S  S125  1  0.63782147  0.86099481  0.91597566  1
  S  S126  1  0.05978058  0.15234255  0.03924121  1
  S  S127  1  0.07839694  0.16863224  0.37843785  1
  S  S128  1  0.06727943  0.16855106  0.70618253  1
  S  S129  1  0.06677401  0.67374619  0.04553713  1
  S  S130  1  0.06731753  0.66442367  0.37433623  1
  S  S131  1  0.06699931  0.67293656  0.70696552  1
  S  S132  1  0.56964100  0.17615455  0.04178518  1
  S  S133  1  0.56534488  0.17628338  0.37979422  1
  S  S134  1  0.56554761  0.17736207  0.70849194  1
  S  S135  1  0.55956047  0.66817717  0.04149000  1
  S  S136  1  0.57146233  0.66927103  0.37636536  1
  S  S137  1  0.56664175  0.67076663  0.70914312  1
  S  S138  1  0.33202210  0.43704784  0.12202709  1
  S  S139  1  0.32307788  0.43226584  0.45315947  1
  S  S140  1  0.33266518  0.43794463  0.78969601  1
  S  S141  1  0.32997095  0.93394497  0.12372238  1
  S  S142  1  0.32444613  0.92359972  0.45970999  1
  S  S143  1  0.33316510  0.93451371  0.79339922  1
  S  S144  1  0.84515201  0.43294565  0.12547162  1
  S  S145  1  0.83465879  0.42994085  0.46365266  1
  S  S146  1  0.82725969  0.42961867  0.79029286  1
  S  S147  1  0.82201195  0.93161116  0.12114822  1
  S  S148  1  0.82893165  0.93830037  0.45358661  1
  S  S149  1  0.82735820  0.93215752  0.78993911  1
  S  S150  1  0.43888482  0.33990226  0.29304301  1
  S  S151  1  0.43259930  0.33050101  0.62565059  1
  S  S152  1  0.43206874  0.33281817  0.95527093  1
  S  S153  1  0.43248141  0.82488035  0.28869158  1
  S  S154  1  0.43132037  0.82194069  0.62109988  1
  S  S155  1  0.43351350  0.83117540  0.95639362  1
  S  S156  1  0.94287939  0.32870296  0.28726652  1
  S  S157  1  0.93493401  0.32558454  0.62411358  1
  S  S158  1  0.92863501  0.32730977  0.95442297  1
  S  S159  1  0.92304489  0.82814123  0.28804882  1
  S  S160  1  0.93542439  0.83504677  0.63307337  1
  S  S161  1  0.93077346  0.83855340  0.96079082  1
  S  S162  1  0.17372208  0.06793903  0.21528789  1
  S  S163  1  0.17205594  0.06233208  0.54351890  1
  S  S164  1  0.16990368  0.06222126  0.87791523  1
  S  S165  1  0.16818555  0.57066178  0.20901672  1
  S  S166  1  0.16522530  0.56523220  0.53979402  1
  S  S167  1  0.17573266  0.57234826  0.87779933  1
  S  S168  1  0.66715916  0.07124773  0.20551336  1
  S  S169  1  0.66396436  0.07128634  0.53990261  1
  S  S170  1  0.66898631  0.06888515  0.87513575  1
  S  S171  1  0.66614458  0.56835470  0.21081211  1
  S  S172  1  0.67662322  0.56617861  0.54415949  1
  S  S173  1  0.66843478  0.56612932  0.87199621  1
  O  O174  1  0.37358694  0.21523166  0.07223731  1
  O  O175  1  0.35147915  0.21733386  0.41513841  1
  O  O176  1  0.36570539  0.22281673  0.74720998  1
  O  O177  1  0.36395434  0.72039757  0.07521000  1
  O  O178  1  0.36929068  0.71800777  0.40766549  1
  O  O179  1  0.36843850  0.71980528  0.74058207  1
  O  O180  1  0.87270411  0.21738781  0.07646286  1
  O  O181  1  0.88343845  0.21472071  0.40062995  1
  O  O182  1  0.86319963  0.21986531  0.74025135  1
  O  O183  1  0.87373567  0.71656598  0.06603869  1
  O  O184  1  0.86794910  0.71845835  0.41560626  1
  O  O185  1  0.86607867  0.72089092  0.74433319  1
  O  O186  1  0.28645479  0.12872454  0.09335947  1
  O  O187  1  0.28435376  0.11734654  0.43799346  1
  O  O188  1  0.27690151  0.13309539  0.76094384  1
  O  O189  1  0.27815578  0.63153849  0.09090511  1
  O  O190  1  0.28390546  0.63083562  0.42844581  1
  O  O191  1  0.27961011  0.63262723  0.75491845  1
  O  O192  1  0.78018620  0.13313408  0.09101084  1
  O  O193  1  0.79410650  0.13717051  0.42852803  1
  O  O194  1  0.77241911  0.13104673  0.75158725  1
  O  O195  1  0.78231265  0.63700540  0.08822937  1
  O  O196  1  0.78300240  0.62634542  0.43327034  1
  O  O197  1  0.77106041  0.63217438  0.74906398  1
  O  O198  1  0.13826078  0.28272649  0.25964321  1
  O  O199  1  0.13174379  0.28181651  0.59441516  1
  O  O200  1  0.13386124  0.28750457  0.92283466  1
  O  O201  1  0.11792640  0.78487026  0.26688796  1
  O  O202  1  0.13220638  0.77779281  0.59271246  1
  O  O203  1  0.13451522  0.78482626  0.92548068  1
  O  O204  1  0.62616100  0.28873589  0.25727455  1
  O  O205  1  0.62653611  0.27986608  0.58959408  1
  O  O206  1  0.63005439  0.27312879  0.91551566  1
  O  O207  1  0.63084541  0.77283124  0.24724481  1
  O  O208  1  0.63185639  0.78167626  0.59451840  1
  O  O209  1  0.62934601  0.78205955  0.92474774  1
  O  O210  1  0.22525958  0.37248423  0.24463503  1
  O  O211  1  0.22002505  0.36752582  0.57680734  1
  O  O212  1  0.21622548  0.37708377  0.90051839  1
  O  O213  1  0.20948260  0.86093573  0.24152696  1
  O  O214  1  0.23140070  0.86368601  0.59130363  1
  O  O215  1  0.21849986  0.87392541  0.90581270  1
  O  O216  1  0.70859811  0.37282738  0.22922123  1
  O  O217  1  0.72920984  0.36269769  0.58872292  1
  O  O218  1  0.71725844  0.36655095  0.90695655  1
  O  O219  1  0.71201020  0.87012112  0.23763316  1
  O  O220  1  0.71997128  0.87006018  0.57783971  1
  O  O221  1  0.71641141  0.86957341  0.90724330  1
  O  O222  1  0.42512413  0.13266803  0.15343266  1
  O  O223  1  0.42223558  0.13967638  0.49236182  1
  O  O224  1  0.41505806  0.13474071  0.82131709  1
  O  O225  1  0.41580917  0.63254119  0.15110998  1
  O  O226  1  0.42279011  0.63024229  0.48199308  1
  O  O227  1  0.41760545  0.63144932  0.81550028  1
  O  O228  1  0.91797176  0.12798708  0.15158944  1
  O  O229  1  0.93153322  0.12790908  0.47808413  1
  O  O230  1  0.91034155  0.12902995  0.81222655  1
  O  O231  1  0.92019323  0.63212074  0.14773832  1
  O  O232  1  0.92122075  0.62859446  0.48632161  1
  O  O233  1  0.90696163  0.63149735  0.81822528  1
  O  O234  1  0.37488681  0.07721016  0.01890062  1
  O  O235  1  0.36916615  0.08143191  0.35645544  1
  O  O236  1  0.36282056  0.08510084  0.68414896  1
  O  O237  1  0.36715741  0.58313074  0.01527198  1
  O  O238  1  0.36498834  0.58040831  0.34614801  1
  O  O239  1  0.36793697  0.58173697  0.67988664  1
  O  O240  1  0.86573740  0.07881015  0.01567011  1
  O  O241  1  0.87037842  0.07582971  0.34452988  1
  O  O242  1  0.86161583  0.08242505  0.67669946  1
  O  O243  1  0.86769167  0.57815009  0.01312982  1
  O  O244  1  0.86492182  0.57976517  0.35163481  1
  O  O245  1  0.86531674  0.58255079  0.68174071  1
  O  O246  1  0.08955135  0.35777327  0.17114697  1
  O  O247  1  0.08200132  0.36810194  0.51654524  1
  O  O248  1  0.07747471  0.37285127  0.84761094  1
  O  O249  1  0.07271487  0.86999901  0.18592521  1
  O  O250  1  0.09617991  0.86824071  0.51928236  1
  O  O251  1  0.07964709  0.87392884  0.85418600  1
  O  O252  1  0.56946836  0.37788180  0.18440302  1
  O  O253  1  0.59643426  0.37087118  0.51479138  1
  O  O254  1  0.57957378  0.36939317  0.84972587  1
  O  O255  1  0.57475280  0.86571783  0.17971545  1
  O  O256  1  0.58231716  0.86391570  0.51394726  1
  O  O257  1  0.57858935  0.86847438  0.84749097  1
  O  O258  1  0.12582377  0.42053152  0.30628688  1
  O  O259  1  0.13221807  0.42010038  0.65192892  1
  O  O260  1  0.13456995  0.42507200  0.98367312  1
  O  O261  1  0.12967929  0.92287104  0.32131013  1
  O  O262  1  0.13526570  0.91610566  0.65504232  1
  O  O263  1  0.13589555  0.92277290  0.98892365  1
  O  O264  1  0.63536469  0.42676861  0.31813506  1
  O  O265  1  0.63319210  0.41783745  0.65143700  1
  O  O266  1  0.63074584  0.40991203  0.98520012  1
  O  O267  1  0.62450641  0.90795236  0.31639883  1
  O  O268  1  0.63113112  0.91973525  0.65065886  1
  O  O269  1  0.62840239  0.92080141  0.98260790  1
  O  O270  1  0.03209836  0.19356080  0.10602661  1
  O  O271  1  0.04449083  0.20334619  0.44117112  1
  O  O272  1  0.02774718  0.19579455  0.76349770  1
  O  O273  1  0.03556208  0.70683579  0.11087260  1
  O  O274  1  0.03568671  0.68854445  0.43698488  1
  O  O275  1  0.03070130  0.70000335  0.76639811  1
  O  O276  1  0.53525877  0.20597730  0.10342614  1
  O  O277  1  0.52710078  0.20124308  0.44081559  1
  O  O278  1  0.52410865  0.20437027  0.76676227  1
  O  O279  1  0.52156095  0.70395067  0.10024180  1
  O  O280  1  0.53574815  0.69992464  0.43844136  1
  O  O281  1  0.52729243  0.69985053  0.76876810  1
  O  O282  1  0.30001918  0.47173145  0.05980495  1
  O  O283  1  0.29234885  0.47161992  0.39354745  1
  O  O284  1  0.30176410  0.47414733  0.72827683  1
  O  O285  1  0.29646658  0.96614643  0.05878601  1
  O  O286  1  0.29271960  0.95759729  0.39889516  1
  O  O287  1  0.30342771  0.97270367  0.73385031  1
  O  O288  1  0.81019645  0.45979628  0.05986523  1
  O  O289  1  0.80081317  0.46311854  0.40252768  1
  O  O290  1  0.80083337  0.47179140  0.73281129  1
  O  O291  1  0.79143918  0.96925144  0.06008495  1
  O  O292  1  0.79179577  0.97231320  0.39385469  1
  O  O293  1  0.80135093  0.96855284  0.72900493  1
  O  O294  1  0.46395669  0.29952782  0.22463288  1
  O  O295  1  0.47084730  0.30081136  0.56771083  1
  O  O296  1  0.47030092  0.30235899  0.89549543  1
  O  O297  1  0.46907245  0.78867913  0.22735737  1
  O  O298  1  0.47028282  0.79360730  0.56173805  1
  O  O299  1  0.46813840  0.79936744  0.89369526  1
  O  O300  1  0.97966315  0.29231986  0.22649684  1
  O  O301  1  0.97180160  0.29800913  0.56320677  1
  O  O302  1  0.95768858  0.30273437  0.88995991  1
  O  O303  1  0.95318033  0.79553624  0.22132550  1
  O  O304  1  0.97384626  0.80933746  0.57424668  1
  O  O305  1  0.96494682  0.81394323  0.89988527  1
  O  O306  1  0.19477723  0.03400283  0.27687260  1
  O  O307  1  0.20054669  0.02466364  0.60424517  1
  O  O308  1  0.20718825  0.03106229  0.94201884  1
  O  O309  1  0.20102030  0.53515440  0.27029760  1
  O  O310  1  0.19806295  0.52889279  0.60151365  1
  O  O311  1  0.20892563  0.53549905  0.93844328  1
  O  O312  1  0.69701919  0.03543212  0.26449935  1
  O  O313  1  0.69451622  0.03575351  0.60277370  1
  O  O314  1  0.69795436  0.02979314  0.93465442  1
  O  O315  1  0.69180380  0.54247169  0.27787521  1
  O  O316  1  0.70338123  0.52314261  0.60076473  1
  O  O317  1  0.69462906  0.52904179  0.93092599  1
  O  O318  1  0.08007177  0.07226791  0.04509005  1
  O  O319  1  0.09765740  0.08922306  0.37979639  1
  O  O320  1  0.08633505  0.08654264  0.70308708  1
  O  O321  1  0.08770601  0.59329310  0.04609678  1
  O  O322  1  0.08567208  0.58078129  0.36214017  1
  O  O323  1  0.08578294  0.59014389  0.69870172  1
  O  O324  1  0.58548778  0.09276996  0.03332497  1
  O  O325  1  0.58480927  0.09700507  0.36917352  1
  O  O326  1  0.58335475  0.09698649  0.70386925  1
  O  O327  1  0.56966193  0.58678210  0.03801907  1
  O  O328  1  0.59671801  0.59102096  0.37732047  1
  O  O329  1  0.58556710  0.59029423  0.70747755  1
  O  O330  1  0.41580917  0.42363777  0.12759623  1
  O  O331  1  0.39970568  0.40956904  0.45397652  1
  O  O332  1  0.41546909  0.42290704  0.79565969  1
  O  O333  1  0.40843537  0.90942243  0.11821977  1
  O  O334  1  0.40218703  0.89958730  0.45868588  1
  O  O335  1  0.41410670  0.91464190  0.79670923  1
  O  O336  1  0.92723961  0.41147212  0.12680811  1
  O  O337  1  0.91695310  0.41285163  0.46410810  1
  O  O338  1  0.90754418  0.40960531  0.79307854  1
  O  O339  1  0.90349717  0.91561171  0.12475428  1
  O  O340  1  0.91247981  0.93366571  0.46076822  1
  O  O341  1  0.90879614  0.91215381  0.79936200  1
  O  O342  1  0.41518702  0.41790764  0.28544928  1
  O  O343  1  0.41027061  0.41062577  0.62718910  1
  O  O344  1  0.41624969  0.41534093  0.95924887  1
  O  O345  1  0.41624542  0.90304520  0.28835845  1
  O  O346  1  0.40904620  0.90065285  0.62501172  1
  O  O347  1  0.41901736  0.91391295  0.96208572  1
  O  O348  1  0.93579115  0.41077389  0.29243438  1
  O  O349  1  0.91892553  0.40853144  0.63165153  1
  O  O350  1  0.91058298  0.41009020  0.96861647  1
  O  O351  1  0.89522968  0.90558107  0.28687709  1
  O  O352  1  0.91746983  0.91808142  0.63902435  1
  O  O353  1  0.91374271  0.92270750  0.97205313  1
  O  O354  1  0.09086453  0.08824067  0.20285852  1
  O  O355  1  0.08896417  0.07701994  0.53478660  1
  O  O356  1  0.08721199  0.06815562  0.87153803  1
  O  O357  1  0.08525656  0.58524797  0.20408312  1
  O  O358  1  0.08392300  0.58085658  0.53625905  1
  O  O359  1  0.09907618  0.59430073  0.87845620  1
  O  O360  1  0.58824988  0.09685371  0.20407277  1
  O  O361  1  0.59106226  0.10755614  0.54802296  1
  O  O362  1  0.58794055  0.08695255  0.87305422  1
  O  O363  1  0.58191644  0.58755267  0.20093880  1
  O  O364  1  0.59414260  0.58208922  0.53806420  1
  O  O365  1  0.58477629  0.58404826  0.86501229  1
  O  O366  1  0.12911778  0.19762672  0.04359030  1
  O  O367  1  0.14788536  0.22073399  0.39006919  1
  O  O368  1  0.13958333  0.22095470  0.72471716  1
  O  O369  1  0.13892950  0.72520388  0.06047039  1
  O  O370  1  0.13853301  0.71578759  0.38871366  1
  O  O371  1  0.14012069  0.72421344  0.72455781  1
  O  O372  1  0.64215636  0.22611197  0.05694868  1
  O  O373  1  0.63447155  0.23225051  0.39933292  1
  O  O374  1  0.63705662  0.23119019  0.72972782  1
  O  O375  1  0.63360300  0.71691331  0.05828163  1
  O  O376  1  0.63591333  0.72504913  0.38519710  1
  O  O377  1  0.63662474  0.72482866  0.72720098  1
  O  O378  1  0.28504793  0.36511441  0.10892453  1
  O  O379  1  0.26609784  0.36439043  0.43721089  1
  O  O380  1  0.28225230  0.36557985  0.77243295  1
  O  O381  1  0.27748529  0.86327280  0.11018054  1
  O  O382  1  0.27000010  0.85497954  0.44876283  1
  O  O383  1  0.28062826  0.86371844  0.77730304  1
  O  O384  1  0.79620258  0.36166582  0.11672477  1
  O  O385  1  0.78711973  0.35993846  0.45644058  1
  O  O386  1  0.77228437  0.35884716  0.76917274  1
  O  O387  1  0.77112840  0.85850969  0.10202808  1
  O  O388  1  0.78529071  0.86295903  0.44016162  1
  O  O389  1  0.77263951  0.86163101  0.77210891  1
  O  O390  1  0.37325658  0.29094361  0.29139929  1
  O  O391  1  0.36295711  0.27736367  0.61272536  1
  O  O392  1  0.36029878  0.28219173  0.93810153  1
  O  O393  1  0.36109722  0.77199726  0.27321704  1
  O  O394  1  0.36276780  0.76536033  0.60436857  1
  O  O395  1  0.36088523  0.78135606  0.94036219  1
  O  O396  1  0.86878381  0.28169626  0.27021568  1
  O  O397  1  0.86254393  0.27384462  0.60505463  1
  O  O398  1  0.85725062  0.27500719  0.94047272  1
  O  O399  1  0.85718830  0.77168272  0.27790337  1
  O  O400  1  0.86457853  0.78304514  0.61603147  1
  O  O401  1  0.85834891  0.78753846  0.94419125  1
  O  O402  1  0.22766943  0.13700498  0.23108409  1
  O  O403  1  0.22250607  0.13575439  0.56394944  1
  O  O404  1  0.21561566  0.13580253  0.89064795  1
  O  O405  1  0.21730578  0.64409137  0.22533061  1
  O  O406  1  0.21717551  0.63689618  0.55643289  1
  O  O407  1  0.23139198  0.64117904  0.89193584  1
  O  O408  1  0.72169616  0.13663590  0.21249377  1
  O  O409  1  0.72379603  0.13414605  0.55024500  1
  O  O410  1  0.72197451  0.14010820  0.89364444  1
  O  O411  1  0.71765755  0.63910968  0.22385274  1
  O  O412  1  0.72804013  0.63842854  0.56672009  1
  O  O413  1  0.71906471  0.63845344  0.88798017  1
  O  O414  1  0.49019314  0.33692320  0.02901804  1
  O  O415  1  0.50708774  0.35624817  0.36069461  1
  O  O416  1  0.49146364  0.34036227  0.70154097  1
  O  O417  1  0.49263097  0.83121381  0.02768027  1
  O  O418  1  0.49160974  0.82593146  0.36138088  1
  O  O419  1  0.49062621  0.82568534  0.69447532  1
  O  O420  1  0.99185431  0.32140674  0.02165777  1
  O  O421  1  0.99894761  0.32606641  0.36046192  1
  O  O422  1  0.99213502  0.32497146  0.69644409  1
  O  O423  1  0.98966363  0.83829698  0.03298357  1
  O  O424  1  0.98869296  0.83958115  0.35677920  1
  O  O425  1  0.99343788  0.83740216  0.70683451  1
  O  O426  1  0.17356984  0.00637557  0.14445768  1
  O  O427  1  0.17400147  0.00529069  0.47151228  1
  O  O428  1  0.17371397  0.00330779  0.80604857  1
  O  O429  1  0.16705548  0.51200527  0.13700089  1
  O  O430  1  0.16455507  0.50659477  0.46747135  1
  O  O431  1  0.17135959  0.51233210  0.80390478  1
  O  O432  1  0.65322651  0.00833782  0.12948244  1
  O  O433  1  0.64488413  0.00768793  0.46892847  1
  O  O434  1  0.66586474  0.01224306  0.80133776  1
  O  O435  1  0.66275727  0.50546260  0.14257474  1
  O  O436  1  0.67718929  0.51033967  0.47071714  1
  O  O437  1  0.66431421  0.50805221  0.79772134  1
  O  O438  1  0.01688844  0.16356884  0.30643184  1
  O  O439  1  0.01176984  0.16405722  0.63103037  1
  O  O440  1  -0.00604124  0.13827401  0.97011515  1
  O  O441  1  0.00571561  0.66467716  0.30369250  1
  O  O442  1  0.00954991  0.67167556  0.63359256  1
  O  O443  1  0.00665751  0.66833637  0.97541135  1
  O  O444  1  0.50490553  0.18224053  0.31024524  1
  O  O445  1  0.50923968  0.17971310  0.63613575  1
  O  O446  1  0.50951748  0.17414858  0.96937880  1
  O  O447  1  0.50678300  0.65712998  0.30361221  1
  O  O448  1  0.50949614  0.66609196  0.63503341  1
  O  O449  1  0.50474856  0.66819391  0.96644555  1
  O  O450  1  0.33388795  0.49829121  0.19386038  1
  O  O451  1  0.32652373  0.49187919  0.52701404  1
  O  O452  1  0.33322925  0.49626817  0.86184834  1
  O  O453  1  0.33997198  0.99503231  0.19368934  1
  O  O454  1  0.33336171  0.98479765  0.53383064  1
  O  O455  1  0.33868399  0.99381034  0.86690621  1
  O  O456  1  0.85440383  0.49631908  0.19529435  1
  O  O457  1  0.84493288  0.49202176  0.53826277  1
  O  O458  1  0.82905587  0.48597260  0.86385745  1
  O  O459  1  0.82039896  0.98922334  0.19216356  1
  O  O460  1  0.82523388  0.99339105  0.52783766  1
  O  O461  1  0.82703433  0.99139510  0.86198586  1
