# generated using pymatgen
data_Na31Fe20(SO4)36
_symmetry_space_group_name_H-M   'P 1'
_cell_length_a   18.05988789
_cell_length_b   18.06073023
_cell_length_c   19.69147849
_cell_angle_alpha   107.58815366
_cell_angle_beta   107.58975437
_cell_angle_gamma   90.70453088
_symmetry_Int_Tables_number   1
_chemical_formula_structural   Na31Fe20(SO4)36
_chemical_formula_sum   'Na62 Fe40 S72 O288'
_cell_volume   5798.28495896
_cell_formula_units_Z   2
loop_
 _symmetry_equiv_pos_site_id
 _symmetry_equiv_pos_as_xyz
  1  'x, y, z'
loop_
 _atom_site_type_symbol
 _atom_site_label
 _atom_site_symmetry_multiplicity
 _atom_site_fract_x
 _atom_site_fract_y
 _atom_site_fract_z
 _atom_site_occupancy
  Na  Na0  1  0.13345344  0.36802983  0.08650939  1
  Na  Na1  1  0.13024852  0.37051175  0.42213336  1
  Na  Na2  1  0.12091866  0.36164657  0.74381508  1
  Na  Na3  1  0.13434457  0.84969000  0.07270612  1
  Na  Na4  1  0.13432936  0.86879943  0.41410390  1
  Na  Na5  1  0.13361011  0.86380296  0.74968635  1
  Na  Na6  1  0.64327494  0.36117948  0.08568603  1
  Na  Na7  1  0.63368927  0.36486682  0.41307625  1
  Na  Na8  1  0.64418549  0.37225605  0.76769524  1
  Na  Na9  1  0.63519255  0.86889662  0.08717539  1
  Na  Na10  1  0.63547391  0.86315486  0.41198485  1
  Na  Na11  1  0.63698842  0.86500562  0.75307590  1
  Na  Na12  1  0.36823696  0.12861073  0.25246244  1
  Na  Na13  1  0.35973270  0.13354349  0.57736267  1
  Na  Na14  1  0.36666463  0.13124041  0.91575958  1
  Na  Na15  1  0.36081858  0.63781737  0.24982953  1
  Na  Na16  1  0.36612789  0.63256635  0.58277380  1
  Na  Na17  1  0.37227895  0.64492705  0.92615417  1
  Na  Na18  1  0.86116311  0.12954173  0.24439014  1
  Na  Na19  1  0.88209450  0.13994261  0.59246518  1
  Na  Na20  1  0.85976598  0.13683425  0.90919888  1
  Na  Na21  1  0.87343766  0.65318565  0.26643869  1
  Na  Na22  1  0.86631334  0.63829105  0.58376414  1
  Na  Na23  1  0.85235764  0.61848273  0.90437654  1
  Na  Na24  1  0.99743899  0.01740502  0.73668548  1
  Na  Na25  1  0.97805238  0.02398840  0.43560936  1
  Na  Na26  1  0.99068134  0.00685251  0.07486960  1
  Na  Na27  1  0.48823471  0.00645897  0.75024648  1
  Na  Na28  1  0.48523656  -0.00146201  0.10675831  1
  Na  Na29  1  0.49066854  0.50829595  0.41388756  1
  Na  Na30  1  0.50240065  0.54655157  0.76619217  1
  Na  Na31  1  0.95867742  0.51470380  0.06705949  1
  Na  Na32  1  0.49967262  0.01048568  0.39372947  1
  Na  Na33  1  0.51634513  0.49979124  0.22817483  1
  Na  Na34  1  0.51352003  0.50173744  0.92823931  1
  Na  Na35  1  0.53955066  0.48745364  0.59710573  1
  Na  Na36  1  0.00046720  0.47938898  0.59684876  1
  Na  Na37  1  0.03828903  0.98863370  0.27354265  1
  Na  Na38  1  -0.01050627  0.44122249  0.88348825  1
  Na  Na39  1  0.51033821  0.98150181  0.92444494  1
  Na  Na40  1  0.51102195  0.99638334  0.57893339  1
  Na  Na41  1  -0.00881383  0.49884225  0.26309716  1
  Na  Na42  1  0.76054216  0.26845887  -0.01384936  1
  Na  Na43  1  0.78170812  0.78731884  0.33280580  1
  Na  Na44  1  0.24794040  0.24842246  0.00539266  1
  Na  Na45  1  0.23081909  0.23484696  0.66955431  1
  Na  Na46  1  0.23830384  0.23395902  0.34525566  1
  Na  Na47  1  0.75665257  0.25441358  0.32074386  1
  Na  Na48  1  0.25022276  0.75057488  0.66729777  1
  Na  Na49  1  0.73395990  0.73970573  0.00036148  1
  Na  Na50  1  0.76999348  0.26060585  0.67453357  1
  Na  Na51  1  0.74385939  0.73934231  0.67143951  1
  Na  Na52  1  0.75651188  0.25402795  0.49716078  1
  Na  Na53  1  0.24385917  0.24091008  0.17488463  1
  Na  Na54  1  0.76337295  0.77193938  0.16604656  1
  Na  Na55  1  0.22334700  0.22571790  0.50444836  1
  Na  Na56  1  0.24652934  0.24421518  0.83857507  1
  Na  Na57  1  0.76655040  0.76235398  0.49122228  1
  Na  Na58  1  0.24397439  0.74279392  0.16842669  1
  Na  Na59  1  0.24243035  0.74012842  0.84682613  1
  Na  Na60  1  0.25440168  0.75626997  0.48792027  1
  Na  Na61  1  0.72716644  0.72843809  0.83756938  1
  Fe  Fe62  1  0.96210633  0.30383384  0.45574150  1
  Fe  Fe63  1  0.46810691  0.30659944  0.45229922  1
  Fe  Fe64  1  0.96312246  0.31041933  0.12120071  1
  Fe  Fe65  1  0.46368940  0.80591882  0.11937816  1
  Fe  Fe66  1  0.96450751  0.80965482  0.11924851  1
  Fe  Fe67  1  0.96385248  0.81114344  0.78686200  1
  Fe  Fe68  1  0.46523584  0.30608986  0.78548619  1
  Fe  Fe69  1  0.46535803  0.30423026  0.11543717  1
  Fe  Fe70  1  0.46477333  0.80494616  0.44862808  1
  Fe  Fe71  1  0.46703524  0.80322512  0.78904875  1
  Fe  Fe72  1  0.69999702  0.53644979  0.04703750  1
  Fe  Fe73  1  0.69535168  0.03434923  0.37511824  1
  Fe  Fe74  1  0.69570152  0.03645269  0.05174653  1
  Fe  Fe75  1  0.19368664  0.53430170  0.71496043  1
  Fe  Fe76  1  0.69414843  0.53643914  0.38106353  1
  Fe  Fe77  1  0.69377804  0.03574052  0.71578288  1
  Fe  Fe78  1  0.18880098  0.03189797  0.04441234  1
  Fe  Fe79  1  0.19491286  0.53435080  0.38206129  1
  Fe  Fe80  1  0.19038712  0.03085557  0.70713665  1
  Fe  Fe81  1  0.18772386  0.53664702  0.04456367  1
  Fe  Fe82  1  0.53536334  0.69273761  0.21365807  1
  Fe  Fe83  1  0.03210809  0.69774187  0.54222186  1
  Fe  Fe84  1  0.03299375  0.68605455  0.87680805  1
  Fe  Fe85  1  0.03591119  0.69345512  0.21572968  1
  Fe  Fe86  1  0.53487370  0.19352461  0.88430952  1
  Fe  Fe87  1  0.53595096  0.19452044  0.21437142  1
  Fe  Fe88  1  0.53647612  0.69188808  0.54770873  1
  Fe  Fe89  1  0.53738745  0.19444393  0.55179817  1
  Fe  Fe90  1  0.03346609  0.19799137  0.87867684  1
  Fe  Fe91  1  0.03296020  0.19302316  0.21388765  1
  Fe  Fe92  1  0.29972849  0.96666165  0.28902371  1
  Fe  Fe93  1  0.30461515  0.46483406  0.28240486  1
  Fe  Fe94  1  0.30409679  0.96295814  0.95383533  1
  Fe  Fe95  1  0.80580714  0.96595859  0.94908510  1
  Fe  Fe96  1  0.81001582  0.46601616  0.28978019  1
  Fe  Fe97  1  0.80821721  0.96366157  0.61759759  1
  Fe  Fe98  1  0.30873732  0.46564929  0.95320012  1
  Fe  Fe99  1  0.80183840  0.47077573  0.63018166  1
  Fe  Fe100  1  0.30583003  0.96140663  0.61053347  1
  Fe  Fe101  1  0.30800526  0.46567432  0.61855326  1
  S  S102  1  0.35831916  0.13832215  0.08444043  1
  S  S103  1  0.36313724  0.14252380  0.41728545  1
  S  S104  1  0.36310806  0.13653447  0.74780594  1
  S  S105  1  0.36116756  0.63771334  0.08360822  1
  S  S106  1  0.36214322  0.63747187  0.41598812  1
  S  S107  1  0.35810857  0.64023658  0.75211908  1
  S  S108  1  0.85921572  0.14094385  0.07981408  1
  S  S109  1  0.85323318  0.14323920  0.41328221  1
  S  S110  1  0.86311466  0.13542408  0.75157721  1
  S  S111  1  0.85756307  0.64850895  0.08742421  1
  S  S112  1  0.85824487  0.64142334  0.41765143  1
  S  S113  1  0.85823913  0.64487835  0.74654170  1
  S  S114  1  0.14169594  0.35872106  0.25223789  1
  S  S115  1  0.14041775  0.36193113  0.58120395  1
  S  S116  1  0.14608951  0.35906923  0.91866289  1
  S  S117  1  0.14156377  0.85242989  0.24154211  1
  S  S118  1  0.14706805  0.85572218  0.58457884  1
  S  S119  1  0.13712186  0.85787662  0.91553378  1
  S  S120  1  0.63851757  0.36429592  0.24845084  1
  S  S121  1  0.64068102  0.35583703  0.58307628  1
  S  S122  1  0.63624427  0.36185352  0.92378767  1
  S  S123  1  0.63505623  0.86105455  0.25321379  1
  S  S124  1  0.63965579  0.85956505  0.58181221  1
  S  S125  1  0.63967744  0.86347671  0.91469983  1
  S  S126  1  0.06928707  0.17204854  0.04344386  1
  S  S127  1  0.05996400  0.17331131  0.37537775  1
  S  S128  1  0.07107246  0.16808159  0.71222190  1
  S  S129  1  0.05972590  0.66243506  0.03845831  1
  S  S130  1  0.07064002  0.66459705  0.37436969  1
  S  S131  1  0.07001435  0.67040684  0.70795801  1
  S  S132  1  0.56582212  0.16754284  0.04221055  1
  S  S133  1  0.56955730  0.17200046  0.37531856  1
  S  S134  1  0.56711675  0.16677401  0.70812149  1
  S  S135  1  0.57048186  0.67321560  0.04731685  1
  S  S136  1  0.56673386  0.66660350  0.37545717  1
  S  S137  1  0.56169451  0.67180976  0.70642554  1
  S  S138  1  0.33163865  0.43184960  0.12440771  1
  S  S139  1  0.33520415  0.43220712  0.45626060  1
  S  S140  1  0.33060083  0.42973010  0.79004470  1
  S  S141  1  0.32389512  0.92902567  0.12413203  1
  S  S142  1  0.33980449  0.93242591  0.46018096  1
  S  S143  1  0.33350295  0.93368183  0.79320543  1
  S  S144  1  0.83362923  0.44016391  0.12854139  1
  S  S145  1  0.82442756  0.42985447  0.45872237  1
  S  S146  1  0.82655211  0.43232603  0.78314628  1
  S  S147  1  0.83093067  0.93631635  0.12017429  1
  S  S148  1  0.82817327  0.94163860  0.45990167  1
  S  S149  1  0.82622904  0.92947692  0.78685321  1
  S  S150  1  0.43251377  0.32983687  0.28861449  1
  S  S151  1  0.43190401  0.33085339  0.62303105  1
  S  S152  1  0.42949780  0.32669530  0.95605480  1
  S  S153  1  0.42890447  0.82887042  0.28957103  1
  S  S154  1  0.43511781  0.82871894  0.62398868  1
  S  S155  1  0.43314989  0.83865483  0.96140172  1
  S  S156  1  0.93030535  0.32806705  0.29161509  1
  S  S157  1  0.92796033  0.33737964  0.62450208  1
  S  S158  1  0.94037023  0.32920708  0.96270422  1
  S  S159  1  0.94824209  0.83709950  0.29177894  1
  S  S160  1  0.93475505  0.83069535  0.62467358  1
  S  S161  1  0.92643081  0.82571004  0.95249564  1
  S  S162  1  0.16774727  0.06495004  0.20674857  1
  S  S163  1  0.17262783  0.05808516  0.54101737  1
  S  S164  1  0.17206978  0.06949389  0.87671789  1
  S  S165  1  0.16972408  0.56578621  0.20704613  1
  S  S166  1  0.17317283  0.57135564  0.54475382  1
  S  S167  1  0.17382708  0.56719915  0.87687645  1
  S  S168  1  0.66541050  0.06816280  0.20793920  1
  S  S169  1  0.66878911  0.06812684  0.54068528  1
  S  S170  1  0.66491156  0.06809881  0.87574599  1
  S  S171  1  0.67892945  0.57637750  0.21470325  1
  S  S172  1  0.66732683  0.56253262  0.53968495  1
  S  S173  1  0.66220125  0.56319317  0.88154171  1
  O  O174  1  0.36820016  0.21782804  0.07753778  1
  O  O175  1  0.37649495  0.21820260  0.40236589  1
  O  O176  1  0.37249854  0.21411749  0.73674319  1
  O  O177  1  0.37181456  0.71553916  0.07458527  1
  O  O178  1  0.37220881  0.71707232  0.41125186  1
  O  O179  1  0.36656730  0.71911510  0.74281918  1
  O  O180  1  0.86861182  0.22098505  0.07430321  1
  O  O181  1  0.86178802  0.22763466  0.41273469  1
  O  O182  1  0.87041872  0.20913381  0.73800448  1
  O  O183  1  0.86315555  0.73104064  0.08561109  1
  O  O184  1  0.86075763  0.71682677  0.40462578  1
  O  O185  1  0.87689449  0.71942678  0.73241445  1
  O  O186  1  0.27934906  0.13000793  0.09270513  1
  O  O187  1  0.28575087  0.13900453  0.42573117  1
  O  O188  1  0.28477573  0.12975985  0.75735171  1
  O  O189  1  0.28189182  0.62837673  0.09180762  1
  O  O190  1  0.28422408  0.62808112  0.42568981  1
  O  O191  1  0.27668150  0.63107093  0.75606483  1
  O  O192  1  0.78208071  0.12997903  0.08944483  1
  O  O193  1  0.76916857  0.13475145  0.41415459  1
  O  O194  1  0.78551091  0.12160740  0.76155157  1
  O  O195  1  0.77742055  0.63756188  0.09463081  1
  O  O196  1  0.78040291  0.62765291  0.42915394  1
  O  O197  1  0.78111550  0.64603233  0.75579891  1
  O  O198  1  0.13395749  0.27790457  0.25689345  1
  O  O199  1  0.13761426  0.28427750  0.58915257  1
  O  O200  1  0.13664299  0.27889071  0.92609493  1
  O  O201  1  0.13500039  0.76906336  0.23910110  1
  O  O202  1  0.13392938  0.77594498  0.59152707  1
  O  O203  1  0.12758031  0.77870764  0.92206434  1
  O  O204  1  0.62920409  0.28687425  0.25944562  1
  O  O205  1  0.63496145  0.27305051  0.58339398  1
  O  O206  1  0.61976244  0.28592347  0.93742378  1
  O  O207  1  0.62131702  0.78677936  0.26983969  1
  O  O208  1  0.63146251  0.78158060  0.59220577  1
  O  O209  1  0.63344959  0.78567638  0.92124537  1
  O  O210  1  0.21896023  0.36776479  0.23983717  1
  O  O211  1  0.21600468  0.37680023  0.56703067  1
  O  O212  1  0.22766712  0.36681708  0.91465469  1
  O  O213  1  0.22091204  0.86692668  0.23519856  1
  O  O214  1  0.23220663  0.86118852  0.58687707  1
  O  O215  1  0.21639601  0.86836095  0.90717843  1
  O  O216  1  0.71744417  0.37438252  0.24224627  1
  O  O217  1  0.72100691  0.37012133  0.57734150  1
  O  O218  1  0.71175571  0.36261265  0.91278516  1
  O  O219  1  0.71301049  0.86393337  0.24537783  1
  O  O220  1  0.71811824  0.86850350  0.57333469  1
  O  O221  1  0.71539888  0.87575740  0.90029230  1
  O  O222  1  0.41793571  0.12901339  0.15174297  1
  O  O223  1  0.42389338  0.13706187  0.48619900  1
  O  O224  1  0.42294815  0.12922391  0.81657394  1
  O  O225  1  0.41974936  0.62991134  0.15253275  1
  O  O226  1  0.42241623  0.62516961  0.48160813  1
  O  O227  1  0.41489092  0.63222802  0.81928497  1
  O  O228  1  0.92095285  0.12997307  0.14519460  1
  O  O229  1  0.90642339  0.13386954  0.48185940  1
  O  O230  1  0.92396762  0.13085404  0.82175770  1
  O  O231  1  0.91540487  0.63849579  0.15604418  1
  O  O232  1  0.91810619  0.63877805  0.48775959  1
  O  O233  1  0.91776576  0.63405887  0.81255043  1
  O  O234  1  0.36523749  0.07970608  0.01574413  1
  O  O235  1  0.37125149  0.07841162  0.35135770  1
  O  O236  1  0.37269709  0.07510547  0.68192463  1
  O  O237  1  0.36851379  0.57776748  0.01569556  1
  O  O238  1  0.36883143  0.57925135  0.34631121  1
  O  O239  1  0.36693531  0.58077834  0.68321323  1
  O  O240  1  0.86684942  0.08328395  0.00988781  1
  O  O241  1  0.86333882  0.09029326  0.34540006  1
  O  O242  1  0.87459214  0.07062310  0.68767612  1
  O  O243  1  0.86764486  0.59432832  0.02001106  1
  O  O244  1  0.86815741  0.57893577  0.35228013  1
  O  O245  1  0.85937204  0.58149259  0.67593143  1
  O  O246  1  0.07997486  0.37043536  0.18820080  1
  O  O247  1  0.07609774  0.37019335  0.51572855  1
  O  O248  1  0.08962908  0.36841498  0.85217842  1
  O  O249  1  0.08334267  0.86397747  0.17310906  1
  O  O250  1  0.09643117  0.86544516  0.51654015  1
  O  O251  1  0.07923701  0.86760114  0.84776450  1
  O  O252  1  0.57915273  0.37010490  0.17882070  1
  O  O253  1  0.58328009  0.36422804  0.51244148  1
  O  O254  1  0.57277474  0.37056935  0.85759449  1
  O  O255  1  0.57595406  0.86685316  0.18363638  1
  O  O256  1  0.58026520  0.86553817  0.51263272  1
  O  O257  1  0.57681851  0.87472191  0.84919789  1
  O  O258  1  0.13905375  0.41538359  0.32369581  1
  O  O259  1  0.13349233  0.42197154  0.65027801  1
  O  O260  1  0.13901000  0.41688755  0.98837323  1
  O  O261  1  0.13146271  0.90566968  0.30945205  1
  O  O262  1  0.13971048  0.91292383  0.65476350  1
  O  O263  1  0.13025794  0.91651442  0.98427661  1
  O  O264  1  0.62654966  0.42548872  0.31381267  1
  O  O265  1  0.62673300  0.40935914  0.64839065  1
  O  O266  1  0.63131096  0.42523181  0.99254333  1
  O  O267  1  0.62722245  0.92521135  0.31922243  1
  O  O268  1  0.62936653  0.92048289  0.64816181  1
  O  O269  1  0.63322829  0.92363379  0.98405610  1
  O  O270  1  0.03195098  0.20329143  0.10375316  1
  O  O271  1  0.02129354  0.20896919  0.43254027  1
  O  O272  1  0.04110496  0.19004606  0.77778580  1
  O  O273  1  0.02083762  0.69321483  0.09744049  1
  O  O274  1  0.03429428  0.68682970  0.43358597  1
  O  O275  1  0.03553079  0.69788447  0.77038331  1
  O  O276  1  0.52918850  0.19949785  0.10386779  1
  O  O277  1  0.53306223  0.19959425  0.43643305  1
  O  O278  1  0.53545492  0.20053658  0.77222445  1
  O  O279  1  0.53922517  0.70347338  0.11340415  1
  O  O280  1  0.53016172  0.69616806  0.43670568  1
  O  O281  1  0.52580035  0.70467125  0.76606940  1
  O  O282  1  0.30245200  0.46748490  0.06364043  1
  O  O283  1  0.30472652  0.46848971  0.39478320  1
  O  O284  1  0.30014206  0.46536027  0.72823685  1
  O  O285  1  0.29533010  0.96842521  0.06390541  1
  O  O286  1  0.30978517  0.96259687  0.39717247  1
  O  O287  1  0.30422918  0.97121382  0.73386798  1
  O  O288  1  0.80455962  0.48024944  0.07175320  1
  O  O289  1  0.79701295  0.46717931  0.39788768  1
  O  O290  1  0.79483881  0.47602185  0.72557063  1
  O  O291  1  0.79818449  0.96864447  0.05446227  1
  O  O292  1  0.79001403  0.97735223  0.40021521  1
  O  O293  1  0.79178716  0.96258284  0.72378131  1
  O  O294  1  0.46843063  0.29978614  0.22708727  1
  O  O295  1  0.47072707  0.30124231  0.56303522  1
  O  O296  1  0.45914174  0.29112721  0.89105311  1
  O  O297  1  0.46214709  0.79891669  0.22649782  1
  O  O298  1  0.47181824  0.79920021  0.56298266  1
  O  O299  1  0.46794601  0.82013638  0.90062395  1
  O  O300  1  0.97035662  0.29874324  0.23233793  1
  O  O301  1  0.95871278  0.31981433  0.55934857  1
  O  O302  1  0.97900564  0.29603626  0.90424564  1
  O  O303  1  0.97914548  0.79774274  0.22520112  1
  O  O304  1  0.97246230  0.80180448  0.56679337  1
  O  O305  1  0.96366456  0.79691251  0.89186129  1
  O  O306  1  0.19622770  0.02958474  0.26675195  1
  O  O307  1  0.20975905  0.02478466  0.60705548  1
  O  O308  1  0.19962910  0.03221504  0.93788357  1
  O  O309  1  0.19983407  0.52864121  0.26855788  1
  O  O310  1  0.20379659  0.53475377  0.60604234  1
  O  O311  1  0.20327699  0.52905176  0.93775847  1
  O  O312  1  0.68559058  0.03123308  0.26704123  1
  O  O313  1  0.69790925  0.03045562  0.60088798  1
  O  O314  1  0.69728552  0.03466172  0.93814534  1
  O  O315  1  0.70545771  0.53545522  0.27315090  1
  O  O316  1  0.69691422  0.52415199  0.59780971  1
  O  O317  1  0.69987167  0.53197820  0.94550804  1
  O  O318  1  0.08533081  0.09050244  0.04050284  1
  O  O319  1  0.07715308  0.09522034  0.37783509  1
  O  O320  1  0.09247636  0.08555692  0.70393962  1
  O  O321  1  0.07552639  0.57981819  0.03463148  1
  O  O322  1  0.09182025  0.58180696  0.36358245  1
  O  O323  1  0.08727029  0.58769486  0.69884432  1
  O  O324  1  0.58261548  0.08560746  0.03833441  1
  O  O325  1  0.59090360  0.09170091  0.37200402  1
  O  O326  1  0.58132035  0.08315506  0.70441774  1
  O  O327  1  0.59817175  0.59477077  0.04655546  1
  O  O328  1  0.58027925  0.58278279  0.36766700  1
  O  O329  1  0.57644570  0.59121698  0.70322750  1
  O  O330  1  0.41270520  0.41109710  0.12944235  1
  O  O331  1  0.41894723  0.41867358  0.46279829  1
  O  O332  1  0.41320210  0.41380492  0.79629580  1
  O  O333  1  0.40531428  0.91119568  0.12755729  1
  O  O334  1  0.42296158  0.91330237  0.46610549  1
  O  O335  1  0.41635922  0.91724509  0.79777896  1
  O  O336  1  0.91620558  0.42239653  0.13149140  1
  O  O337  1  0.90604618  0.41151523  0.46579615  1
  O  O338  1  0.89799732  0.40067063  0.77232226  1
  O  O339  1  0.91156952  0.91597676  0.11985326  1
  O  O340  1  0.90571744  0.92537765  0.45689942  1
  O  O341  1  0.90761204  0.91493391  0.79084938  1
  O  O342  1  0.41427460  0.41167203  0.29373345  1
  O  O343  1  0.41796965  0.41400773  0.62970018  1
  O  O344  1  0.41281630  0.40738409  0.95796224  1
  O  O345  1  0.40913256  0.91002572  0.29603441  1
  O  O346  1  0.41744349  0.91091147  0.62848786  1
  O  O347  1  0.41602904  0.92365196  0.97699762  1
  O  O348  1  0.91354097  0.40939094  0.29358357  1
  O  O349  1  0.89840259  0.41774570  0.62992129  1
  O  O350  1  0.92677109  0.40931255  0.96364063  1
  O  O351  1  0.94152016  0.91911128  0.29508026  1
  O  O352  1  0.91495511  0.91233868  0.63078333  1
  O  O353  1  0.90977941  0.90817769  0.95927168  1
  O  O354  1  0.08542896  0.08407593  0.20071503  1
  O  O355  1  0.09339432  0.07287898  0.53966309  1
  O  O356  1  0.09245235  0.09225594  0.87211086  1
  O  O357  1  0.08777286  0.58250044  0.20134377  1
  O  O358  1  0.09423732  0.59289355  0.54249514  1
  O  O359  1  0.09478700  0.58861080  0.87588440  1
  O  O360  1  0.58308226  0.09004156  0.19657026  1
  O  O361  1  0.58498322  0.08290395  0.53527138  1
  O  O362  1  0.58094968  0.08123774  0.87009750  1
  O  O363  1  0.59608605  0.59078062  0.20870302  1
  O  O364  1  0.58460327  0.57946861  0.53657093  1
  O  O365  1  0.58391528  0.58333293  0.88571247  1
  O  O366  1  0.14277118  0.22295602  0.06205347  1
  O  O367  1  0.13231856  0.22572589  0.39091253  1
  O  O368  1  0.14364918  0.22168861  0.73185708  1
  O  O369  1  0.13317127  0.71179179  0.05685864  1
  O  O370  1  0.13948869  0.71844641  0.38887560  1
  O  O371  1  0.14246974  0.72267140  0.72657261  1
  O  O372  1  0.63541801  0.21833942  0.05537691  1
  O  O373  1  0.63795236  0.22658025  0.38942839  1
  O  O374  1  0.63753460  0.21356245  0.71645348  1
  O  O375  1  0.63769742  0.73001127  0.06044551  1
  O  O376  1  0.63912738  0.71643528  0.39318833  1
  O  O377  1  0.63392006  0.72256059  0.72057174  1
  O  O378  1  0.27890349  0.36191549  0.11129215  1
  O  O379  1  0.28610779  0.35930865  0.43928760  1
  O  O380  1  0.27988430  0.35787067  0.77462964  1
  O  O381  1  0.27214276  0.85833633  0.10663584  1
  O  O382  1  0.29025126  0.86403768  0.45403645  1
  O  O383  1  0.28310471  0.86173899  0.77799071  1
  O  O384  1  0.78294796  0.36797833  0.11084625  1
  O  O385  1  0.77014828  0.35886958  0.43881631  1
  O  O386  1  0.76560296  0.36815615  0.76648857  1
  O  O387  1  0.77806437  0.86510197  0.10434234  1
  O  O388  1  0.77656120  0.86916751  0.44634886  1
  O  O389  1  0.77654020  0.85735814  0.77324347  1
  O  O390  1  0.36218331  0.27745656  0.27354044  1
  O  O391  1  0.35858029  0.28070381  0.60365125  1
  O  O392  1  0.35926608  0.27606878  0.94653026  1
  O  O393  1  0.36055880  0.77547494  0.27727965  1
  O  O394  1  0.36418160  0.77612491  0.60694317  1
  O  O395  1  0.36217371  0.78622580  0.94318844  1
  O  O396  1  0.85926723  0.27616877  0.27340994  1
  O  O397  1  0.86085011  0.27887473  0.60687212  1
  O  O398  1  0.86946901  0.27821872  0.94862306  1
  O  O399  1  0.87034374  0.79192161  0.27196650  1
  O  O400  1  0.86220393  0.77911806  0.60839480  1
  O  O401  1  0.85511441  0.77412820  0.93649466  1
  O  O402  1  0.22000445  0.13708083  0.22285297  1
  O  O403  1  0.22460485  0.13277878  0.56204928  1
  O  O404  1  0.22857196  0.13860744  0.89453075  1
  O  O405  1  0.22252155  0.63528905  0.22239183  1
  O  O406  1  0.22870230  0.63985992  0.55896100  1
  O  O407  1  0.22911412  0.63519231  0.89193767  1
  O  O408  1  0.71966372  0.13711385  0.22411140  1
  O  O409  1  0.71906310  0.13996898  0.55739002  1
  O  O410  1  0.71218542  0.14061496  0.88877207  1
  O  O411  1  0.72938780  0.64970395  0.23581474  1
  O  O412  1  0.71681746  0.63519561  0.55541909  1
  O  O413  1  0.71420094  0.63455575  0.89371287  1
  O  O414  1  0.49194764  0.32955361  0.02699794  1
  O  O415  1  0.49298953  0.33362692  0.36119131  1
  O  O416  1  0.48949159  0.32895101  0.69494440  1
  O  O417  1  0.49287973  0.83646289  0.03267957  1
  O  O418  1  0.49258468  0.83190354  0.36077748  1
  O  O419  1  0.49340827  0.83313402  0.69757095  1
  O  O420  1  0.99824549  0.33303652  0.03834414  1
  O  O421  1  0.98732751  0.33216646  0.36612085  1
  O  O422  1  0.99158983  0.34244475  0.69144157  1
  O  O423  1  0.98684879  0.82701116  0.02447666  1
  O  O424  1  1.00337384  0.82861944  0.35934533  1
  O  O425  1  0.99225026  0.83502350  0.69992922  1
  O  O426  1  0.16330024  0.00695610  0.13230437  1
  O  O427  1  0.17863194  0.00077145  0.47329006  1
  O  O428  1  0.16968955  0.00950355  0.80473048  1
  O  O429  1  0.16844982  0.50525710  0.13498349  1
  O  O430  1  0.17031141  0.51027134  0.47247882  1
  O  O431  1  0.16819059  0.50659410  0.80370929  1
  O  O432  1  0.66366701  0.00734762  0.13553659  1
  O  O433  1  0.66444356  0.01023820  0.46637038  1
  O  O434  1  0.66236636  0.00745865  0.80327637  1
  O  O435  1  0.68096175  0.51960173  0.14248713  1
  O  O436  1  0.66087287  0.50555144  0.46412954  1
  O  O437  1  0.65443215  0.50373854  0.80979095  1
  O  O438  1  0.00471684  0.16790277  0.29865818  1
  O  O439  1  0.01206440  0.17084716  0.64504581  1
  O  O440  1  0.01352629  0.17111692  0.97013167  1
  O  O441  1  0.00978960  0.65952750  0.30049293  1
  O  O442  1  0.01092905  0.67176642  0.63697340  1
  O  O443  1  0.00336151  0.66131746  0.96484358  1
  O  O444  1  0.50850818  0.16798126  0.30277911  1
  O  O445  1  0.50374140  0.16096827  0.63589179  1
  O  O446  1  0.50337374  0.16265426  0.96989042  1
  O  O447  1  0.50763951  0.66569483  0.30306647  1
  O  O448  1  0.50381422  0.66968042  0.63166638  1
  O  O449  1  0.50555651  0.66484856  0.97933524  1
  O  O450  1  0.33641666  0.49263161  0.19744260  1
  O  O451  1  0.33486092  0.49100861  0.52812523  1
  O  O452  1  0.33258352  0.48992297  0.86214095  1
  O  O453  1  0.32683241  0.98889992  0.19685704  1
  O  O454  1  0.34879127  0.99624896  0.53332232  1
  O  O455  1  0.33697068  0.99143481  0.86754741  1
  O  O456  1  0.84128936  0.49638506  0.20502528  1
  O  O457  1  0.82333000  0.48828664  0.53087834  1
  O  O458  1  0.84200472  0.48981527  0.85783193  1
  O  O459  1  0.83476039  0.99690600  0.18920175  1
  O  O460  1  0.83074002  0.99875853  0.53467573  1
  O  O461  1  0.82645204  0.99031836  0.85810142  1
