# generated using pymatgen
data_Na31Fe20(SO4)36
_symmetry_space_group_name_H-M   'P 1'
_cell_length_a   18.08005484
_cell_length_b   18.08898044
_cell_length_c   19.72222532
_cell_angle_alpha   107.58404275
_cell_angle_beta   107.57305673
_cell_angle_gamma   90.73121358
_symmetry_Int_Tables_number   1
_chemical_formula_structural   Na31Fe20(SO4)36
_chemical_formula_sum   'Na62 Fe40 S72 O288'
_cell_volume   5823.32855401
_cell_formula_units_Z   2
loop_
 _symmetry_equiv_pos_site_id
 _symmetry_equiv_pos_as_xyz
  1  'x, y, z'
loop_
 _atom_site_type_symbol
 _atom_site_label
 _atom_site_symmetry_multiplicity
 _atom_site_fract_x
 _atom_site_fract_y
 _atom_site_fract_z
 _atom_site_occupancy
  Na  Na0  1  0.16678335  0.33443242  0.08459996  1
  Na  Na1  1  0.13543104  0.36587603  0.41750274  1
  Na  Na2  1  0.12632922  0.36630419  0.74452370  1
  Na  Na3  1  0.14761898  0.87219005  0.09342624  1
  Na  Na4  1  0.12821597  0.87478251  0.41698885  1
  Na  Na5  1  0.13582190  0.86524415  0.74919774  1
  Na  Na6  1  0.62002632  0.37101385  0.08399190  1
  Na  Na7  1  0.64814957  0.37703680  0.43078331  1
  Na  Na8  1  0.63164538  0.36189544  0.74415972  1
  Na  Na9  1  0.63921806  0.86893784  0.08820511  1
  Na  Na10  1  0.62458860  0.82005667  0.37530848  1
  Na  Na11  1  0.63709275  0.85664854  0.75230318  1
  Na  Na12  1  0.33068820  0.13001847  0.21910124  1
  Na  Na13  1  0.36633230  0.13405952  0.58174773  1
  Na  Na14  1  0.36752265  0.15181604  0.94077488  1
  Na  Na15  1  0.37403558  0.63259440  0.24705548  1
  Na  Na16  1  0.37466849  0.63613880  0.59155757  1
  Na  Na17  1  0.36648876  0.63602396  0.91595255  1
  Na  Na18  1  0.86953204  0.13748910  0.25396925  1
  Na  Na19  1  0.88116808  0.12329755  0.57785137  1
  Na  Na20  1  0.86495063  0.13339242  0.91444526  1
  Na  Na21  1  0.86249684  0.64467570  0.26144535  1
  Na  Na22  1  0.84694785  0.62580732  0.56803755  1
  Na  Na23  1  0.85445879  0.63482139  0.90607255  1
  Na  Na24  1  0.47457148  0.00675406  0.10112529  1
  Na  Na25  1  0.51265414  0.49151905  0.42054834  1
  Na  Na26  1  0.98612796  0.49771617  0.44034604  1
  Na  Na27  1  0.50289483  -0.01529518  0.75421713  1
  Na  Na28  1  0.50000516  0.52033046  0.73441296  1
  Na  Na29  1  0.95494539  0.51098614  0.64189894  1
  Na  Na30  1  1.01727196  0.48726827  0.07859032  1
  Na  Na31  1  0.99573135  0.01329108  0.73467665  1
  Na  Na32  1  1.01006131  -0.00718126  0.08034256  1
  Na  Na33  1  0.01398635  0.49840179  0.89954622  1
  Na  Na34  1  0.45375499  1.02070688  0.29853794  1
  Na  Na35  1  0.53034491  0.48891619  0.24013035  1
  Na  Na36  1  0.01226572  0.99286429  0.26432196  1
  Na  Na37  1  0.50964520  0.99020357  0.56588121  1
  Na  Na38  1  0.00160101  0.49236710  0.25754376  1
  Na  Na39  1  0.04806533  0.99204031  0.92367090  1
  Na  Na40  1  0.50079495  0.49624833  0.92870123  1
  Na  Na41  1  0.50320048  0.96014642  0.91642332  1
  Na  Na42  1  0.75048776  0.25418838  0.33477178  1
  Na  Na43  1  0.74071025  0.73727520  0.67763885  1
  Na  Na44  1  0.25923825  0.75847241  -0.00209675  1
  Na  Na45  1  0.25891660  0.76531586  0.32635449  1
  Na  Na46  1  0.26686776  0.76265738  0.66148606  1
  Na  Na47  1  0.76250987  0.26409727  0.65837612  1
  Na  Na48  1  0.23200965  0.23715164  0.67311652  1
  Na  Na49  1  0.75116173  0.75384615  -0.00636586  1
  Na  Na50  1  0.74290889  0.24769468  0.00100507  1
  Na  Na51  1  0.25248142  0.25197342  0.32588852  1
  Na  Na52  1  0.72798953  0.73782152  0.18461873  1
  Na  Na53  1  0.75261598  0.25370835  0.82860886  1
  Na  Na54  1  0.74430140  0.74062351  0.49173218  1
  Na  Na55  1  0.26284630  0.75983180  0.82491363  1
  Na  Na56  1  0.73983503  0.24607571  0.16850215  1
  Na  Na57  1  0.76604323  0.26130733  0.49975104  1
  Na  Na58  1  0.26073934  0.76074168  0.16579175  1
  Na  Na59  1  0.23751023  0.24005097  0.50587064  1
  Na  Na60  1  0.23973390  0.24448566  0.84930445  1
  Na  Na61  1  0.25936411  0.76066747  0.49397471  1
  Fe  Fe62  1  0.97222681  0.29738692  0.46268246  1
  Fe  Fe63  1  0.46550755  0.31183034  0.45360552  1
  Fe  Fe64  1  0.96338764  0.81011405  0.45222456  1
  Fe  Fe65  1  0.96364287  0.80637484  0.11770916  1
  Fe  Fe66  1  0.46255223  0.30816259  0.78375818  1
  Fe  Fe67  1  0.47111695  0.80201928  0.12980537  1
  Fe  Fe68  1  0.46533459  0.80251814  0.44747351  1
  Fe  Fe69  1  0.96443913  0.30701557  0.11866133  1
  Fe  Fe70  1  0.96595902  0.30606920  0.78605398  1
  Fe  Fe71  1  0.96319327  0.80776535  0.78517060  1
  Fe  Fe72  1  0.69018117  0.53630691  0.04884542  1
  Fe  Fe73  1  0.69839220  0.53127642  0.70963626  1
  Fe  Fe74  1  0.18796141  0.03703366  0.70855227  1
  Fe  Fe75  1  0.19916840  0.03343994  0.38060332  1
  Fe  Fe76  1  0.19780570  0.53864409  0.05274911  1
  Fe  Fe77  1  0.69023943  0.03657321  0.37927244  1
  Fe  Fe78  1  0.19320068  0.53467792  0.38174520  1
  Fe  Fe79  1  0.69414847  0.03412027  0.04625076  1
  Fe  Fe80  1  0.69368157  0.03452843  0.71192769  1
  Fe  Fe81  1  0.19087744  0.53440254  0.71387436  1
  Fe  Fe82  1  0.03687970  0.69564498  0.55001477  1
  Fe  Fe83  1  0.03738275  0.19322255  0.88574122  1
  Fe  Fe84  1  0.52889140  0.20268537  0.20859123  1
  Fe  Fe85  1  0.53261645  0.70011482  0.87623110  1
  Fe  Fe86  1  0.03492142  0.69121886  0.87926137  1
  Fe  Fe87  1  0.03761571  0.19020844  0.21158542  1
  Fe  Fe88  1  0.53368140  0.69071687  0.54729845  1
  Fe  Fe89  1  0.53420957  0.18942494  0.54274632  1
  Fe  Fe90  1  0.52959443  0.19439469  0.88015260  1
  Fe  Fe91  1  0.03000559  0.69250807  0.21543998  1
  Fe  Fe92  1  0.80319733  0.46654360  0.29293406  1
  Fe  Fe93  1  0.30708974  0.46648245  0.61781477  1
  Fe  Fe94  1  0.80400785  0.96281697  0.61346063  1
  Fe  Fe95  1  0.30944698  0.96586039  0.62146955  1
  Fe  Fe96  1  0.81039413  0.96486888  0.95020635  1
  Fe  Fe97  1  0.80470678  0.46679825  0.95563402  1
  Fe  Fe98  1  0.29992944  0.97090800  0.95749802  1
  Fe  Fe99  1  0.30997423  0.46598953  0.28314011  1
  Fe  Fe100  1  0.81049475  0.96624053  0.28822182  1
  Fe  Fe101  1  0.31292423  0.46509275  0.95874395  1
  S  S102  1  0.36272117  0.13295551  0.08221499  1
  S  S103  1  0.36056732  0.14729262  0.41613832  1
  S  S104  1  0.35789145  0.14241408  0.74929163  1
  S  S105  1  0.35957926  0.64139221  0.08088905  1
  S  S106  1  0.35447067  0.64176575  0.41812358  1
  S  S107  1  0.35826949  0.63822718  0.75071179  1
  S  S108  1  0.85864532  0.14129126  0.08162854  1
  S  S109  1  0.85799215  0.13707544  0.41491060  1
  S  S110  1  0.86040009  0.13905668  0.74950094  1
  S  S111  1  0.85756619  0.64130976  0.08435411  1
  S  S112  1  0.86812021  0.63613099  0.41812719  1
  S  S113  1  0.86226201  0.64321550  0.75223300  1
  S  S114  1  0.13750323  0.36439637  0.24773530  1
  S  S115  1  0.14383345  0.36225670  0.58283957  1
  S  S116  1  0.13884735  0.36504891  0.92295617  1
  S  S117  1  0.13548034  0.85716856  0.25143018  1
  S  S118  1  0.13998627  0.85905694  0.58425602  1
  S  S119  1  0.13969641  0.85505959  0.91413341  1
  S  S120  1  0.64450855  0.36005378  0.25451408  1
  S  S121  1  0.63854769  0.35624344  0.58531357  1
  S  S122  1  0.63838352  0.35875624  0.91493830  1
  S  S123  1  0.64255998  0.86543645  0.24732811  1
  S  S124  1  0.63929436  0.86011787  0.58412460  1
  S  S125  1  0.64457995  0.86304500  0.91630737  1
  S  S126  1  0.05774703  0.16446569  0.04102677  1
  S  S127  1  0.07062164  0.17363140  0.37449128  1
  S  S128  1  0.06687023  0.17436174  0.71489076  1
  S  S129  1  0.06592370  0.66902955  0.04275776  1
  S  S130  1  0.06976916  0.67013757  0.37739673  1
  S  S131  1  0.06798463  0.67139660  0.71028409  1
  S  S132  1  0.56998033  0.16303139  0.03617580  1
  S  S133  1  0.57138498  0.17766903  0.37688303  1
  S  S134  1  0.56492421  0.16527028  0.70801899  1
  S  S135  1  0.56931973  0.67563710  0.03957883  1
  S  S136  1  0.55423971  0.65868012  0.37615362  1
  S  S137  1  0.57128173  0.66713422  0.71014877  1
  S  S138  1  0.33717763  0.44281614  0.12717293  1
  S  S139  1  0.32868203  0.43536696  0.45524612  1
  S  S140  1  0.32906118  0.43165976  0.79111926  1
  S  S141  1  0.33554573  0.92631215  0.12714984  1
  S  S142  1  0.32863736  0.93306523  0.45939466  1
  S  S143  1  0.32839862  0.94081228  0.79192864  1
  S  S144  1  0.83009762  0.43161440  0.12672282  1
  S  S145  1  0.84192674  0.42976560  0.46169541  1
  S  S146  1  0.82811611  0.43199350  0.79533557  1
  S  S147  1  0.83507476  0.93625348  0.12357633  1
  S  S148  1  0.82231969  0.92580671  0.45281652  1
  S  S149  1  0.83290040  0.93485217  0.78879469  1
  S  S150  1  0.43201691  0.33135993  0.29434600  1
  S  S151  1  0.42987561  0.33186280  0.62402442  1
  S  S152  1  0.43375750  0.33157749  0.95293877  1
  S  S153  1  0.43061401  0.82858459  0.29032013  1
  S  S154  1  0.43766620  0.83229894  0.62507902  1
  S  S155  1  0.43265477  0.82922662  0.96139304  1
  S  S156  1  0.93225683  0.33103955  0.29156432  1
  S  S157  1  0.93034749  0.32227551  0.62452572  1
  S  S158  1  0.93078050  0.33089452  0.95773099  1
  S  S159  1  0.92978673  0.83096304  0.28817211  1
  S  S160  1  0.93071980  0.82815918  0.62269976  1
  S  S161  1  0.93495854  0.82985377  0.95899694  1
  S  S162  1  0.15716076  0.06278255  0.20947168  1
  S  S163  1  0.17487594  0.06832831  0.54591606  1
  S  S164  1  0.16615569  0.06438641  0.87013505  1
  S  S165  1  0.16529670  0.57026434  0.21067922  1
  S  S166  1  0.17287993  0.57159616  0.54457587  1
  S  S167  1  0.17148059  0.56778886  0.87774033  1
  S  S168  1  0.66962716  0.07341199  0.20820618  1
  S  S169  1  0.67069904  0.06979694  0.54339872  1
  S  S170  1  0.66987947  0.06840278  0.87381290  1
  S  S171  1  0.67507096  0.56195921  0.20849467  1
  S  S172  1  0.66763312  0.57026290  0.54432069  1
  S  S173  1  0.66684601  0.56432384  0.87521663  1
  O  O174  1  0.37179308  0.20548139  0.06690531  1
  O  O175  1  0.36792841  0.23094323  0.41802946  1
  O  O176  1  0.36865123  0.21907989  0.73692860  1
  O  O177  1  0.37264522  0.72152876  0.07342274  1
  O  O178  1  0.36105130  0.72258764  0.41309837  1
  O  O179  1  0.36241259  0.71465603  0.74066931  1
  O  O180  1  0.86636944  0.21992431  0.07209517  1
  O  O181  1  0.86754023  0.21681033  0.40672647  1
  O  O182  1  0.86712855  0.21903582  0.74386936  1
  O  O183  1  0.86850497  0.71924486  0.07442089  1
  O  O184  1  0.88119610  0.71165240  0.40536525  1
  O  O185  1  0.86902898  0.72663165  0.75202187  1
  O  O186  1  0.28793111  0.11406247  0.09011265  1
  O  O187  1  0.28287300  0.13476664  0.42634238  1
  O  O188  1  0.27607700  0.13565863  0.75151133  1
  O  O189  1  0.27647128  0.63820383  0.08372581  1
  O  O190  1  0.27511015  0.63155679  0.42593424  1
  O  O191  1  0.28053238  0.62433664  0.76131441  1
  O  O192  1  0.77920800  0.13214472  0.08895997  1
  O  O193  1  0.77685995  0.13070592  0.42142294  1
  O  O194  1  0.78159581  0.12864540  0.75848033  1
  O  O195  1  0.77801700  0.63342730  0.09054870  1
  O  O196  1  0.79523759  0.62960220  0.43354680  1
  O  O197  1  0.78522316  0.62998623  0.76197345  1
  O  O198  1  0.12809211  0.28592018  0.25603084  1
  O  O199  1  0.14161538  0.28553302  0.59232299  1
  O  O200  1  0.12825455  0.28640353  0.93067146  1
  O  O201  1  0.12085575  0.78001545  0.26295071  1
  O  O202  1  0.13132370  0.78193277  0.59735229  1
  O  O203  1  0.13250081  0.77346788  0.91775156  1
  O  O204  1  0.63456513  0.27574232  0.25114174  1
  O  O205  1  0.62143791  0.27949136  0.59750958  1
  O  O206  1  0.62891714  0.27968575  0.92246926  1
  O  O207  1  0.64149649  0.78823134  0.25603029  1
  O  O208  1  0.62934098  0.78356190  0.59582144  1
  O  O209  1  0.63314766  0.78267150  0.91999769  1
  O  O210  1  0.21565975  0.37542703  0.24022644  1
  O  O211  1  0.22063023  0.37693619  0.57011976  1
  O  O212  1  0.21721988  0.37341806  0.91408761  1
  O  O213  1  0.21317590  0.86085625  0.24419856  1
  O  O214  1  0.22100658  0.86584495  0.57967881  1
  O  O215  1  0.21697907  0.86580403  0.90288377  1
  O  O216  1  0.72915641  0.36756876  0.25194576  1
  O  O217  1  0.71606593  0.35644325  0.57667774  1
  O  O218  1  0.71991682  0.36825184  0.91221672  1
  O  O219  1  0.71765758  0.88180216  0.23248273  1
  O  O220  1  0.71837970  0.86706395  0.57580219  1
  O  O221  1  0.72532855  0.87254447  0.91223963  1
  O  O222  1  0.42644074  0.12927869  0.15282608  1
  O  O223  1  0.42091278  0.13628966  0.48322692  1
  O  O224  1  0.41223992  0.13833758  0.82110997  1
  O  O225  1  0.41380825  0.63109853  0.14675852  1
  O  O226  1  0.41259499  0.63291934  0.48569380  1
  O  O227  1  0.41920568  0.63177712  0.81847212  1
  O  O228  1  0.91695697  0.13527522  0.15030896  1
  O  O229  1  0.91586944  0.12631480  0.47853159  1
  O  O230  1  0.92006801  0.13029896  0.81667610  1
  O  O231  1  0.91514636  0.63456137  0.15401173  1
  O  O232  1  0.93351628  0.62503101  0.48196449  1
  O  O233  1  0.92280937  0.63372136  0.81977376  1
  O  O234  1  0.37895112  0.06742255  0.01901168  1
  O  O235  1  0.36687654  0.09599068  0.34591684  1
  O  O236  1  0.37125848  0.08065405  0.68584849  1
  O  O237  1  0.36349838  0.58394884  0.00958790  1
  O  O238  1  0.36142060  0.58553122  0.34873400  1
  O  O239  1  0.36839529  0.57699863  0.68381083  1
  O  O240  1  0.86644924  0.08197796  0.01362679  1
  O  O241  1  0.86034198  0.07987718  0.34237595  1
  O  O242  1  0.86857750  0.08077304  0.68110355  1
  O  O243  1  0.86679267  0.58086061  0.01778737  1
  O  O244  1  0.87179466  0.57348183  0.34808360  1
  O  O245  1  0.87102935  0.59189031  0.68292112  1
  O  O246  1  0.07764882  0.37330596  0.18019797  1
  O  O247  1  0.08243429  0.36885814  0.51556987  1
  O  O248  1  0.07909153  0.37489049  0.85543639  1
  O  O249  1  0.07619452  0.86435147  0.18223545  1
  O  O250  1  0.08352776  0.86150984  0.51296642  1
  O  O251  1  0.07874485  0.86456848  0.84650781  1
  O  O252  1  0.59167461  0.37383895  0.18828917  1
  O  O253  1  0.58003752  0.36589298  0.51773654  1
  O  O254  1  0.58297811  0.36483608  0.84432241  1
  O  O255  1  0.57906002  0.86982464  0.17942533  1
  O  O256  1  0.57980936  0.86918075  0.51724313  1
  O  O257  1  0.58694027  0.87813105  0.85298087  1
  O  O258  1  0.12735440  0.42344475  0.31589313  1
  O  O259  1  0.13642952  0.42245995  0.65121244  1
  O  O260  1  0.13044011  0.42438978  0.99098649  1
  O  O261  1  0.12612227  0.91923064  0.31741797  1
  O  O262  1  0.12900791  0.92000833  0.64887896  1
  O  O263  1  0.13176290  0.91077925  0.98207593  1
  O  O264  1  0.63782825  0.41195354  0.32438223  1
  O  O265  1  0.63401892  0.41791493  0.65347319  1
  O  O266  1  0.62647409  0.41836216  0.98041613  1
  O  O267  1  0.63396961  0.92461064  0.31494831  1
  O  O268  1  0.63323032  0.92210376  0.65228787  1
  O  O269  1  0.63823319  0.91861010  0.98843457  1
  O  O270  1  0.02586856  0.20558340  0.10478794  1
  O  O271  1  0.03531179  0.20233309  0.43445805  1
  O  O272  1  0.03310559  0.20466437  0.77989728  1
  O  O273  1  0.02882935  0.69707644  0.10336828  1
  O  O274  1  0.03931974  0.70291204  0.44148165  1
  O  O275  1  0.03023203  0.70204895  0.77005753  1
  O  O276  1  0.54138549  0.18941196  0.10008899  1
  O  O277  1  0.53282351  0.20608349  0.43699848  1
  O  O278  1  0.52873631  0.19481403  0.76902509  1
  O  O279  1  0.53258861  0.70449870  0.09872177  1
  O  O280  1  0.52357283  0.70094873  0.44269652  1
  O  O281  1  0.53312331  0.68823906  0.76923164  1
  O  O282  1  0.29775188  0.47760983  0.06400381  1
  O  O283  1  0.29760413  0.47201922  0.39392720  1
  O  O284  1  0.29893713  0.46595067  0.72888650  1
  O  O285  1  0.31133930  0.94299717  0.05513439  1
  O  O286  1  0.30040371  0.97030492  0.40123272  1
  O  O287  1  0.29199811  0.97524038  0.72959701  1
  O  O288  1  0.79969670  0.46977454  0.06732066  1
  O  O289  1  0.82299662  0.46056108  0.39638858  1
  O  O290  1  0.79992064  0.46760692  0.73609411  1
  O  O291  1  0.80617115  0.97385354  0.06331647  1
  O  O292  1  0.79484984  0.96547136  0.39380379  1
  O  O293  1  0.80318511  0.97150346  0.72772061  1
  O  O294  1  0.46734030  0.30236026  0.23460154  1
  O  O295  1  0.46598215  0.30449723  0.56360691  1
  O  O296  1  0.46849919  0.30054669  0.88834834  1
  O  O297  1  0.46957977  0.79980479  0.23142797  1
  O  O298  1  0.46770477  0.79977624  0.55967008  1
  O  O299  1  0.47277863  0.80292405  0.90439310  1
  O  O300  1  0.96709503  0.30409999  0.22910911  1
  O  O301  1  0.97159630  0.29834232  0.56851695  1
  O  O302  1  0.96530276  0.30029799  0.89593516  1
  O  O303  1  0.96435817  0.79746326  0.22587908  1
  O  O304  1  0.96793838  0.79953818  0.56196511  1
  O  O305  1  0.97192094  0.79972353  0.89871133  1
  O  O306  1  0.18612650  0.03266263  0.27349830  1
  O  O307  1  0.20940282  0.02604504  0.60389098  1
  O  O308  1  0.19360319  0.02745752  0.92926703  1
  O  O309  1  0.19763248  0.53603532  0.27222447  1
  O  O310  1  0.20314950  0.53705480  0.60656464  1
  O  O311  1  0.19909122  0.52995147  0.93743310  1
  O  O312  1  0.69660195  0.03898123  0.27013451  1
  O  O313  1  0.70238701  0.03084662  0.60320340  1
  O  O314  1  0.70112440  0.03351991  0.93542617  1
  O  O315  1  0.71141527  0.52188082  0.26607858  1
  O  O316  1  0.69716364  0.54228476  0.60976558  1
  O  O317  1  0.69624518  0.52716381  0.93674664  1
  O  O318  1  0.05695219  0.08159644  0.03532087  1
  O  O319  1  0.09218335  0.09347746  0.37009661  1
  O  O320  1  0.08968023  0.09482932  0.71558283  1
  O  O321  1  0.08387408  0.58652783  0.03655007  1
  O  O322  1  0.08542596  0.58738332  0.37171497  1
  O  O323  1  0.08504310  0.58992883  0.70635704  1
  O  O324  1  0.58602646  0.07883885  0.02197413  1
  O  O325  1  0.58722651  0.09549518  0.37159463  1
  O  O326  1  0.58086455  0.08216644  0.70084755  1
  O  O327  1  0.58796448  0.59387373  0.03425200  1
  O  O328  1  0.55483977  0.57575019  0.37077802  1
  O  O329  1  0.59128616  0.58533697  0.70080936  1
  O  O330  1  0.41925953  0.44155505  0.13460450  1
  O  O331  1  0.40933367  0.41764725  0.45892730  1
  O  O332  1  0.41215887  0.41641468  0.79771924  1
  O  O333  1  0.41865388  0.90445807  0.14085588  1
  O  O334  1  0.40731363  0.90688844  0.46197527  1
  O  O335  1  0.41070190  0.93326342  0.79675998  1
  O  O336  1  0.91312745  0.41670221  0.13108656  1
  O  O337  1  0.92132305  0.40192685  0.46974269  1
  O  O338  1  0.90953323  0.41127850  0.80268704  1
  O  O339  1  0.91804207  0.91987305  0.12994138  1
  O  O340  1  0.90142943  0.90369760  0.45499370  1
  O  O341  1  0.91570348  0.91939316  0.79512061  1
  O  O342  1  0.41128534  0.41296134  0.29814952  1
  O  O343  1  0.41340176  0.41456994  0.63333226  1
  O  O344  1  0.41533115  0.41307152  0.95411958  1
  O  O345  1  0.40604401  0.90529389  0.29443903  1
  O  O346  1  0.41588357  0.91343161  0.62696828  1
  O  O347  1  0.41445834  0.91102281  0.96583785  1
  O  O348  1  0.91226389  0.41343824  0.29690133  1
  O  O349  1  0.89866161  0.39628100  0.62732371  1
  O  O350  1  0.91360351  0.41313578  0.96424064  1
  O  O351  1  0.91643239  0.91308504  0.29126006  1
  O  O352  1  0.91122681  0.90942100  0.62841916  1
  O  O353  1  0.91689064  0.91154129  0.96213488  1
  O  O354  1  0.07219533  0.07904164  0.20171326  1
  O  O355  1  0.09949753  0.08848648  0.55005686  1
  O  O356  1  0.08315490  0.08280132  0.86664901  1
  O  O357  1  0.08135808  0.58306092  0.20502259  1
  O  O358  1  0.09164123  0.59006737  0.53950441  1
  O  O359  1  0.09039361  0.58743801  0.87452362  1
  O  O360  1  0.58879735  0.09352887  0.19969535  1
  O  O361  1  0.58921491  0.08522205  0.54272749  1
  O  O362  1  0.58797755  0.08582781  0.86725144  1
  O  O363  1  0.59795998  0.57851337  0.21139683  1
  O  O364  1  0.58449433  0.58906606  0.53614439  1
  O  O365  1  0.58410310  0.57956633  0.86814254  1
  O  O366  1  0.13366904  0.20383832  0.05394125  1
  O  O367  1  0.14065595  0.22709788  0.38779713  1
  O  O368  1  0.13806340  0.22863703  0.73355153  1
  O  O369  1  0.13669410  0.72135243  0.05918470  1
  O  O370  1  0.14041825  0.71936694  0.38768735  1
  O  O371  1  0.13976799  0.72277254  0.72660292  1
  O  O372  1  0.64179820  0.21362265  0.04881092  1
  O  O373  1  0.64412516  0.22930236  0.39658660  1
  O  O374  1  0.63755461  0.21576800  0.72563901  1
  O  O375  1  0.64128783  0.72736460  0.05584769  1
  O  O376  1  0.63272309  0.69945059  0.39539361  1
  O  O377  1  0.64074224  0.72178182  0.72834634  1
  O  O378  1  0.29361092  0.36765157  0.11074283  1
  O  O379  1  0.27563054  0.36467491  0.43834410  1
  O  O380  1  0.27864703  0.36003846  0.77657830  1
  O  O381  1  0.28218919  0.85790840  0.11812663  1
  O  O382  1  0.27223297  0.86487099  0.44581608  1
  O  O383  1  0.28200324  0.86428378  0.77262820  1
  O  O384  1  0.78003527  0.35890677  0.10903380  1
  O  O385  1  0.78298881  0.36357634  0.44527833  1
  O  O386  1  0.77564756  0.36040500  0.78058643  1
  O  O387  1  0.78436336  0.86390613  0.10501669  1
  O  O388  1  0.76715509  0.85854131  0.43903010  1
  O  O389  1  0.78151420  0.86404729  0.77256888  1
  O  O390  1  0.36349153  0.27973810  0.28490537  1
  O  O391  1  0.35867419  0.28027795  0.60821811  1
  O  O392  1  0.36127316  0.28120597  0.93448797  1
  O  O393  1  0.36291319  0.77023446  0.27430000  1
  O  O394  1  0.36646744  0.78053591  0.61167203  1
  O  O395  1  0.35977048  0.77649259  0.94057811  1
  O  O396  1  0.86163976  0.27792955  0.27476541  1
  O  O397  1  0.86631091  0.25983771  0.60845406  1
  O  O398  1  0.85949278  0.27943714  0.94285298  1
  O  O399  1  0.85719435  0.78274562  0.27342870  1
  O  O400  1  0.86093943  0.77469213  0.60674355  1
  O  O401  1  0.86565417  0.77837298  0.94664927  1
  O  O402  1  0.20356906  0.13695491  0.22375927  1
  O  O403  1  0.23253314  0.13736046  0.56419237  1
  O  O404  1  0.21654255  0.13481067  0.88324335  1
  O  O405  1  0.21279690  0.64293749  0.22367376  1
  O  O406  1  0.22519034  0.64179196  0.55858588  1
  O  O407  1  0.22395737  0.63839019  0.89356963  1
  O  O408  1  0.72504697  0.14252531  0.22345382  1
  O  O409  1  0.72079762  0.14253929  0.56169916  1
  O  O410  1  0.72162590  0.13968837  0.88864266  1
  O  O411  1  0.72859630  0.63095578  0.22196186  1
  O  O412  1  0.71739022  0.64361630  0.55851496  1
  O  O413  1  0.71848876  0.63618006  0.89453634  1
  O  O414  1  0.49279140  0.33266111  0.02168004  1
  O  O415  1  0.49408997  0.34202595  0.36945991  1
  O  O416  1  0.48970324  0.33186272  0.69625615  1
  O  O417  1  0.48698452  0.83132099  0.03648879  1
  O  O418  1  0.49104945  0.83096117  0.36330019  1
  O  O419  1  0.49924940  0.84036700  0.69560691  1
  O  O420  1  0.99128481  0.33481486  0.03023253  1
  O  O421  1  0.99210677  0.33476416  0.36332385  1
  O  O422  1  0.99020017  0.33029906  0.70050572  1
  O  O423  1  0.99609083  0.83643607  0.03264081  1
  O  O424  1  0.98928240  0.83140486  0.35982411  1
  O  O425  1  0.99123470  0.83195815  0.69532388  1
  O  O426  1  0.15419261  0.00295289  0.13917009  1
  O  O427  1  0.17271193  0.01199368  0.47115520  1
  O  O428  1  0.15830986  0.00477656  0.79530345  1
  O  O429  1  0.16184768  0.51056799  0.13778021  1
  O  O430  1  0.16875042  0.51032266  0.47228460  1
  O  O431  1  0.16718702  0.50898201  0.80440946  1
  O  O432  1  0.66943408  0.01213557  0.13684229  1
  O  O433  1  0.66784901  0.01322112  0.47052622  1
  O  O434  1  0.66763313  0.00809211  0.80161068  1
  O  O435  1  0.66960744  0.50385249  0.13224049  1
  O  O436  1  0.66643531  0.50922908  0.47570993  1
  O  O437  1  0.66738858  0.50652345  0.80303525  1
  O  O438  1  0.01002603  0.16956095  0.30096101  1
  O  O439  1  0.00792850  0.16911495  0.64520477  1
  O  O440  1  0.00018648  0.17051150  0.96944297  1
  O  O441  1  0.00650601  0.66623762  0.30622867  1
  O  O442  1  0.00899844  0.66835612  0.63748063  1
  O  O443  1  0.00667188  0.66606858  0.96997492  1
  O  O444  1  0.51411643  0.17675301  0.30475312  1
  O  O445  1  0.50678686  0.16507075  0.63581727  1
  O  O446  1  0.50797833  0.16537266  0.96638502  1
  O  O447  1  0.50034500  0.66833424  0.30846270  1
  O  O448  1  0.51112452  0.66874668  0.63885408  1
  O  O449  1  0.51132314  0.67088292  0.96501341  1
  O  O450  1  0.32690523  0.50017975  0.19727042  1
  O  O451  1  0.33071480  0.49432316  0.52781983  1
  O  O452  1  0.33066138  0.49176147  0.86302501  1
  O  O453  1  0.33735858  0.99481310  0.19041952  1
  O  O454  1  0.33876493  0.99235197  0.53505322  1
  O  O455  1  0.32378860  0.99466998  0.86395103  1
  O  O456  1  0.83348011  0.48790548  0.20118102  1
  O  O457  1  0.84755259  0.49397659  0.52967171  1
  O  O458  1  0.83205111  0.49138473  0.86947842  1
  O  O459  1  0.83610486  0.99408052  0.19599485  1
  O  O460  1  0.82921637  0.98706120  0.52668917  1
  O  O461  1  0.83391576  0.99418500  0.86126321  1
