# generated using pymatgen
data_Na31Fe20(SO4)36
_symmetry_space_group_name_H-M   'P 1'
_cell_length_a   18.06584524
_cell_length_b   18.06467820
_cell_length_c   19.69866181
_cell_angle_alpha   107.55728186
_cell_angle_beta   107.59476113
_cell_angle_gamma   90.71449981
_symmetry_Int_Tables_number   1
_chemical_formula_structural   Na31Fe20(SO4)36
_chemical_formula_sum   'Na62 Fe40 S72 O288'
_cell_volume   5804.38997208
_cell_formula_units_Z   2
loop_
 _symmetry_equiv_pos_site_id
 _symmetry_equiv_pos_as_xyz
  1  'x, y, z'
loop_
 _atom_site_type_symbol
 _atom_site_label
 _atom_site_symmetry_multiplicity
 _atom_site_fract_x
 _atom_site_fract_y
 _atom_site_fract_z
 _atom_site_occupancy
  Na  Na0  1  0.12841374  0.34921595  0.06833055  1
  Na  Na1  1  0.12952625  0.36335670  0.41145588  1
  Na  Na2  1  0.13479706  0.37087284  0.75425853  1
  Na  Na3  1  0.13413238  0.86320638  0.08115804  1
  Na  Na4  1  0.14462445  0.86199246  0.42400638  1
  Na  Na5  1  0.13031169  0.86628531  0.75219671  1
  Na  Na6  1  0.63412188  0.36088404  0.08026522  1
  Na  Na7  1  0.64260799  0.37242366  0.43116006  1
  Na  Na8  1  0.63030268  0.36281807  0.74274728  1
  Na  Na9  1  0.63441934  0.87135283  0.08272047  1
  Na  Na10  1  0.63857687  0.86100415  0.41207121  1
  Na  Na11  1  0.63219279  0.87520098  0.75105505  1
  Na  Na12  1  0.37563218  0.13031310  0.25416477  1
  Na  Na13  1  0.37183731  0.13963772  0.58724551  1
  Na  Na14  1  0.36952530  0.12032412  0.91600647  1
  Na  Na15  1  0.35920116  0.64092991  0.24569833  1
  Na  Na16  1  0.34691594  0.65477118  0.58420167  1
  Na  Na17  1  0.36368030  0.63619549  0.91362982  1
  Na  Na18  1  0.85260797  0.12878275  0.23288497  1
  Na  Na19  1  0.86761842  0.14049422  0.58849564  1
  Na  Na20  1  0.88306742  0.13879411  0.92844028  1
  Na  Na21  1  0.85613004  0.62395928  0.23977072  1
  Na  Na22  1  0.86274920  0.63468794  0.59110556  1
  Na  Na23  1  0.86347884  0.63118117  0.91690164  1
  Na  Na24  1  0.95151931  0.50528828  0.74551576  1
  Na  Na25  1  0.98998876  0.00251590  0.41359985  1
  Na  Na26  1  1.00968337  0.45630823  0.13121705  1
  Na  Na27  1  0.50539231  0.50067014  0.08061949  1
  Na  Na28  1  0.48340095  0.51392764  0.41724986  1
  Na  Na29  1  0.48348255  0.00474361  0.05642481  1
  Na  Na30  1  0.99257829  0.51275302  0.40069174  1
  Na  Na31  1  0.49594570  0.03822645  0.41786371  1
  Na  Na32  1  0.48862844  0.51534597  0.75185751  1
  Na  Na33  1  -0.00281910  0.47730190  0.93133069  1
  Na  Na34  1  0.01872828  0.98375308  0.88865562  1
  Na  Na35  1  0.51631488  0.48574357  0.58394551  1
  Na  Na36  1  0.54920438  0.49560869  0.92869846  1
  Na  Na37  1  -0.00428950  1.01909762  0.20812090  1
  Na  Na38  1  0.00516098  0.98668730  0.60770837  1
  Na  Na39  1  0.50736780  1.00172151  0.59310706  1
  Na  Na40  1  -0.01081613  0.50465082  0.58253767  1
  Na  Na41  1  0.51060075  0.49017048  0.25032348  1
  Na  Na42  1  0.76316032  0.76215684  0.66223131  1
  Na  Na43  1  0.24976474  0.25092586  0.33443717  1
  Na  Na44  1  0.24210327  0.23972775  -0.00083076  1
  Na  Na45  1  0.77317356  0.25122516  0.00657292  1
  Na  Na46  1  0.25087436  0.75274235  0.33190326  1
  Na  Na47  1  0.74978828  0.74365725  0.00484155  1
  Na  Na48  1  0.24933594  0.75819088  -0.00274075  1
  Na  Na49  1  0.73159769  0.23899930  0.66847387  1
  Na  Na50  1  0.74872985  0.24955706  0.33415736  1
  Na  Na51  1  0.24765100  0.24741914  0.67173817  1
  Na  Na52  1  0.75973127  0.75869680  0.82728816  1
  Na  Na53  1  0.74703660  0.25493344  0.50937494  1
  Na  Na54  1  0.24844754  0.24655302  0.50146249  1
  Na  Na55  1  0.23510971  0.23776762  0.84010399  1
  Na  Na56  1  0.75259877  0.24838935  0.83807490  1
  Na  Na57  1  0.26155152  0.76742629  0.82117417  1
  Na  Na58  1  0.73626660  0.73400020  0.17856776  1
  Na  Na59  1  0.76130471  0.75793299  0.48794186  1
  Na  Na60  1  0.24251505  0.24030965  0.16787455  1
  Na  Na61  1  0.74925963  0.24468205  0.16154157  1
  Fe  Fe62  1  0.46121279  0.30768057  0.11678966  1
  Fe  Fe63  1  0.46767981  0.30083650  0.45447251  1
  Fe  Fe64  1  0.46424647  0.81193672  0.11911075  1
  Fe  Fe65  1  0.96793663  0.80593066  0.12029055  1
  Fe  Fe66  1  0.46720668  0.81238243  0.78743253  1
  Fe  Fe67  1  0.96429166  0.80655086  0.45033861  1
  Fe  Fe68  1  0.46660231  0.30647901  0.78550192  1
  Fe  Fe69  1  0.96265410  0.30876341  0.45460464  1
  Fe  Fe70  1  0.96823147  0.30136910  0.78858547  1
  Fe  Fe71  1  0.46573221  0.80907386  0.45207545  1
  Fe  Fe72  1  0.20376877  0.02642376  0.03548983  1
  Fe  Fe73  1  0.69494526  0.03975550  0.71590643  1
  Fe  Fe74  1  0.18881530  0.53773346  0.38051753  1
  Fe  Fe75  1  0.19353907  0.03288608  0.37528911  1
  Fe  Fe76  1  0.19088957  0.54113213  0.04770548  1
  Fe  Fe77  1  0.19235511  0.53759759  0.71489567  1
  Fe  Fe78  1  0.69370071  0.53611800  0.38507234  1
  Fe  Fe79  1  0.69845010  0.53014728  0.71307916  1
  Fe  Fe80  1  0.19823454  0.03253457  0.71599585  1
  Fe  Fe81  1  0.69077764  0.03430167  0.37842044  1
  Fe  Fe82  1  0.03731393  0.19223388  0.54496673  1
  Fe  Fe83  1  0.53941786  0.69328544  0.88300213  1
  Fe  Fe84  1  0.03726142  0.69601165  0.55182731  1
  Fe  Fe85  1  0.03308158  0.19922454  0.20529091  1
  Fe  Fe86  1  0.02358315  0.70105622  0.87730322  1
  Fe  Fe87  1  0.53601220  0.18812786  0.20962911  1
  Fe  Fe88  1  0.03526753  0.69055621  0.21312601  1
  Fe  Fe89  1  0.53719304  0.18347602  0.87934588  1
  Fe  Fe90  1  0.53444794  0.69431510  0.21615834  1
  Fe  Fe91  1  0.53247150  0.69689415  0.55141583  1
  Fe  Fe92  1  0.80311050  0.96792189  0.95861642  1
  Fe  Fe93  1  0.31441302  0.96018727  0.62160369  1
  Fe  Fe94  1  0.30996485  0.96116784  0.28277755  1
  Fe  Fe95  1  0.80109469  0.46771376  0.96465855  1
  Fe  Fe96  1  0.30566133  0.47163352  0.95092303  1
  Fe  Fe97  1  0.80197043  0.96456174  0.28110176  1
  Fe  Fe98  1  0.30373299  0.46994194  0.61725282  1
  Fe  Fe99  1  0.80328704  0.46217161  0.28531400  1
  Fe  Fe100  1  0.81343104  0.96619047  0.62637436  1
  Fe  Fe101  1  0.30567939  0.46631554  0.28428826  1
  S  S102  1  0.36187348  0.14332085  0.08501899  1
  S  S103  1  0.35822727  0.13934765  0.41520289  1
  S  S104  1  0.36044105  0.14131702  0.74890246  1
  S  S105  1  0.35933831  0.64304789  0.08422480  1
  S  S106  1  0.35795476  0.64055040  0.41642075  1
  S  S107  1  0.36081749  0.64140756  0.74953537  1
  S  S108  1  0.86960926  0.13515993  0.08471948  1
  S  S109  1  0.85990846  0.13819637  0.41659698  1
  S  S110  1  0.85778725  0.14437714  0.74715134  1
  S  S111  1  0.86044339  0.64212612  0.08702255  1
  S  S112  1  0.86310211  0.63845824  0.41757340  1
  S  S113  1  0.85417142  0.63888781  0.75005526  1
  S  S114  1  0.14294145  0.36273222  0.25077849  1
  S  S115  1  0.14197440  0.36066086  0.58137614  1
  S  S116  1  0.14211549  0.36552465  0.91556822  1
  S  S117  1  0.14192492  0.85939303  0.25088291  1
  S  S118  1  0.13759269  0.86296388  0.58080710  1
  S  S119  1  0.14204243  0.85565162  0.91842809  1
  S  S120  1  0.63546537  0.36005155  0.25250096  1
  S  S121  1  0.63696146  0.36258952  0.58271903  1
  S  S122  1  0.63816841  0.35383645  0.91729941  1
  S  S123  1  0.63937367  0.85873057  0.24948772  1
  S  S124  1  0.64159867  0.86032393  0.58494166  1
  S  S125  1  0.64275271  0.85601508  0.91498201  1
  S  S126  1  0.08209772  0.16144977  0.03995860  1
  S  S127  1  0.06700911  0.16799157  0.37243028  1
  S  S128  1  0.07133376  0.17275741  0.70671712  1
  S  S129  1  0.06786814  0.67056441  0.04031730  1
  S  S130  1  0.06746022  0.67169644  0.37493544  1
  S  S131  1  0.06612398  0.66492222  0.70868804  1
  S  S132  1  0.56213497  0.17067521  0.04437277  1
  S  S133  1  0.57093605  0.17441950  0.37751027  1
  S  S134  1  0.56510899  0.17131902  0.71030379  1
  S  S135  1  0.56161505  0.66860177  0.04414923  1
  S  S136  1  0.56318236  0.66864770  0.37771969  1
  S  S137  1  0.56572030  0.66662865  0.70890860  1
  S  S138  1  0.33045007  0.43585798  0.12363071  1
  S  S139  1  0.33120132  0.43520498  0.45747791  1
  S  S140  1  0.33386852  0.43635702  0.79078009  1
  S  S141  1  0.33208453  0.93473077  0.12402149  1
  S  S142  1  0.33435953  0.93600248  0.45841415  1
  S  S143  1  0.32892899  0.93071859  0.78563067  1
  S  S144  1  0.82212073  0.42602920  0.12562033  1
  S  S145  1  0.83197992  0.43630560  0.45779527  1
  S  S146  1  0.82701708  0.42667281  0.79549142  1
  S  S147  1  0.82861812  0.92734477  0.12268168  1
  S  S148  1  0.83433574  0.93640489  0.46076464  1
  S  S149  1  0.82655409  0.93516948  0.79192844  1
  S  S150  1  0.43217147  0.33340761  0.29261798  1
  S  S151  1  0.42733599  0.33674096  0.62531439  1
  S  S152  1  0.42884405  0.33458409  0.95612375  1
  S  S153  1  0.43447531  0.83157830  0.29484204  1
  S  S154  1  0.43637908  0.83364778  0.62227372  1
  S  S155  1  0.43662957  0.82561485  0.95311661  1
  S  S156  1  0.92946466  0.32529041  0.29220480  1
  S  S157  1  0.93965168  0.33170639  0.62355132  1
  S  S158  1  0.93294615  0.33802519  0.96341148  1
  S  S159  1  0.93086189  0.82890468  0.28918908  1
  S  S160  1  0.93376626  0.82677844  0.62293051  1
  S  S161  1  0.92408795  0.82800329  0.95933150  1
  S  S162  1  0.18033064  0.06980568  0.20905295  1
  S  S163  1  0.17257584  0.06860738  0.53972604  1
  S  S164  1  0.17419115  0.06293223  0.87543472  1
  S  S165  1  0.17030270  0.56682523  0.20942017  1
  S  S166  1  0.16299102  0.56469798  0.53899142  1
  S  S167  1  0.16649431  0.57238892  0.87504369  1
  S  S168  1  0.66711588  0.06491371  0.20797779  1
  S  S169  1  0.66965798  0.05896888  0.54147703  1
  S  S170  1  0.67910338  0.06979500  0.87925292  1
  S  S171  1  0.65949952  0.56023711  0.21017704  1
  S  S172  1  0.66427251  0.57381690  0.54293491  1
  S  S173  1  0.66970336  0.56282747  0.87487997  1
  O  O174  1  0.36402944  0.22451057  0.07894548  1
  O  O175  1  0.36822410  0.21796437  0.40526499  1
  O  O176  1  0.37089810  0.21977142  0.73858869  1
  O  O177  1  0.36661722  0.72161209  0.07555960  1
  O  O178  1  0.36807957  0.71868622  0.40744887  1
  O  O179  1  0.37145991  0.72135251  0.74638244  1
  O  O180  1  0.88795356  0.20759117  0.07163359  1
  O  O181  1  0.86900402  0.21847719  0.41132770  1
  O  O182  1  0.86976924  0.21977561  0.73101471  1
  O  O183  1  0.87440586  0.72030693  0.07762214  1
  O  O184  1  0.87058212  0.71763536  0.41063874  1
  O  O185  1  0.85800747  0.71688883  0.74277178  1
  O  O186  1  0.28005977  0.12798518  0.08712038  1
  O  O187  1  0.27485532  0.13186032  0.41538061  1
  O  O188  1  0.27992256  0.13521719  0.75477752  1
  O  O189  1  0.28223435  0.63071788  0.09384633  1
  O  O190  1  0.27832957  0.62918231  0.42078350  1
  O  O191  1  0.28317019  0.63114128  0.76019265  1
  O  O192  1  0.79606524  0.13354052  0.10180133  1
  O  O193  1  0.78288041  0.13032753  0.42881039  1
  O  O194  1  0.77212709  0.13950440  0.74229338  1
  O  O195  1  0.78612064  0.63806673  0.10140604  1
  O  O196  1  0.78584119  0.62877556  0.42928691  1
  O  O197  1  0.77787555  0.62618244  0.76469380  1
  O  O198  1  0.13210409  0.28524647  0.26267489  1
  O  O199  1  0.13650694  0.27931679  0.58533456  1
  O  O200  1  0.13977202  0.28855734  0.92497638  1
  O  O201  1  0.12934803  0.78032896  0.25785210  1
  O  O202  1  0.12833616  0.78519668  0.58977942  1
  O  O203  1  0.11834881  0.78265730  0.93269899  1
  O  O204  1  0.62590149  0.28089388  0.25992346  1
  O  O205  1  0.62809773  0.28749271  0.59489487  1
  O  O206  1  0.63038104  0.27321196  0.92236048  1
  O  O207  1  0.62945845  0.77903991  0.25624127  1
  O  O208  1  0.62970973  0.78424545  0.59803899  1
  O  O209  1  0.64012897  0.77310979  0.91754660  1
  O  O210  1  0.22561867  0.36802455  0.24802075  1
  O  O211  1  0.21888192  0.37220241  0.56925462  1
  O  O212  1  0.21839015  0.38008315  0.90215989  1
  O  O213  1  0.22160287  0.86752281  0.24549398  1
  O  O214  1  0.21436472  0.87527362  0.57089740  1
  O  O215  1  0.22108842  0.85021467  0.91377395  1
  O  O216  1  0.71349957  0.36655378  0.24250588  1
  O  O217  1  0.71025552  0.37509682  0.56845798  1
  O  O218  1  0.71827302  0.36523023  0.91245845  1
  O  O219  1  0.71900259  0.86724270  0.24200129  1
  O  O220  1  0.72326080  0.86594777  0.58179657  1
  O  O221  1  0.72316381  0.87057820  0.90753255  1
  O  O222  1  0.41636976  0.14179612  0.15835591  1
  O  O223  1  0.41222987  0.13262377  0.48427596  1
  O  O224  1  0.41705171  0.13638728  0.81903607  1
  O  O225  1  0.42041915  0.63502421  0.15165078  1
  O  O226  1  0.41572884  0.63313170  0.48586450  1
  O  O227  1  0.42181817  0.62562787  0.81290041  1
  O  O228  1  0.93274681  0.12139937  0.14947421  1
  O  O229  1  0.92198462  0.12655924  0.48133547  1
  O  O230  1  0.90689415  0.14380986  0.81985296  1
  O  O231  1  0.92439902  0.63130702  0.15143476  1
  O  O232  1  0.92515184  0.62825777  0.48328510  1
  O  O233  1  0.91599145  0.63141723  0.81898596  1
  O  O234  1  0.37934455  0.08768700  0.02290480  1
  O  O235  1  0.37008937  0.07949387  0.34896121  1
  O  O236  1  0.36802402  0.08112076  0.68174015  1
  O  O237  1  0.36798149  0.58391495  0.01575269  1
  O  O238  1  0.37036136  0.58041494  0.35000810  1
  O  O239  1  0.36422870  0.58460730  0.67750792  1
  O  O240  1  0.86867514  0.06908230  0.01522952  1
  O  O241  1  0.86477934  0.08056231  0.34610539  1
  O  O242  1  0.87064468  0.08130117  0.68356771  1
  O  O243  1  0.86146363  0.58263177  0.01599048  1
  O  O244  1  0.86886705  0.57936350  0.34819732  1
  O  O245  1  0.86183506  0.57830745  0.68419368  1
  O  O246  1  0.08889255  0.36876238  0.18161991  1
  O  O247  1  0.07966821  0.37035188  0.51639029  1
  O  O248  1  0.07904766  0.37226091  0.84896511  1
  O  O249  1  0.08369242  0.86981477  0.18340430  1
  O  O250  1  0.07629397  0.87093305  0.51274846  1
  O  O251  1  0.08614685  0.86977993  0.85377489  1
  O  O252  1  0.57516984  0.37137180  0.18657061  1
  O  O253  1  0.57139779  0.37192544  0.51670784  1
  O  O254  1  0.58164105  0.36210479  0.84621111  1
  O  O255  1  0.58131690  0.86730882  0.18163158  1
  O  O256  1  0.58675498  0.86320302  0.51253597  1
  O  O257  1  0.58554517  0.86009610  0.84385154  1
  O  O258  1  0.13512373  0.42283608  0.31885084  1
  O  O259  1  0.13829622  0.41619496  0.65281032  1
  O  O260  1  0.13452670  0.42602508  0.98387685  1
  O  O261  1  0.13458383  0.91834628  0.32000313  1
  O  O262  1  0.12686738  0.92348492  0.64761927  1
  O  O263  1  0.14187963  0.92084159  0.98951127  1
  O  O264  1  0.62926501  0.41896447  0.32191614  1
  O  O265  1  0.62757626  0.42579279  0.64992820  1
  O  O266  1  0.62389443  0.41055879  0.98159589  1
  O  O267  1  0.63334838  0.91704973  0.31849442  1
  O  O268  1  0.62903798  0.92396165  0.64766617  1
  O  O269  1  0.63236758  0.90981557  0.98136633  1
  O  O270  1  0.06777693  0.18325041  0.11316107  1
  O  O271  1  0.02991623  0.19788324  0.43297468  1
  O  O272  1  0.03502241  0.20228199  0.76552362  1
  O  O273  1  0.03550088  0.70098037  0.10460253  1
  O  O274  1  0.03317068  0.70382491  0.43748755  1
  O  O275  1  0.02956860  0.68537065  0.76792511  1
  O  O276  1  0.52529670  0.20983595  0.10584745  1
  O  O277  1  0.53205452  0.20150927  0.43538959  1
  O  O278  1  0.53068956  0.19964793  0.77414531  1
  O  O279  1  0.52537653  0.70740630  0.10428153  1
  O  O280  1  0.52814412  0.70027169  0.43966870  1
  O  O281  1  0.53007208  0.69816086  0.77007416  1
  O  O282  1  0.30066442  0.47144096  0.06247423  1
  O  O283  1  0.30074770  0.47042466  0.39586252  1
  O  O284  1  0.30219096  0.47091174  0.72831967  1
  O  O285  1  0.30277230  0.97580394  0.06737669  1
  O  O286  1  0.30467745  0.97383341  0.39830558  1
  O  O287  1  0.29719243  0.96690406  0.72143151  1
  O  O288  1  0.79416093  0.46240523  0.06578709  1
  O  O289  1  0.79704656  0.46600363  0.39141693  1
  O  O290  1  0.79707500  0.46326303  0.73622424  1
  O  O291  1  0.80325715  0.95969642  0.05982263  1
  O  O292  1  0.80239788  0.96956149  0.39763297  1
  O  O293  1  0.79509634  0.97773599  0.73438001  1
  O  O294  1  0.46644810  0.30496250  0.23070518  1
  O  O295  1  0.45580716  0.30934400  0.56099287  1
  O  O296  1  0.46472590  0.30444277  0.89543046  1
  O  O297  1  0.46774477  0.80136909  0.23149496  1
  O  O298  1  0.47108866  0.80037057  0.55880230  1
  O  O299  1  0.47743078  0.79203576  0.89441122  1
  O  O300  1  0.96525168  0.29548275  0.23300006  1
  O  O301  1  0.97598712  0.29421841  0.56201300  1
  O  O302  1  0.96101912  0.32277854  0.89729361  1
  O  O303  1  0.97033931  0.80160244  0.23028538  1
  O  O304  1  0.96621266  0.79647538  0.55754536  1
  O  O305  1  0.95818513  0.80114359  0.89842502  1
  O  O306  1  0.20792535  0.02686490  0.26615131  1
  O  O307  1  0.20001076  0.03597137  0.60258335  1
  O  O308  1  0.20941324  0.02594556  0.93558146  1
  O  O309  1  0.20131500  0.52888939  0.26960697  1
  O  O310  1  0.19545810  0.53090565  0.60224272  1
  O  O311  1  0.19980392  0.53868505  0.93833311  1
  O  O312  1  0.70022381  0.03311416  0.27432405  1
  O  O313  1  0.70906198  0.02383908  0.60213524  1
  O  O314  1  0.70967778  0.02935565  0.93615496  1
  O  O315  1  0.69481705  0.53222439  0.27768428  1
  O  O316  1  0.68838608  0.54323242  0.60597375  1
  O  O317  1  0.69305374  0.52486405  0.93360850  1
  O  O318  1  0.10824205  0.07950081  0.02482844  1
  O  O319  1  0.08501923  0.08613187  0.36837898  1
  O  O320  1  0.09506314  0.09308730  0.70324041  1
  O  O321  1  0.08271360  0.58704021  0.03314954  1
  O  O322  1  0.08424936  0.59001105  0.37361389  1
  O  O323  1  0.08562999  0.58111026  0.69579933  1
  O  O324  1  0.57142170  0.09117068  0.04440451  1
  O  O325  1  0.58967175  0.09303787  0.37419228  1
  O  O326  1  0.59022149  0.09187253  0.70793786  1
  O  O327  1  0.57107636  0.58794487  0.04472865  1
  O  O328  1  0.57698805  0.58507780  0.37199776  1
  O  O329  1  0.58011541  0.58363292  0.70400500  1
  O  O330  1  0.41356004  0.41961030  0.12954135  1
  O  O331  1  0.41405526  0.42004795  0.46387188  1
  O  O332  1  0.41700696  0.42185219  0.79773044  1
  O  O333  1  0.41119802  0.91366384  0.12179613  1
  O  O334  1  0.41728514  0.92020941  0.46457036  1
  O  O335  1  0.40340424  0.90106187  0.77699640  1
  O  O336  1  0.90198281  0.40740826  0.13728263  1
  O  O337  1  0.91362844  0.41734054  0.45888972  1
  O  O338  1  0.91006169  0.41153394  0.79870940  1
  O  O339  1  0.91101117  0.90856552  0.13433665  1
  O  O340  1  0.91681936  0.91917826  0.46434627  1
  O  O341  1  0.90542123  0.91926858  0.79409833  1
  O  O342  1  0.41631451  0.41719171  0.29883687  1
  O  O343  1  0.41303872  0.42171378  0.63673765  1
  O  O344  1  0.41295105  0.41765395  0.96237228  1
  O  O345  1  0.41815657  0.91402794  0.30280279  1
  O  O346  1  0.42438538  0.91639290  0.62552479  1
  O  O347  1  0.41803900  0.90312448  0.95195444  1
  O  O348  1  0.91005869  0.40699697  0.29909025  1
  O  O349  1  0.93296589  0.41354569  0.62663541  1
  O  O350  1  0.91024996  0.42075208  0.98049408  1
  O  O351  1  0.90953988  0.90999125  0.29424316  1
  O  O352  1  0.91016226  0.90665612  0.62195495  1
  O  O353  1  0.89756557  0.90692943  0.96184585  1
  O  O354  1  0.10166378  0.09086241  0.20960837  1
  O  O355  1  0.08928007  0.08550347  0.52937736  1
  O  O356  1  0.09432501  0.07787713  0.87073361  1
  O  O357  1  0.08869300  0.58318339  0.20564211  1
  O  O358  1  0.07969394  0.57935575  0.53339917  1
  O  O359  1  0.08443771  0.58661458  0.86879105  1
  O  O360  1  0.58616944  0.08454895  0.20514284  1
  O  O361  1  0.58771317  0.06452765  0.53872074  1
  O  O362  1  0.60162652  0.09244795  0.88272182  1
  O  O363  1  0.57957333  0.58454436  0.21310320  1
  O  O364  1  0.57903966  0.58806678  0.52925520  1
  O  O365  1  0.58652387  0.58272445  0.86849421  1
  O  O366  1  0.14868128  0.21791162  0.04955081  1
  O  O367  1  0.13882342  0.22083723  0.39062403  1
  O  O368  1  0.14085098  0.22746087  0.71995349  1
  O  O369  1  0.13940778  0.71939442  0.05391559  1
  O  O370  1  0.13819268  0.72090408  0.38623663  1
  O  O371  1  0.13567278  0.71829719  0.72487180  1
  O  O372  1  0.63594019  0.21951901  0.06122520  1
  O  O373  1  0.64339858  0.22649451  0.39514227  1
  O  O374  1  0.63443604  0.22711074  0.72750561  1
  O  O375  1  0.63597958  0.71551771  0.05909513  1
  O  O376  1  0.63608412  0.71682267  0.39309310  1
  O  O377  1  0.63781704  0.71567814  0.72275844  1
  O  O378  1  0.28020444  0.36431701  0.10910131  1
  O  O379  1  0.28124522  0.36251341  0.44184400  1
  O  O380  1  0.28438035  0.36382960  0.77542705  1
  O  O381  1  0.27808090  0.86556386  0.10857200  1
  O  O382  1  0.28361774  0.86388701  0.44029714  1
  O  O383  1  0.27064458  0.86607552  0.77240895  1
  O  O384  1  0.76801366  0.35451754  0.10869553  1
  O  O385  1  0.78230746  0.36433334  0.44491309  1
  O  O386  1  0.77737221  0.35350103  0.77958717  1
  O  O387  1  0.77546117  0.85814566  0.10971628  1
  O  O388  1  0.78420945  0.86577637  0.44869811  1
  O  O389  1  0.77105654  0.86395116  0.76989731  1
  O  O390  1  0.35989813  0.28344437  0.27735468  1
  O  O391  1  0.35491018  0.28810157  0.61363270  1
  O  O392  1  0.35724173  0.28435101  0.94194053  1
  O  O393  1  0.36444569  0.78077255  0.28285634  1
  O  O394  1  0.36327669  0.78712902  0.60681480  1
  O  O395  1  0.36684889  0.77017890  0.93536278  1
  O  O396  1  0.85775065  0.27376727  0.27860738  1
  O  O397  1  0.86438510  0.28491299  0.60495962  1
  O  O398  1  0.86391657  0.28149753  0.94555705  1
  O  O399  1  0.86273373  0.77386571  0.27330474  1
  O  O400  1  0.86220700  0.77359981  0.60574511  1
  O  O401  1  0.85631156  0.77255442  0.94777371  1
  O  O402  1  0.23582097  0.14076783  0.23074606  1
  O  O403  1  0.22389354  0.14083776  0.55529022  1
  O  O404  1  0.22707549  0.13519511  0.89195214  1
  O  O405  1  0.22171907  0.63824926  0.22667641  1
  O  O406  1  0.21116166  0.63528973  0.55052208  1
  O  O407  1  0.21743295  0.64362261  0.88910383  1
  O  O408  1  0.71860107  0.13771000  0.22500296  1
  O  O409  1  0.71432206  0.13520197  0.55734938  1
  O  O410  1  0.73415832  0.13904051  0.89362622  1
  O  O411  1  0.71090113  0.62700474  0.21681159  1
  O  O412  1  0.71368355  0.64546688  0.55522469  1
  O  O413  1  0.72195231  0.63397878  0.89241718  1
  O  O414  1  0.48851659  0.33835131  0.02972780  1
  O  O415  1  0.49110477  0.33534512  0.36507898  1
  O  O416  1  0.48896090  0.33536870  0.69571673  1
  O  O417  1  0.49404202  0.82881708  0.02782680  1
  O  O418  1  0.49718390  0.83269647  0.36585067  1
  O  O419  1  0.49667935  0.83213930  0.69253236  1
  O  O420  1  0.99695656  0.33670725  0.02964930  1
  O  O421  1  0.98934712  0.32895903  0.36643157  1
  O  O422  1  0.99437623  0.32898012  0.69658556  1
  O  O423  1  0.98655706  0.83636482  0.03264226  1
  O  O424  1  0.99132974  0.83516457  0.36307561  1
  O  O425  1  0.99409299  0.83209934  0.69228029  1
  O  O426  1  0.17851883  0.01504379  0.13478315  1
  O  O427  1  0.17282535  0.00859025  0.46845443  1
  O  O428  1  0.17593470  0.00548953  0.80262959  1
  O  O429  1  0.16731956  0.50822053  0.13612864  1
  O  O430  1  0.16007285  0.50240366  0.46717847  1
  O  O431  1  0.16812237  0.51104937  0.80430985  1
  O  O432  1  0.66508427  0.00431052  0.13952890  1
  O  O433  1  0.67163011  0.00407076  0.46759280  1
  O  O434  1  0.66877075  0.01299721  0.80291512  1
  O  O435  1  0.64453716  0.49417147  0.14116617  1
  O  O436  1  0.66664686  0.51209079  0.47243181  1
  O  O437  1  0.66498015  0.50524589  0.80048369  1
  O  O438  1  0.00971157  0.16434359  0.29877247  1
  O  O439  1  0.01195607  0.16412483  0.63102331  1
  O  O440  1  0.01356313  0.15886122  0.97763034  1
  O  O441  1  0.00603996  0.66691439  0.30275949  1
  O  O442  1  0.00583698  0.66263319  0.63521793  1
  O  O443  1  0.00525175  0.66920387  0.96995392  1
  O  O444  1  0.51414404  0.17218073  0.30358277  1
  O  O445  1  0.50440172  0.16464314  0.63977384  1
  O  O446  1  0.50552879  0.17384316  0.97185207  1
  O  O447  1  0.50359438  0.66808063  0.30590663  1
  O  O448  1  0.50551506  0.66433719  0.63622492  1
  O  O449  1  0.50622016  0.66546517  0.96872790  1
  O  O450  1  0.33407476  0.49553018  0.19683484  1
  O  O451  1  0.33088187  0.49479831  0.52891926  1
  O  O452  1  0.33295375  0.49646153  0.86170058  1
  O  O453  1  0.34118277  0.99146205  0.20027468  1
  O  O454  1  0.33594179  0.99356068  0.53184903  1
  O  O455  1  0.34334618  0.99297754  0.85603133  1
  O  O456  1  0.81638912  0.48616944  0.19649835  1
  O  O457  1  0.83826578  0.49874254  0.52707173  1
  O  O458  1  0.83089584  0.48361236  0.87025532  1
  O  O459  1  0.83025518  0.99042047  0.19376660  1
  O  O460  1  0.83999876  0.99755322  0.53347848  1
  O  O461  1  0.82548569  0.98907804  0.86681708  1
