# generated using pymatgen
data_Na31Fe20(SO4)36
_symmetry_space_group_name_H-M   'P 1'
_cell_length_a   18.07210012
_cell_length_b   18.07290128
_cell_length_c   19.69837605
_cell_angle_alpha   107.57727994
_cell_angle_beta   107.58075583
_cell_angle_gamma   90.69885756
_symmetry_Int_Tables_number   1
_chemical_formula_structural   Na31Fe20(SO4)36
_chemical_formula_sum   'Na62 Fe40 S72 O288'
_cell_volume   5808.94321566
_cell_formula_units_Z   2
loop_
 _symmetry_equiv_pos_site_id
 _symmetry_equiv_pos_as_xyz
  1  'x, y, z'
loop_
 _atom_site_type_symbol
 _atom_site_label
 _atom_site_symmetry_multiplicity
 _atom_site_fract_x
 _atom_site_fract_y
 _atom_site_fract_z
 _atom_site_occupancy
  Na  Na0  1  0.14383161  0.34600147  0.07097642  1
  Na  Na1  1  0.12220373  0.36820054  0.41752428  1
  Na  Na2  1  0.15460667  0.37485386  0.77855915  1
  Na  Na3  1  0.13292151  0.86269117  0.07090718  1
  Na  Na4  1  0.13540309  0.86820978  0.41964565  1
  Na  Na5  1  0.12433454  0.86493735  0.74556836  1
  Na  Na6  1  0.64078411  0.36880693  0.08809753  1
  Na  Na7  1  0.64570236  0.36043324  0.41946101  1
  Na  Na8  1  0.62932222  0.36343165  0.74391329  1
  Na  Na9  1  0.62807586  0.84897749  0.06024796  1
  Na  Na10  1  0.64472756  0.87228882  0.43093784  1
  Na  Na11  1  0.63925810  0.86836846  0.75607080  1
  Na  Na12  1  0.36555412  0.12953838  0.24013786  1
  Na  Na13  1  0.36858327  0.13691997  0.58521214  1
  Na  Na14  1  0.34903032  0.16337041  0.92254338  1
  Na  Na15  1  0.36862932  0.63323265  0.25256563  1
  Na  Na16  1  0.37149136  0.63177622  0.58590709  1
  Na  Na17  1  0.36821527  0.63837151  0.91902234  1
  Na  Na18  1  0.87295818  0.14291992  0.26448059  1
  Na  Na19  1  0.85146600  0.13724661  0.57032569  1
  Na  Na20  1  0.86865567  0.12922505  0.91290508  1
  Na  Na21  1  0.85860169  0.63776097  0.24727067  1
  Na  Na22  1  0.86468778  0.62349150  0.57501372  1
  Na  Na23  1  0.86167611  0.64400151  0.92395136  1
  Na  Na24  1  0.46288910  0.50813223  0.07843042  1
  Na  Na25  1  1.01366122  -0.00273909  0.07749878  1
  Na  Na26  1  0.49165126  0.53148811  0.74924230  1
  Na  Na27  1  0.48487110  -0.00377533  0.77596173  1
  Na  Na28  1  1.02183889  0.49178786  0.06726781  1
  Na  Na29  1  0.49122147  0.00388138  0.08907349  1
  Na  Na30  1  0.51679662  0.45224880  0.46526092  1
  Na  Na31  1  0.98846607  0.01458165  0.42899511  1
  Na  Na32  1  0.49448709  0.02389485  0.39318710  1
  Na  Na33  1  0.49097145  0.51543764  0.91657107  1
  Na  Na34  1  0.00438352  0.99346053  0.24728016  1
  Na  Na35  1  0.52481058  0.99777962  0.57956386  1
  Na  Na36  1  -0.00528201  0.49104382  0.27022739  1
  Na  Na37  1  0.02988627  0.98777320  0.90807811  1
  Na  Na38  1  -0.04422457  1.01599988  0.63870970  1
  Na  Na39  1  0.00610392  0.45708053  0.57856603  1
  Na  Na40  1  0.54311740  0.48900093  0.27419754  1
  Na  Na41  1  -0.01428576  0.54227434  0.85381498  1
  Na  Na42  1  0.24885614  0.75015538  0.33348898  1
  Na  Na43  1  0.24580784  0.24980889  0.68257554  1
  Na  Na44  1  0.74266755  0.74240661  0.34083914  1
  Na  Na45  1  0.75243469  0.24628342  0.34814947  1
  Na  Na46  1  0.24334925  0.74321899  -0.00005812  1
  Na  Na47  1  0.74341804  0.74324878  0.67251809  1
  Na  Na48  1  0.23825873  0.73719806  0.67167328  1
  Na  Na49  1  0.75163027  0.24980033  0.00107126  1
  Na  Na50  1  0.26230665  0.25652479  0.32647034  1
  Na  Na51  1  0.75784338  0.26132494  0.65354302  1
  Na  Na52  1  0.24934995  0.75045227  0.16311649  1
  Na  Na53  1  0.75315445  0.75659070  0.15364910  1
  Na  Na54  1  0.23312488  0.74067895  0.83747000  1
  Na  Na55  1  0.25831903  0.25127713  0.15510988  1
  Na  Na56  1  0.25906423  0.25642657  0.49546208  1
  Na  Na57  1  0.74375042  0.73749380  0.50496326  1
  Na  Na58  1  0.73039337  0.74076981  0.85266470  1
  Na  Na59  1  0.74668509  0.24293849  0.17366660  1
  Na  Na60  1  0.75571082  0.25263062  0.82739131  1
  Na  Na61  1  0.24511445  0.74539515  0.50662053  1
  Fe  Fe62  1  0.96528294  0.30789605  0.12002429  1
  Fe  Fe63  1  0.46517068  0.81037088  0.12150646  1
  Fe  Fe64  1  0.96485868  0.80264943  0.11371483  1
  Fe  Fe65  1  0.96384550  0.81226976  0.45542203  1
  Fe  Fe66  1  0.96696434  0.79633983  0.78472347  1
  Fe  Fe67  1  0.46422603  0.31183233  0.78878719  1
  Fe  Fe68  1  0.96484345  0.31170985  0.78863567  1
  Fe  Fe69  1  0.46555203  0.80540160  0.79282407  1
  Fe  Fe70  1  0.46357057  0.80923576  0.45539261  1
  Fe  Fe71  1  0.46850659  0.30878569  0.11490527  1
  Fe  Fe72  1  0.70500185  0.02838293  0.71055421  1
  Fe  Fe73  1  0.19194591  0.03374808  0.38247475  1
  Fe  Fe74  1  0.19484627  0.53369534  0.71573215  1
  Fe  Fe75  1  0.69369563  0.03302312  0.37826449  1
  Fe  Fe76  1  0.19417271  0.53304454  0.37827040  1
  Fe  Fe77  1  0.69194508  0.03546687  0.04437039  1
  Fe  Fe78  1  0.20170218  0.52780322  0.03972974  1
  Fe  Fe79  1  0.68629166  0.53504780  0.71218863  1
  Fe  Fe80  1  0.68632276  0.53744625  0.04429270  1
  Fe  Fe81  1  0.18760630  0.03851757  0.71627123  1
  Fe  Fe82  1  0.53638834  0.69260596  0.21635048  1
  Fe  Fe83  1  0.53231926  0.20030221  0.54192507  1
  Fe  Fe84  1  0.03192409  0.20389941  0.54849087  1
  Fe  Fe85  1  0.03420440  0.19459124  0.21675866  1
  Fe  Fe86  1  0.53515917  0.19239827  0.87871470  1
  Fe  Fe87  1  0.53879047  0.19408307  0.21418769  1
  Fe  Fe88  1  0.53578091  0.68697647  0.54439803  1
  Fe  Fe89  1  0.03571434  0.68859031  0.20946658  1
  Fe  Fe90  1  0.03670125  0.19042884  0.87968279  1
  Fe  Fe91  1  0.03254656  0.68848521  0.54234828  1
  Fe  Fe92  1  0.31028250  0.46356284  0.61902393  1
  Fe  Fe93  1  0.80837375  0.96402992  0.95146810  1
  Fe  Fe94  1  0.80458109  0.46936102  0.29477296  1
  Fe  Fe95  1  0.29566678  0.97217760  0.95628794  1
  Fe  Fe96  1  0.31593227  0.46215072  0.28991961  1
  Fe  Fe97  1  0.30407829  0.96771734  0.62236912  1
  Fe  Fe98  1  0.80719457  0.46493563  0.61764673  1
  Fe  Fe99  1  0.80771257  0.96125664  0.28272456  1
  Fe  Fe100  1  0.30216621  0.96712629  0.28234268  1
  Fe  Fe101  1  0.80549768  0.46713017  0.95426676  1
  S  S102  1  0.36697712  0.13901492  0.08126637  1
  S  S103  1  0.35808503  0.13844523  0.41729427  1
  S  S104  1  0.35975283  0.13909425  0.75111323  1
  S  S105  1  0.36165421  0.64443026  0.08760656  1
  S  S106  1  0.35834438  0.64256448  0.41732726  1
  S  S107  1  0.35802339  0.64098255  0.74794786  1
  S  S108  1  0.86005576  0.13898870  0.08555780  1
  S  S109  1  0.86343855  0.13416499  0.41479541  1
  S  S110  1  0.86122728  0.14591049  0.74858854  1
  S  S111  1  0.85932449  0.63946096  0.08486168  1
  S  S112  1  0.86055820  0.64455421  0.40941591  1
  S  S113  1  0.85133754  0.63965478  0.75097106  1
  S  S114  1  0.14095180  0.35917256  0.24826686  1
  S  S115  1  0.14727612  0.35879312  0.58734636  1
  S  S116  1  0.13599102  0.36020088  0.92029348  1
  S  S117  1  0.13851375  0.85948654  0.24848319  1
  S  S118  1  0.13908885  0.86017092  0.58176417  1
  S  S119  1  0.13909653  0.85973417  0.91396875  1
  S  S120  1  0.64429735  0.35623971  0.24942673  1
  S  S121  1  0.64225235  0.36117772  0.58465003  1
  S  S122  1  0.64343121  0.35735938  0.91614901  1
  S  S123  1  0.64096979  0.85790330  0.24857513  1
  S  S124  1  0.63910134  0.85770480  0.58397340  1
  S  S125  1  0.63700088  0.86595332  0.91446737  1
  S  S126  1  0.05938225  0.16642072  0.04303604  1
  S  S127  1  0.07067083  0.16480725  0.37699562  1
  S  S128  1  0.06738075  0.17596679  0.70952933  1
  S  S129  1  0.06688543  0.66513194  0.04135957  1
  S  S130  1  0.07169479  0.67147744  0.37374684  1
  S  S131  1  0.06292536  0.66300238  0.70123313  1
  S  S132  1  0.57223044  0.17143068  0.04177783  1
  S  S133  1  0.56991930  0.16592561  0.36962422  1
  S  S134  1  0.57070417  0.16737301  0.70825737  1
  S  S135  1  0.56152887  0.67008030  0.04508630  1
  S  S136  1  0.56613044  0.67557143  0.38012073  1
  S  S137  1  0.56543114  0.67533117  0.71082942  1
  S  S138  1  0.33568078  0.43362418  0.12999352  1
  S  S139  1  0.32288151  0.42867281  0.45218427  1
  S  S140  1  0.33898244  0.44107101  0.79240829  1
  S  S141  1  0.32699082  0.93159102  0.12131973  1
  S  S142  1  0.32912740  0.93250119  0.45968051  1
  S  S143  1  0.31939528  0.92675721  0.78885028  1
  S  S144  1  0.83192845  0.43429470  0.12634949  1
  S  S145  1  0.83289798  0.43456240  0.45667395  1
  S  S146  1  0.82540828  0.43513969  0.79179286  1
  S  S147  1  0.83210457  0.93179651  0.12374577  1
  S  S148  1  0.83280816  0.93438180  0.45596133  1
  S  S149  1  0.83421804  0.93078967  0.79207035  1
  S  S150  1  0.43934748  0.32813833  0.28920353  1
  S  S151  1  0.43383486  0.32795687  0.62613705  1
  S  S152  1  0.44554299  0.33855982  0.95853767  1
  S  S153  1  0.43100110  0.83320785  0.29312734  1
  S  S154  1  0.42899004  0.83412951  0.62783848  1
  S  S155  1  0.42110123  0.83637569  0.95921874  1
  S  S156  1  0.93237113  0.32970147  0.28831474  1
  S  S157  1  0.93504120  0.33169810  0.63032430  1
  S  S158  1  0.92870400  0.33115834  0.95976939  1
  S  S159  1  0.93615298  0.83017283  0.28821569  1
  S  S160  1  0.92958987  0.81897118  0.61867301  1
  S  S161  1  0.93200468  0.83135401  0.95619032  1
  S  S162  1  0.16515047  0.06365495  0.20887174  1
  S  S163  1  0.16996840  0.07099713  0.54619040  1
  S  S164  1  0.16704370  0.06779816  0.87244532  1
  S  S165  1  0.17381624  0.56582302  0.20857611  1
  S  S166  1  0.17358192  0.56686121  0.54103222  1
  S  S167  1  0.17719396  0.57305269  0.87845320  1
  S  S168  1  0.67520851  0.06665284  0.20844841  1
  S  S169  1  0.66222495  0.06802799  0.53931255  1
  S  S170  1  0.67491338  0.07130069  0.87370061  1
  S  S171  1  0.66659012  0.56462727  0.20681258  1
  S  S172  1  0.66642651  0.56184429  0.54093663  1
  S  S173  1  0.66453622  0.56149193  0.87568904  1
  O  O174  1  0.38035887  0.21503876  0.06917136  1
  O  O175  1  0.36005917  0.21550983  0.40876733  1
  O  O176  1  0.37217562  0.21793823  0.74427789  1
  O  O177  1  0.36772941  0.72694490  0.08557760  1
  O  O178  1  0.36710043  0.72130744  0.40774892  1
  O  O179  1  0.36789708  0.71948226  0.73841495  1
  O  O180  1  0.86678000  0.21795733  0.07711546  1
  O  O181  1  0.87091362  0.20665789  0.39861367  1
  O  O182  1  0.86495499  0.22978443  0.74974589  1
  O  O183  1  0.86848908  0.71895033  0.07855540  1
  O  O184  1  0.87895406  0.72111471  0.39734307  1
  O  O185  1  0.86479271  0.71933215  0.74514873  1
  O  O186  1  0.29736105  0.13581975  0.10314240  1
  O  O187  1  0.28282253  0.12253519  0.43149203  1
  O  O188  1  0.28033016  0.13046794  0.75658791  1
  O  O189  1  0.28175517  0.63184606  0.09326235  1
  O  O190  1  0.27843606  0.63447890  0.42390523  1
  O  O191  1  0.27472537  0.63354981  0.74810247  1
  O  O192  1  0.78047938  0.12839354  0.09260882  1
  O  O193  1  0.78561897  0.12234868  0.42446760  1
  O  O194  1  0.78226530  0.13038516  0.75551091  1
  O  O195  1  0.78051857  0.62942069  0.09320371  1
  O  O196  1  0.78175644  0.64462364  0.41497398  1
  O  O197  1  0.76849427  0.63464734  0.75347633  1
  O  O198  1  0.13070800  0.28174372  0.25953641  1
  O  O199  1  0.13697984  0.27867375  0.59314262  1
  O  O200  1  0.11989635  0.28342834  0.93158872  1
  O  O201  1  0.13120595  0.77976484  0.25533762  1
  O  O202  1  0.13388113  0.77979386  0.58755589  1
  O  O203  1  0.14055590  0.78192628  0.92181330  1
  O  O204  1  0.63887440  0.27281799  0.24964583  1
  O  O205  1  0.62956876  0.28250982  0.59384263  1
  O  O206  1  0.63478970  0.27804140  0.92383257  1
  O  O207  1  0.63253929  0.77920591  0.25804708  1
  O  O208  1  0.62512498  0.77862376  0.59170185  1
  O  O209  1  0.63013993  0.78963475  0.92358369  1
  O  O210  1  0.22300686  0.36763389  0.24696792  1
  O  O211  1  0.22761963  0.36618105  0.58028580  1
  O  O212  1  0.20974599  0.36617631  0.90724797  1
  O  O213  1  0.21770404  0.86939449  0.24078564  1
  O  O214  1  0.21736931  0.87245504  0.57208676  1
  O  O215  1  0.21867408  0.87808515  0.90524744  1
  O  O216  1  0.72221969  0.36846209  0.23971585  1
  O  O217  1  0.72586467  0.36835408  0.58730057  1
  O  O218  1  0.72302316  0.36595357  0.90872778  1
  O  O219  1  0.72016095  0.86615755  0.23992265  1
  O  O220  1  0.71256419  0.86227191  0.56867543  1
  O  O221  1  0.71405522  0.87819682  0.90145225  1
  O  O222  1  0.43488611  0.12274268  0.13947342  1
  O  O223  1  0.42197814  0.13073533  0.48318204  1
  O  O224  1  0.41839770  0.12802482  0.81846071  1
  O  O225  1  0.41897540  0.63676111  0.15785595  1
  O  O226  1  0.41582793  0.63747749  0.48715747  1
  O  O227  1  0.41268507  0.63246857  0.81580173  1
  O  O228  1  0.91830187  0.13186871  0.15440988  1
  O  O229  1  0.92395812  0.13063426  0.48499758  1
  O  O230  1  0.92047840  0.13694078  0.81647159  1
  O  O231  1  0.91840178  0.63088409  0.15296459  1
  O  O232  1  0.91751301  0.63521748  0.47760823  1
  O  O233  1  0.90409194  0.62940893  0.81915486  1
  O  O234  1  0.36146831  0.07734202  0.00746613  1
  O  O235  1  0.36551857  0.07795217  0.34842718  1
  O  O236  1  0.36803105  0.07975604  0.68244234  1
  O  O237  1  0.37506659  0.58963237  0.02221946  1
  O  O238  1  0.36734969  0.58299148  0.35077573  1
  O  O239  1  0.36846703  0.58140169  0.68009510  1
  O  O240  1  0.86898267  0.08028538  0.01787577  1
  O  O241  1  0.87531596  0.06807199  0.35124817  1
  O  O242  1  0.86995090  0.09526691  0.67895292  1
  O  O243  1  0.86767348  0.58143165  0.01668491  1
  O  O244  1  0.86722404  0.58277863  0.34174198  1
  O  O245  1  0.85905743  0.58210238  0.68186302  1
  O  O246  1  0.08687659  0.36339018  0.17619056  1
  O  O247  1  0.08927821  0.37047872  0.52266710  1
  O  O248  1  0.07199860  0.37197477  0.85623667  1
  O  O249  1  0.07902511  0.86917559  0.18167216  1
  O  O250  1  0.07949916  0.86702833  0.51326074  1
  O  O251  1  0.08019850  0.86217634  0.84233278  1
  O  O252  1  0.58410430  0.36705059  0.18244909  1
  O  O253  1  0.59028986  0.36714570  0.51451866  1
  O  O254  1  0.58507359  0.36497622  0.84800029  1
  O  O255  1  0.58256220  0.86410344  0.17948683  1
  O  O256  1  0.57455276  0.87184417  0.52121211  1
  O  O257  1  0.57535464  0.87593319  0.84800020  1
  O  O258  1  0.12625012  0.42086929  0.31150187  1
  O  O259  1  0.14235493  0.41607810  0.65833726  1
  O  O260  1  0.13168395  0.42079787  0.99123800  1
  O  O261  1  0.13062745  0.91714664  0.31772821  1
  O  O262  1  0.13080293  0.91761955  0.64976182  1
  O  O263  1  0.12523075  0.91889242  0.97724801  1
  O  O264  1  0.63496839  0.40877607  0.31786802  1
  O  O265  1  0.62989023  0.42015004  0.65126296  1
  O  O266  1  0.63669380  0.41602946  0.98478824  1
  O  O267  1  0.63371581  0.91686145  0.31663575  1
  O  O268  1  0.63706710  0.91661128  0.65544254  1
  O  O269  1  0.63246088  0.92734223  0.98357348  1
  O  O270  1  0.02426915  0.20239657  0.10546975  1
  O  O271  1  0.04044291  0.19245489  0.44014886  1
  O  O272  1  0.03086135  0.20515163  0.77094648  1
  O  O273  1  0.03242322  0.69925175  0.10561876  1
  O  O274  1  0.03796200  0.69989659  0.43584514  1
  O  O275  1  0.02479418  0.69089615  0.75905550  1
  O  O276  1  0.53843631  0.20676088  0.10344240  1
  O  O277  1  0.53575331  0.18975386  0.43087676  1
  O  O278  1  0.53222005  0.19527934  0.76812187  1
  O  O279  1  0.52875926  0.70213865  0.11002501  1
  O  O280  1  0.52667592  0.70784467  0.43981207  1
  O  O281  1  0.52724078  0.70466235  0.76873261  1
  O  O282  1  0.30595914  0.46890240  0.06987496  1
  O  O283  1  0.29419807  0.47167520  0.39430835  1
  O  O284  1  0.30447179  0.47331152  0.72769117  1
  O  O285  1  0.29987380  0.96629649  0.05971427  1
  O  O286  1  0.29807753  0.96382625  0.39540787  1
  O  O287  1  0.29372179  0.96933989  0.73163320  1
  O  O288  1  0.80248453  0.46939475  0.06450057  1
  O  O289  1  0.80394106  0.47381719  0.39851576  1
  O  O290  1  0.79610705  0.47305473  0.73237168  1
  O  O291  1  0.80125318  0.96671491  0.06198840  1
  O  O292  1  0.79541893  0.96242391  0.38933084  1
  O  O293  1  0.80771683  0.96986332  0.73430085  1
  O  O294  1  0.47109720  0.29563041  0.22372779  1
  O  O295  1  0.46923064  0.29945691  0.56619449  1
  O  O296  1  0.47658590  0.29583530  0.89413426  1
  O  O297  1  0.46983872  0.80518975  0.23420701  1
  O  O298  1  0.46397498  0.80558136  0.56610766  1
  O  O299  1  0.45415327  0.81538841  0.89763277  1
  O  O300  1  0.96789297  0.29933016  0.22385246  1
  O  O301  1  0.97202583  0.30321095  0.57069755  1
  O  O302  1  0.96096288  0.30063446  0.89724048  1
  O  O303  1  0.97259023  0.79920889  0.22734279  1
  O  O304  1  0.97156146  0.79079143  0.55952498  1
  O  O305  1  0.96758956  0.80902561  0.89640116  1
  O  O306  1  0.19900302  0.03255162  0.27480046  1
  O  O307  1  0.19705387  0.03248779  0.60633693  1
  O  O308  1  0.20070448  0.03283408  0.93360144  1
  O  O309  1  0.20418129  0.53084113  0.27048885  1
  O  O310  1  0.20108667  0.52776515  0.60014510  1
  O  O311  1  0.20290592  0.53710299  0.93896001  1
  O  O312  1  0.70359218  0.02844789  0.26839247  1
  O  O313  1  0.67880700  0.02994220  0.59810312  1
  O  O314  1  0.70440935  0.03929779  0.93771900  1
  O  O315  1  0.69503454  0.52632810  0.26443092  1
  O  O316  1  0.69914755  0.53041496  0.60608187  1
  O  O317  1  0.70158990  0.52624608  0.93824348  1
  O  O318  1  0.06306365  0.08300524  0.03392822  1
  O  O319  1  0.08302591  0.07908551  0.36541440  1
  O  O320  1  0.08326977  0.09319462  0.70355727  1
  O  O321  1  0.09519932  0.58939291  0.04767130  1
  O  O322  1  0.09131021  0.58997160  0.36677907  1
  O  O323  1  0.08616942  0.58276831  0.69568619  1
  O  O324  1  0.58801619  0.09072615  0.04158223  1
  O  O325  1  0.58944032  0.08307057  0.36017744  1
  O  O326  1  0.59191190  0.08677785  0.70422981  1
  O  O327  1  0.57970890  0.58779475  0.04197296  1
  O  O328  1  0.58373496  0.59707288  0.37821480  1
  O  O329  1  0.58401259  0.59418236  0.70879096  1
  O  O330  1  0.41889258  0.41730265  0.13433020  1
  O  O331  1  0.39678364  0.40134423  0.44778947  1
  O  O332  1  0.42014563  0.42104131  0.79152625  1
  O  O333  1  0.40948604  0.91448483  0.13101838  1
  O  O334  1  0.41231421  0.91794191  0.46820087  1
  O  O335  1  0.40065413  0.90895583  0.79402926  1
  O  O336  1  0.91546707  0.41905526  0.13464657  1
  O  O337  1  0.91381759  0.41955104  0.46580316  1
  O  O338  1  0.90662688  0.41698649  0.79678148  1
  O  O339  1  0.91398809  0.91285273  0.12730784  1
  O  O340  1  0.91369861  0.91597872  0.45351581  1
  O  O341  1  0.91424573  0.90756353  0.79770436  1
  O  O342  1  0.41857696  0.40896750  0.29046676  1
  O  O343  1  0.41623991  0.41030404  0.63411874  1
  O  O344  1  0.44369362  0.42042015  0.96050828  1
  O  O345  1  0.40910224  0.91353272  0.29703944  1
  O  O346  1  0.41227259  0.91730641  0.63569847  1
  O  O347  1  0.39762522  0.91848977  0.97183262  1
  O  O348  1  0.90773763  0.40819172  0.28669918  1
  O  O349  1  0.91270509  0.41133469  0.63104992  1
  O  O350  1  0.90988479  0.41282456  0.96551656  1
  O  O351  1  0.92198257  0.91349848  0.29405532  1
  O  O352  1  0.90726374  0.89577311  0.61924999  1
  O  O353  1  0.91561446  0.91554536  0.97130273  1
  O  O354  1  0.08441341  0.08532544  0.20947947  1
  O  O355  1  0.09014564  0.09314939  0.54104014  1
  O  O356  1  0.08633384  0.08482081  0.87403150  1
  O  O357  1  0.09069221  0.58138379  0.20179074  1
  O  O358  1  0.09489244  0.59019074  0.53787650  1
  O  O359  1  0.09994471  0.59834251  0.87073635  1
  O  O360  1  0.59445836  0.08675004  0.20220596  1
  O  O361  1  0.57816556  0.08581180  0.52308168  1
  O  O362  1  0.59233574  0.08799378  0.86551349  1
  O  O363  1  0.58341652  0.58122753  0.20163314  1
  O  O364  1  0.58642057  0.58466199  0.54199175  1
  O  O365  1  0.58327138  0.57072877  0.87322856  1
  O  O366  1  0.13566612  0.21091680  0.06222564  1
  O  O367  1  0.14381722  0.21156587  0.38883880  1
  O  O368  1  0.13846970  0.22660328  0.72516438  1
  O  O369  1  0.13383806  0.72184010  0.05420070  1
  O  O370  1  0.14219018  0.72473207  0.38877349  1
  O  O371  1  0.13313548  0.71836464  0.71760583  1
  O  O372  1  0.64529494  0.22046380  0.05533074  1
  O  O373  1  0.63969079  0.21774060  0.38248137  1
  O  O374  1  0.64019475  0.22237333  0.72549248  1
  O  O375  1  0.63359807  0.72001981  0.06072336  1
  O  O376  1  0.63613751  0.73077847  0.39776039  1
  O  O377  1  0.63769548  0.72703944  0.72764503  1
  O  O378  1  0.28697488  0.36194696  0.11819830  1
  O  O379  1  0.26229473  0.36321841  0.43478296  1
  O  O380  1  0.28924859  0.37005980  0.77982204  1
  O  O381  1  0.27467197  0.86009550  0.10525597  1
  O  O382  1  0.27964109  0.85975999  0.44505867  1
  O  O383  1  0.26561068  0.85538522  0.76677161  1
  O  O384  1  0.78190890  0.36105726  0.10860898  1
  O  O385  1  0.77950322  0.36336681  0.43830940  1
  O  O386  1  0.77297413  0.36361753  0.77464848  1
  O  O387  1  0.78031262  0.86283258  0.11187521  1
  O  O388  1  0.78503768  0.86252580  0.44621158  1
  O  O389  1  0.77826152  0.86238610  0.77668295  1
  O  O390  1  0.36762205  0.27603870  0.27371531  1
  O  O391  1  0.36185541  0.27638172  0.61092940  1
  O  O392  1  0.37110854  0.29734569  0.94760673  1
  O  O393  1  0.36058203  0.77873638  0.27591794  1
  O  O394  1  0.35715527  0.78278174  0.61144630  1
  O  O395  1  0.35332083  0.78078989  0.94531053  1
  O  O396  1  0.86286097  0.27462991  0.27121256  1
  O  O397  1  0.86682509  0.27749729  0.61758946  1
  O  O398  1  0.85915389  0.27899923  0.94841528  1
  O  O399  1  0.86216768  0.78150451  0.26988578  1
  O  O400  1  0.86155848  0.76124899  0.60005569  1
  O  O401  1  0.86049126  0.78037113  0.94041147  1
  O  O402  1  0.21674352  0.13333758  0.22043608  1
  O  O403  1  0.22634755  0.13895993  0.56312321  1
  O  O404  1  0.21506165  0.13754539  0.88141678  1
  O  O405  1  0.22378183  0.63928906  0.22606073  1
  O  O406  1  0.22987175  0.63626293  0.55853492  1
  O  O407  1  0.23563296  0.64045807  0.89391502  1
  O  O408  1  0.72978650  0.13718754  0.22744066  1
  O  O409  1  0.71603569  0.13865926  0.56041965  1
  O  O410  1  0.72616194  0.14286052  0.88863245  1
  O  O411  1  0.71624541  0.63816494  0.22344832  1
  O  O412  1  0.71848419  0.63255167  0.55399492  1
  O  O413  1  0.71328627  0.63406012  0.89121796  1
  O  O414  1  0.50465400  0.33629362  0.03079980  1
  O  O415  1  0.50065195  0.33425072  0.35921482  1
  O  O416  1  0.49237225  0.32797135  0.69924220  1
  O  O417  1  0.48466557  0.83907571  0.03051191  1
  O  O418  1  0.48925889  0.83810158  0.36712382  1
  O  O419  1  0.48802788  0.83613603  0.70044115  1
  O  O420  1  0.99099157  0.33741128  0.03266676  1
  O  O421  1  0.99315564  0.33461362  0.35747573  1
  O  O422  1  0.99530199  0.34012936  0.70477647  1
  O  O423  1  0.99241056  0.82913497  0.02807935  1
  O  O424  1  0.99357373  0.83031630  0.36065187  1
  O  O425  1  0.98785214  0.82072251  0.69183215  1
  O  O426  1  0.15490561  0.00004984  0.13899740  1
  O  O427  1  0.16553559  0.00996412  0.47303246  1
  O  O428  1  0.15819067  0.00600967  0.79828668  1
  O  O429  1  0.17356477  0.50714159  0.13700978  1
  O  O430  1  0.16926677  0.50868090  0.46724977  1
  O  O431  1  0.17740305  0.51174409  0.80658434  1
  O  O432  1  0.67303233  0.00765247  0.13593217  1
  O  O433  1  0.66678006  0.00926922  0.46835791  1
  O  O434  1  0.67542861  0.01023618  0.80357929  1
  O  O435  1  0.66465230  0.50875011  0.13191468  1
  O  O436  1  0.65655775  0.49944241  0.47083501  1
  O  O437  1  0.66467398  0.50351960  0.80264092  1
  O  O438  1  0.00993090  0.16610555  0.30588350  1
  O  O439  1  0.00693486  0.17292064  0.63720492  1
  O  O440  1  0.00430863  0.17441043  0.97192063  1
  O  O441  1  0.01132653  0.66815950  0.30127672  1
  O  O442  1  0.00545374  0.65775165  0.62597418  1
  O  O443  1  0.00372240  0.65248810  0.97074422  1
  O  O444  1  0.50791492  0.16386693  0.29766605  1
  O  O445  1  0.51217218  0.16292027  0.63432526  1
  O  O446  1  0.51319237  0.16783594  0.96893027  1
  O  O447  1  0.50817726  0.67504892  0.30669881  1
  O  O448  1  0.50893422  0.67141403  0.63592522  1
  O  O449  1  0.50105464  0.66647078  0.97543945  1
  O  O450  1  0.33993325  0.49360984  0.20387466  1
  O  O451  1  0.33090368  0.48746518  0.52716674  1
  O  O452  1  0.34829153  0.50299625  0.86292769  1
  O  O453  1  0.32517133  0.99130682  0.19241261  1
  O  O454  1  0.32802357  0.99281575  0.53020484  1
  O  O455  1  0.31862500  0.98232050  0.86225036  1
  O  O456  1  0.83079038  0.49269900  0.19772791  1
  O  O457  1  0.82859525  0.49167431  0.52991709  1
  O  O458  1  0.82870662  0.49364965  0.86535574  1
  O  O459  1  0.83947887  0.99338369  0.19727998  1
  O  O460  1  0.84097398  0.99753120  0.52563590  1
  O  O461  1  0.83962908  0.99028275  0.86729762  1
