# generated using pymatgen
data_Na31Fe20(SO4)36
_symmetry_space_group_name_H-M   'P 1'
_cell_length_a   18.06824081
_cell_length_b   18.06860599
_cell_length_c   19.68785655
_cell_angle_alpha   107.58461798
_cell_angle_beta   107.59600472
_cell_angle_gamma   90.72530438
_symmetry_Int_Tables_number   1
_chemical_formula_structural   Na31Fe20(SO4)36
_chemical_formula_sum   'Na62 Fe40 S72 O288'
_cell_volume   5802.06251908
_cell_formula_units_Z   2
loop_
 _symmetry_equiv_pos_site_id
 _symmetry_equiv_pos_as_xyz
  1  'x, y, z'
loop_
 _atom_site_type_symbol
 _atom_site_label
 _atom_site_symmetry_multiplicity
 _atom_site_fract_x
 _atom_site_fract_y
 _atom_site_fract_z
 _atom_site_occupancy
  Na  Na0  1  0.12588118  0.34863209  0.05843751  1
  Na  Na1  1  0.13455681  0.36935689  0.41739568  1
  Na  Na2  1  0.12620590  0.37150331  0.75470607  1
  Na  Na3  1  0.15738989  0.85145630  0.08470475  1
  Na  Na4  1  0.13474607  0.86339803  0.41277941  1
  Na  Na5  1  0.13539432  0.86534956  0.75195899  1
  Na  Na6  1  0.64212796  0.36588697  0.09500602  1
  Na  Na7  1  0.64697709  0.36189413  0.41593810  1
  Na  Na8  1  0.63287327  0.35906946  0.75114443  1
  Na  Na9  1  0.63460239  0.87006534  0.08494787  1
  Na  Na10  1  0.65350398  0.87291210  0.42927585  1
  Na  Na11  1  0.61799622  0.88039420  0.75216510  1
  Na  Na12  1  0.36467915  0.13598677  0.24932564  1
  Na  Na13  1  0.37705178  0.15371060  0.61010086  1
  Na  Na14  1  0.37468424  0.13571454  0.91761974  1
  Na  Na15  1  0.35950389  0.63490221  0.24140403  1
  Na  Na16  1  0.37146957  0.64167227  0.59415734  1
  Na  Na17  1  0.36694716  0.63686465  0.91914073  1
  Na  Na18  1  0.85667870  0.14154163  0.24662659  1
  Na  Na19  1  0.84977939  0.12475099  0.57375610  1
  Na  Na20  1  0.86704676  0.14346937  0.92082532  1
  Na  Na21  1  0.85966533  0.63179566  0.25016350  1
  Na  Na22  1  0.85818706  0.62886828  0.57027292  1
  Na  Na23  1  0.87269025  0.62371863  0.91367736  1
  Na  Na24  1  0.97645097  0.00693797  0.41840102  1
  Na  Na25  1  0.51379970  0.46033635  0.82627217  1
  Na  Na26  1  0.53072208  0.48813086  0.40158748  1
  Na  Na27  1  0.51949785  -0.00663367  0.41223467  1
  Na  Na28  1  0.94563691  0.50437761  0.40236674  1
  Na  Na29  1  0.50728812  0.50609318  0.05671957  1
  Na  Na30  1  0.97914001  0.02892119  0.75261130  1
  Na  Na31  1  0.49185547  0.01595192  0.06691879  1
  Na  Na32  1  0.99128313  0.00507463  0.08123649  1
  Na  Na33  1  -0.00414765  0.49798159  0.23811314  1
  Na  Na34  1  0.54298083  0.99635315  0.25249443  1
  Na  Na35  1  0.00845091  0.98789524  0.25368026  1
  Na  Na36  1  0.54106637  0.49932426  0.24684100  1
  Na  Na37  1  -0.00096564  0.48410828  0.60958377  1
  Na  Na38  1  0.50161233  0.99314668  0.59363936  1
  Na  Na39  1  -0.01561586  1.00453437  0.58975899  1
  Na  Na40  1  -0.00801720  1.01331369  0.91104645  1
  Na  Na41  1  0.50757103  0.49231544  0.58890692  1
  Na  Na42  1  0.25344861  0.25397898  0.32988129  1
  Na  Na43  1  0.25715162  0.75710952  0.31853439  1
  Na  Na44  1  0.26636481  0.76173145  0.67005575  1
  Na  Na45  1  0.74641115  0.24117286  0.67120745  1
  Na  Na46  1  0.74139895  0.73618474  0.34028920  1
  Na  Na47  1  0.74215109  0.75088786  0.66823671  1
  Na  Na48  1  0.74920181  0.75019270  0.00062355  1
  Na  Na49  1  0.75947664  0.27827155  0.30929953  1
  Na  Na50  1  0.73692276  0.24407892  0.01568035  1
  Na  Na51  1  0.24080218  0.24388095  0.68267240  1
  Na  Na52  1  0.74443277  0.23955489  0.49563948  1
  Na  Na53  1  0.25263891  0.74751215  0.84022186  1
  Na  Na54  1  0.75144712  0.75126539  0.50632455  1
  Na  Na55  1  0.25090438  0.24860846  0.50742744  1
  Na  Na56  1  0.73197854  0.24120834  0.84491411  1
  Na  Na57  1  0.25390769  0.75299958  0.49475976  1
  Na  Na58  1  0.74707626  0.74806169  0.83351992  1
  Na  Na59  1  0.25580318  0.25819875  0.14701556  1
  Na  Na60  1  0.24029519  0.24177174  0.86098895  1
  Na  Na61  1  0.74545807  0.74685872  0.17183850  1
  Fe  Fe62  1  0.45958230  0.81058501  0.11617172  1
  Fe  Fe63  1  0.96938329  0.80754653  0.45293963  1
  Fe  Fe64  1  0.96272161  0.30496708  0.11798668  1
  Fe  Fe65  1  0.96745570  0.80531376  0.11643339  1
  Fe  Fe66  1  0.96690096  0.30180416  0.79498261  1
  Fe  Fe67  1  0.96626924  0.80836815  0.78492333  1
  Fe  Fe68  1  0.46222327  0.80750245  0.44997432  1
  Fe  Fe69  1  0.46147124  0.30558917  0.10838719  1
  Fe  Fe70  1  0.46379178  0.30724114  0.45317348  1
  Fe  Fe71  1  0.96727024  0.30358077  0.45075528  1
  Fe  Fe72  1  0.67990924  0.03920727  0.03462892  1
  Fe  Fe73  1  0.19271390  0.53897368  0.71607102  1
  Fe  Fe74  1  0.18924276  0.53846576  0.04474051  1
  Fe  Fe75  1  0.69624697  0.53387028  0.04568098  1
  Fe  Fe76  1  0.19196946  0.03555701  0.71879973  1
  Fe  Fe77  1  0.19442572  0.03315649  0.38360232  1
  Fe  Fe78  1  0.19290119  0.03237922  0.04726379  1
  Fe  Fe79  1  0.69910886  0.03179285  0.70903962  1
  Fe  Fe80  1  0.19171459  0.53346179  0.37882132  1
  Fe  Fe81  1  0.69710567  0.53370590  0.71601955  1
  Fe  Fe82  1  0.03536251  0.18911010  0.21505776  1
  Fe  Fe83  1  0.53264763  0.69116591  0.54526107  1
  Fe  Fe84  1  0.53129888  0.69581958  0.20961854  1
  Fe  Fe85  1  0.03663500  0.68776871  0.20868271  1
  Fe  Fe86  1  0.03733238  0.68940127  0.88235627  1
  Fe  Fe87  1  0.52983800  0.70024226  0.87366220  1
  Fe  Fe88  1  0.53398674  0.19220331  0.54955716  1
  Fe  Fe89  1  0.03767139  0.69446580  0.54895282  1
  Fe  Fe90  1  0.53321507  0.19447110  0.21393632  1
  Fe  Fe91  1  0.03409154  0.19271151  0.55060503  1
  Fe  Fe92  1  0.30533739  0.46529712  0.28246355  1
  Fe  Fe93  1  0.80620342  0.96269916  0.94999966  1
  Fe  Fe94  1  0.80926758  0.46448710  0.62358471  1
  Fe  Fe95  1  0.30436184  0.46792510  0.94993843  1
  Fe  Fe96  1  0.30612394  0.96272758  0.94753640  1
  Fe  Fe97  1  0.31104323  0.46431606  0.62336365  1
  Fe  Fe98  1  0.31457825  0.96459332  0.62908312  1
  Fe  Fe99  1  0.79789886  0.96945507  0.28456446  1
  Fe  Fe100  1  0.30909783  0.96598762  0.28426974  1
  Fe  Fe101  1  0.81575565  0.46402438  0.95693832  1
  S  S102  1  0.35925331  0.13858189  0.08380447  1
  S  S103  1  0.35677396  0.14130321  0.41979591  1
  S  S104  1  0.35269359  0.14102171  0.74914987  1
  S  S105  1  0.35892966  0.64169452  0.08226652  1
  S  S106  1  0.35729505  0.63887732  0.41435174  1
  S  S107  1  0.36016741  0.64093858  0.74797134  1
  S  S108  1  0.85982123  0.13460233  0.08266363  1
  S  S109  1  0.86155708  0.13909563  0.41351636  1
  S  S110  1  0.85847286  0.13895729  0.75217067  1
  S  S111  1  0.85989187  0.64221718  0.08345492  1
  S  S112  1  0.86241638  0.64488901  0.41682617  1
  S  S113  1  0.86194862  0.64244117  0.74870509  1
  S  S114  1  0.14119796  0.35716261  0.24908216  1
  S  S115  1  0.13880911  0.35975349  0.58422451  1
  S  S116  1  0.14043941  0.36312878  0.91622099  1
  S  S117  1  0.14017605  0.86092522  0.24906226  1
  S  S118  1  0.14292238  0.85974664  0.58267817  1
  S  S119  1  0.14002911  0.85818127  0.91900301  1
  S  S120  1  0.62940170  0.36350855  0.25556859  1
  S  S121  1  0.64003748  0.36026224  0.58102049  1
  S  S122  1  0.64591775  0.36341866  0.91850568  1
  S  S123  1  0.63787827  0.85914621  0.25072551  1
  S  S124  1  0.63607157  0.86149484  0.58073849  1
  S  S125  1  0.64487830  0.85862699  0.91859134  1
  S  S126  1  0.06334112  0.16095988  0.04514713  1
  S  S127  1  0.06937798  0.16724555  0.37642087  1
  S  S128  1  0.06141449  0.16629912  0.70864838  1
  S  S129  1  0.06762337  0.66985227  0.04330683  1
  S  S130  1  0.06910106  0.66910031  0.37265638  1
  S  S131  1  0.06710189  0.67080636  0.70913712  1
  S  S132  1  0.56348746  0.17474866  0.04267551  1
  S  S133  1  0.55862281  0.16817170  0.37635651  1
  S  S134  1  0.57557405  0.16591091  0.70911914  1
  S  S135  1  0.57000112  0.67596705  0.04035533  1
  S  S136  1  0.56318580  0.67236148  0.37594742  1
  S  S137  1  0.57207417  0.66705640  0.70688132  1
  S  S138  1  0.32788844  0.43365786  0.12445261  1
  S  S139  1  0.32968817  0.43433335  0.45780235  1
  S  S140  1  0.31897936  0.43180345  0.78360022  1
  S  S141  1  0.33822329  0.93885893  0.12938063  1
  S  S142  1  0.32907543  0.93355536  0.45752748  1
  S  S143  1  0.32745194  0.93061066  0.78883483  1
  S  S144  1  0.83297972  0.43635497  0.12569452  1
  S  S145  1  0.84032692  0.42843173  0.46437447  1
  S  S146  1  0.82807720  0.42771926  0.78830812  1
  S  S147  1  0.83410470  0.93256741  0.12525321  1
  S  S148  1  0.83852811  0.93113329  0.45535676  1
  S  S149  1  0.83041281  0.93314436  0.79057159  1
  S  S150  1  0.42744340  0.32930134  0.29060202  1
  S  S151  1  0.43749415  0.33506946  0.62345827  1
  S  S152  1  0.43103766  0.33726826  0.95872265  1
  S  S153  1  0.43386200  0.83378500  0.29256470  1
  S  S154  1  0.43232550  0.82671157  0.61901477  1
  S  S155  1  0.43474969  0.83158236  0.95860060  1
  S  S156  1  0.94205880  0.33134395  0.28888979  1
  S  S157  1  0.92870285  0.32034184  0.62508382  1
  S  S158  1  0.93057233  0.32822480  0.95893192  1
  S  S159  1  0.93500922  0.83156214  0.28827105  1
  S  S160  1  0.94148838  0.83450284  0.62675597  1
  S  S161  1  0.93454902  0.82971779  0.95680400  1
  S  S162  1  0.16933128  0.06317939  0.21067743  1
  S  S163  1  0.16497981  0.06557471  0.54143880  1
  S  S164  1  0.16429970  0.05859245  0.87560138  1
  S  S165  1  0.16873330  0.56468147  0.20897888  1
  S  S166  1  0.17118197  0.56930540  0.54283370  1
  S  S167  1  0.17242107  0.57210030  0.87506049  1
  S  S168  1  0.66931427  0.07000242  0.20552311  1
  S  S169  1  0.66467375  0.06537905  0.54178300  1
  S  S170  1  0.67456545  0.06846168  0.87594968  1
  S  S171  1  0.66283994  0.57242356  0.20423399  1
  S  S172  1  0.67081466  0.56479794  0.54366795  1
  S  S173  1  0.67200035  0.57311334  0.87562756  1
  O  O174  1  0.36607031  0.21868816  0.07945156  1
  O  O175  1  0.36345909  0.22057309  0.41113250  1
  O  O176  1  0.36190465  0.21368999  0.73233851  1
  O  O177  1  0.36920992  0.71992928  0.07434709  1
  O  O178  1  0.36353506  0.71836181  0.40611367  1
  O  O179  1  0.37124545  0.71486745  0.73500038  1
  O  O180  1  0.86937655  0.21299890  0.07402078  1
  O  O181  1  0.87487303  0.21706535  0.40329121  1
  O  O182  1  0.86501917  0.22220959  0.75315097  1
  O  O183  1  0.86917728  0.72161230  0.07541303  1
  O  O184  1  0.87675267  0.72399155  0.40758032  1
  O  O185  1  0.86939076  0.72126730  0.73891181  1
  O  O186  1  0.28149370  0.12696460  0.09438138  1
  O  O187  1  0.27673623  0.13094528  0.42606950  1
  O  O188  1  0.26870746  0.13345537  0.75262308  1
  O  O189  1  0.28120747  0.62943507  0.09038998  1
  O  O190  1  0.27839974  0.62863932  0.42300104  1
  O  O191  1  0.28008927  0.63297314  0.75591524  1
  O  O192  1  0.77976170  0.12323752  0.08593206  1
  O  O193  1  0.78678376  0.13168498  0.42537189  1
  O  O194  1  0.77499581  0.12773066  0.75570367  1
  O  O195  1  0.78047783  0.63451809  0.09155843  1
  O  O196  1  0.78833774  0.64366264  0.43265930  1
  O  O197  1  0.78277383  0.63359989  0.75682205  1
  O  O198  1  0.13271353  0.27929656  0.25998005  1
  O  O199  1  0.13067270  0.28178984  0.59512605  1
  O  O200  1  0.13745926  0.28837473  0.92963129  1
  O  O201  1  0.12971878  0.78280955  0.25812757  1
  O  O202  1  0.13670214  0.78039871  0.59153581  1
  O  O203  1  0.12823919  0.77932557  0.92482409  1
  O  O204  1  0.62058793  0.28305045  0.26481595  1
  O  O205  1  0.63080444  0.28021133  0.58633706  1
  O  O206  1  0.64516979  0.28757956  0.93048078  1
  O  O207  1  0.63073030  0.77777215  0.25529134  1
  O  O208  1  0.62374393  0.78319833  0.59009268  1
  O  O209  1  0.63287689  0.77983725  0.92771817  1
  O  O210  1  0.22143565  0.36557340  0.24314754  1
  O  O211  1  0.21852294  0.36972200  0.57807389  1
  O  O212  1  0.21621868  0.37604602  0.90152823  1
  O  O213  1  0.22044260  0.87123123  0.24557671  1
  O  O214  1  0.22267248  0.87104519  0.57641640  1
  O  O215  1  0.21835858  0.86602133  0.90952796  1
  O  O216  1  0.70816619  0.37565421  0.25368681  1
  O  O217  1  0.71879861  0.36939924  0.57237255  1
  O  O218  1  0.72520465  0.37921362  0.90965411  1
  O  O219  1  0.71526211  0.86849706  0.23867284  1
  O  O220  1  0.70858579  0.86611990  0.56349523  1
  O  O221  1  0.72867373  0.86299277  0.91743366  1
  O  O222  1  0.42019782  0.12818802  0.15028840  1
  O  O223  1  0.41444515  0.13492973  0.48876730  1
  O  O224  1  0.40686380  0.13437809  0.81707487  1
  O  O225  1  0.41880523  0.63515123  0.15154594  1
  O  O226  1  0.41652185  0.63111640  0.48227882  1
  O  O227  1  0.41761684  0.63492548  0.81824975  1
  O  O228  1  0.91714411  0.12738530  0.15284314  1
  O  O229  1  0.92511150  0.12842421  0.47893587  1
  O  O230  1  0.91239046  0.12461198  0.81822322  1
  O  O231  1  0.91806647  0.63557381  0.15235981  1
  O  O232  1  0.92602875  0.63505793  0.48343688  1
  O  O233  1  0.92017531  0.63714131  0.81809879  1
  O  O234  1  0.36690093  0.08075516  0.01484885  1
  O  O235  1  0.36545704  0.08285885  0.35169422  1
  O  O236  1  0.35807035  0.07638821  0.68035943  1
  O  O237  1  0.37046286  0.58196410  0.01578126  1
  O  O238  1  0.36501432  0.58103721  0.34582489  1
  O  O239  1  0.36778287  0.57625531  0.68222515  1
  O  O240  1  0.87422795  0.07495812  0.01749138  1
  O  O241  1  0.86837142  0.07936212  0.34406904  1
  O  O242  1  0.86741442  0.08694003  0.68243156  1
  O  O243  1  0.86668567  0.58388230  0.01506585  1
  O  O244  1  0.86502654  0.58500420  0.34870492  1
  O  O245  1  0.87021357  0.58283246  0.68135807  1
  O  O246  1  0.08309725  0.36387151  0.18051004  1
  O  O247  1  0.08171687  0.36227711  0.51264911  1
  O  O248  1  0.07756086  0.36678167  0.84789473  1
  O  O249  1  0.08299167  0.86915144  0.17993232  1
  O  O250  1  0.08573970  0.86336813  0.51148133  1
  O  O251  1  0.08035142  0.86998566  0.85278992  1
  O  O252  1  0.57164227  0.36757844  0.18325306  1
  O  O253  1  0.58051596  0.37111038  0.51404520  1
  O  O254  1  0.58719910  0.36760671  0.85013621  1
  O  O255  1  0.57711352  0.86752441  0.18276850  1
  O  O256  1  0.57000640  0.87669969  0.52088168  1
  O  O257  1  0.59158992  0.86698459  0.85106917  1
  O  O258  1  0.13328968  0.41760753  0.31692672  1
  O  O259  1  0.12479720  0.42093668  0.64777138  1
  O  O260  1  0.13464185  0.42699531  0.98296580  1
  O  O261  1  0.12782722  0.92086338  0.31561909  1
  O  O262  1  0.12997245  0.91814382  0.64789689  1
  O  O263  1  0.13526857  0.91661560  0.98934135  1
  O  O264  1  0.61016658  0.41968099  0.31842952  1
  O  O265  1  0.63248201  0.41822038  0.64994634  1
  O  O266  1  0.63621369  0.42483916  0.98608922  1
  O  O267  1  0.63075327  0.91598778  0.31855575  1
  O  O268  1  0.63748020  0.92129575  0.65416600  1
  O  O269  1  0.63967353  0.91816589  0.98838640  1
  O  O270  1  0.03202533  0.19466745  0.11044386  1
  O  O271  1  0.03632807  0.19932438  0.43907921  1
  O  O272  1  0.02394975  0.19490570  0.76668557  1
  O  O273  1  0.02947074  0.70213282  0.10455143  1
  O  O274  1  0.03669113  0.70031454  0.43597864  1
  O  O275  1  0.03145999  0.70083824  0.77052788  1
  O  O276  1  0.52849273  0.20409181  0.10705656  1
  O  O277  1  0.52169489  0.20275403  0.43737758  1
  O  O278  1  0.54784643  0.18622872  0.77216273  1
  O  O279  1  0.53053066  0.70419083  0.09946047  1
  O  O280  1  0.52631805  0.70737556  0.43691667  1
  O  O281  1  0.53994368  0.69236104  0.76889143  1
  O  O282  1  0.29848238  0.46994567  0.06375427  1
  O  O283  1  0.29950469  0.46829354  0.39509010  1
  O  O284  1  0.28681364  0.47279037  0.72429515  1
  O  O285  1  0.30365186  0.96942798  0.06477365  1
  O  O286  1  0.29841029  0.96945650  0.39586873  1
  O  O287  1  0.28839188  0.96829977  0.72835743  1
  O  O288  1  0.80257836  0.47176862  0.06240026  1
  O  O289  1  0.82306212  0.46270865  0.40466046  1
  O  O290  1  0.80099191  0.47078840  0.73036407  1
  O  O291  1  0.80686540  0.96617642  0.06331425  1
  O  O292  1  0.81561854  0.95839984  0.38892174  1
  O  O293  1  0.79742267  0.96890970  0.73090845  1
  O  O294  1  0.45957155  0.29778106  0.22794940  1
  O  O295  1  0.47080859  0.29889172  0.55924373  1
  O  O296  1  0.46135134  0.31781021  0.89702907  1
  O  O297  1  0.46747877  0.80319641  0.22982777  1
  O  O298  1  0.46202086  0.79147413  0.55243657  1
  O  O299  1  0.47292589  0.80469777  0.90089275  1
  O  O300  1  0.97479857  0.29080265  0.22609391  1
  O  O301  1  0.96734337  0.29369636  0.56452821  1
  O  O302  1  0.96686059  0.30200166  0.89951563  1
  O  O303  1  0.97081185  0.80071894  0.22688290  1
  O  O304  1  0.97673697  0.79841439  0.56475478  1
  O  O305  1  0.96875929  0.79957570  0.89459703  1
  O  O306  1  0.20202693  0.03001363  0.27383150  1
  O  O307  1  0.19215689  0.03090568  0.60261266  1
  O  O308  1  0.20318314  0.02474763  0.93863014  1
  O  O309  1  0.19944390  0.52602175  0.26918783  1
  O  O310  1  0.19944635  0.53095601  0.60232756  1
  O  O311  1  0.20608142  0.53837360  0.93776163  1
  O  O312  1  0.69458869  0.02926082  0.26239531  1
  O  O313  1  0.69508620  0.03568438  0.60696152  1
  O  O314  1  0.70692684  0.02387728  0.93245427  1
  O  O315  1  0.67727675  0.54392366  0.26753330  1
  O  O316  1  0.70343304  0.53360818  0.60910512  1
  O  O317  1  0.70243835  0.54049992  0.93866513  1
  O  O318  1  0.08386282  0.07944604  0.04574441  1
  O  O319  1  0.08456095  0.08446459  0.37126245  1
  O  O320  1  0.08128088  0.08432869  0.70572896  1
  O  O321  1  0.08520765  0.59019115  0.04234034  1
  O  O322  1  0.08445742  0.58630225  0.36554921  1
  O  O323  1  0.08604237  0.58932420  0.70437892  1
  O  O324  1  0.58025721  0.09186899  0.03970695  1
  O  O325  1  0.56795033  0.08620235  0.37107630  1
  O  O326  1  0.59913909  0.08235874  0.69287225  1
  O  O327  1  0.59035140  0.59536987  0.03604647  1
  O  O328  1  0.57305573  0.59098289  0.37166448  1
  O  O329  1  0.59305203  0.58495761  0.69694075  1
  O  O330  1  0.40912786  0.41395509  0.13108260  1
  O  O331  1  0.41175489  0.41655612  0.46346784  1
  O  O332  1  0.39263059  0.40626344  0.77647980  1
  O  O333  1  0.42245336  0.92810484  0.13614651  1
  O  O334  1  0.41127682  0.91714267  0.46167457  1
  O  O335  1  0.40141474  0.90887155  0.78150784  1
  O  O336  1  0.91122207  0.40905881  0.12437656  1
  O  O337  1  0.92540754  0.41044737  0.48200507  1
  O  O338  1  0.90482571  0.40271427  0.78812760  1
  O  O339  1  0.91833596  0.91685230  0.13367304  1
  O  O340  1  0.92378382  0.91366841  0.46701400  1
  O  O341  1  0.91197824  0.91536166  0.79129484  1
  O  O342  1  0.41104231  0.41188140  0.29743757  1
  O  O343  1  0.41592450  0.41395974  0.61821180  1
  O  O344  1  0.40511516  0.41921675  0.97216165  1
  O  O345  1  0.41575526  0.91581216  0.29695030  1
  O  O346  1  0.41335183  0.90715243  0.61720131  1
  O  O347  1  0.41173347  0.91236163  0.96388960  1
  O  O348  1  0.93825648  0.41311791  0.29143712  1
  O  O349  1  0.91124497  0.40216446  0.63158704  1
  O  O350  1  0.91616131  0.41119169  0.97122241  1
  O  O351  1  0.91896995  0.91397337  0.29296931  1
  O  O352  1  0.93572891  0.91736103  0.63481624  1
  O  O353  1  0.91658266  0.91177929  0.96164351  1
  O  O354  1  0.08562487  0.07594088  0.20546066  1
  O  O355  1  0.08106890  0.08110231  0.53138922  1
  O  O356  1  0.08231899  0.06495722  0.87192050  1
  O  O357  1  0.08786054  0.58272249  0.20840968  1
  O  O358  1  0.08993837  0.58825375  0.53771632  1
  O  O359  1  0.09356969  0.59235140  0.87582727  1
  O  O360  1  0.58542889  0.08568241  0.19862664  1
  O  O361  1  0.58147392  0.08439418  0.53507690  1
  O  O362  1  0.59574494  0.08090584  0.87233665  1
  O  O363  1  0.57767658  0.59034811  0.18262877  1
  O  O364  1  0.58812523  0.58283846  0.53879804  1
  O  O365  1  0.59110506  0.59245412  0.86969607  1
  O  O366  1  0.13339430  0.21131961  0.05687772  1
  O  O367  1  0.14113725  0.21694844  0.38970049  1
  O  O368  1  0.13152475  0.21870446  0.72238302  1
  O  O369  1  0.13690231  0.72180543  0.05803595  1
  O  O370  1  0.14107189  0.71926322  0.38634676  1
  O  O371  1  0.13815119  0.72252554  0.72422103  1
  O  O372  1  0.63736599  0.22370341  0.06261920  1
  O  O373  1  0.63243351  0.21684506  0.39450621  1
  O  O374  1  0.64411538  0.21965694  0.71822247  1
  O  O375  1  0.64155800  0.72983930  0.06014735  1
  O  O376  1  0.63736871  0.72176709  0.39450463  1
  O  O377  1  0.64144988  0.72080981  0.71989240  1
  O  O378  1  0.27414450  0.36514803  0.11130103  1
  O  O379  1  0.27795063  0.36261557  0.44246154  1
  O  O380  1  0.26015375  0.36654580  0.76876692  1
  O  O381  1  0.29388230  0.86639429  0.11994832  1
  O  O382  1  0.27796447  0.86028678  0.43863340  1
  O  O383  1  0.27130711  0.86278923  0.77749971  1
  O  O384  1  0.77732878  0.36942326  0.11234466  1
  O  O385  1  0.78779369  0.35633304  0.44627968  1
  O  O386  1  0.76866642  0.36138063  0.76869077  1
  O  O387  1  0.78460413  0.86010400  0.11075303  1
  O  O388  1  0.78791703  0.85916272  0.44102486  1
  O  O389  1  0.78043664  0.86195367  0.77901207  1
  O  O390  1  0.35579161  0.27846650  0.27736255  1
  O  O391  1  0.36596915  0.28426426  0.60940156  1
  O  O392  1  0.36531693  0.28192853  0.95171461  1
  O  O393  1  0.36492761  0.78221999  0.28140268  1
  O  O394  1  0.35884977  0.77727071  0.60416201  1
  O  O395  1  0.36587390  0.77754290  0.94466326  1
  O  O396  1  0.86710431  0.28722919  0.27459435  1
  O  O397  1  0.85634237  0.26788027  0.60468520  1
  O  O398  1  0.85756553  0.27768913  0.94192096  1
  O  O399  1  0.86321259  0.78106936  0.27310147  1
  O  O400  1  0.86614867  0.78838376  0.60991849  1
  O  O401  1  0.86441305  0.77760599  0.94314924  1
  O  O402  1  0.21662518  0.13676687  0.22554950  1
  O  O403  1  0.21443021  0.13854275  0.55685608  1
  O  O404  1  0.21029153  0.13185210  0.88923165  1
  O  O405  1  0.22038839  0.63666059  0.22770522  1
  O  O406  1  0.22456893  0.63987063  0.55936989  1
  O  O407  1  0.22481524  0.63979501  0.88401072  1
  O  O408  1  0.71987612  0.14275515  0.22552865  1
  O  O409  1  0.71497101  0.13758809  0.55547542  1
  O  O410  1  0.73031615  0.13990063  0.90030758  1
  O  O411  1  0.71645963  0.64364927  0.22016196  1
  O  O412  1  0.72071392  0.63801470  0.55917538  1
  O  O413  1  0.72579894  0.64245319  0.88810436  1
  O  O414  1  0.49512065  0.34552607  0.03341193  1
  O  O415  1  0.48810798  0.33304206  0.36362025  1
  O  O416  1  0.49824915  0.34394777  0.69430680  1
  O  O417  1  0.49363775  0.83960582  0.03473662  1
  O  O418  1  0.49611341  0.84087278  0.36565189  1
  O  O419  1  0.49256374  0.82945287  0.68752102  1
  O  O420  1  0.98934792  0.32222379  0.02962097  1
  O  O421  1  0.99877808  0.32881122  0.36193812  1
  O  O422  1  0.98637182  0.31885518  0.69641142  1
  O  O423  1  0.99529554  0.83477615  0.02967224  1
  O  O424  1  0.99469327  0.83383217  0.36083248  1
  O  O425  1  0.99813529  0.82818183  0.69819604  1
  O  O426  1  0.16953641  0.00357623  0.13964963  1
  O  O427  1  0.16549376  0.00581539  0.46935427  1
  O  O428  1  0.16563684  0.00005327  0.80309077  1
  O  O429  1  0.16619008  0.50774820  0.13622046  1
  O  O430  1  0.16826027  0.51025952  0.46935937  1
  O  O431  1  0.16397557  0.50934049  0.80225883  1
  O  O432  1  0.66795458  0.01403882  0.13109292  1
  O  O433  1  0.66081094  0.00401657  0.47226323  1
  O  O434  1  0.68055697  0.01490259  0.80162165  1
  O  O435  1  0.66778266  0.51115045  0.13461522  1
  O  O436  1  0.66820017  0.50360534  0.47446369  1
  O  O437  1  0.66935236  0.51049617  0.80416653  1
  O  O438  1  0.00870658  0.16371941  0.30398957  1
  O  O439  1  0.00336739  0.15636214  0.63169493  1
  O  O440  1  0.00059650  0.15147365  0.97502510  1
  O  O441  1  0.00842245  0.66832019  0.30114956  1
  O  O442  1  0.00720302  0.66621490  0.63615147  1
  O  O443  1  0.00623829  0.66682383  0.97109554  1
  O  O444  1  0.50258982  0.17019822  0.30308748  1
  O  O445  1  0.51187009  0.16354563  0.63701495  1
  O  O446  1  0.50457310  0.17452180  0.97413504  1
  O  O447  1  0.50729394  0.67419897  0.30269977  1
  O  O448  1  0.50988256  0.66343897  0.63453110  1
  O  O449  1  0.51248129  0.67440174  0.96758138  1
  O  O450  1  0.33206619  0.49517453  0.19759095  1
  O  O451  1  0.33109757  0.49411755  0.52945553  1
  O  O452  1  0.32876306  0.49214033  0.85809067  1
  O  O453  1  0.33752373  1.00090421  0.20029523  1
  O  O454  1  0.33033034  0.99102116  0.52974028  1
  O  O455  1  0.33289952  0.99125299  0.86257713  1
  O  O456  1  0.84568521  0.49927186  0.19669442  1
  O  O457  1  0.83847216  0.48746691  0.53720363  1
  O  O458  1  0.83344183  0.48669450  0.86204508  1
  O  O459  1  0.83405199  0.99197702  0.19707021  1
  O  O460  1  0.83990802  0.99322656  0.52358159  1
  O  O461  1  0.84027279  0.99200647  0.86632408  1
