# generated using pymatgen
data_Na31Fe20(SO4)36
_symmetry_space_group_name_H-M   'P 1'
_cell_length_a   18.06286949
_cell_length_b   18.06220109
_cell_length_c   19.68754023
_cell_angle_alpha   107.60906041
_cell_angle_beta   107.59636768
_cell_angle_gamma   90.70652917
_symmetry_Int_Tables_number   1
_chemical_formula_structural   Na31Fe20(SO4)36
_chemical_formula_sum   'Na62 Fe40 S72 O288'
_cell_volume   5797.53179822
_cell_formula_units_Z   2
loop_
 _symmetry_equiv_pos_site_id
 _symmetry_equiv_pos_as_xyz
  1  'x, y, z'
loop_
 _atom_site_type_symbol
 _atom_site_label
 _atom_site_symmetry_multiplicity
 _atom_site_fract_x
 _atom_site_fract_y
 _atom_site_fract_z
 _atom_site_occupancy
  Na  Na0  1  0.13239382  0.36526404  0.08158827  1
  Na  Na1  1  0.13061708  0.36535296  0.41276610  1
  Na  Na2  1  0.13681463  0.36360099  0.75168619  1
  Na  Na3  1  0.14309790  0.87065381  0.09753681  1
  Na  Na4  1  0.13340696  0.84512926  0.40773089  1
  Na  Na5  1  0.14029517  0.86768688  0.75394267  1
  Na  Na6  1  0.66204838  0.35705158  0.08720051  1
  Na  Na7  1  0.62766648  0.36982491  0.41752388  1
  Na  Na8  1  0.62871332  0.35660634  0.74239808  1
  Na  Na9  1  0.62414568  0.87261648  0.08042784  1
  Na  Na10  1  0.63131898  0.86949323  0.41633436  1
  Na  Na11  1  0.64038372  0.86355869  0.74943302  1
  Na  Na12  1  0.34955456  0.12902978  0.23574260  1
  Na  Na13  1  0.37061001  0.13137285  0.57906374  1
  Na  Na14  1  0.36702221  0.12329723  0.91782944  1
  Na  Na15  1  0.37040547  0.63475511  0.25396717  1
  Na  Na16  1  0.36883263  0.63719441  0.58320035  1
  Na  Na17  1  0.36628321  0.63091026  0.91154330  1
  Na  Na18  1  0.85836457  0.13569402  0.24219081  1
  Na  Na19  1  0.86348112  0.13593584  0.58518256  1
  Na  Na20  1  0.86046419  0.13637799  0.91818721  1
  Na  Na21  1  0.87628742  0.64120456  0.25652852  1
  Na  Na22  1  0.86895969  0.63619649  0.58443730  1
  Na  Na23  1  0.86705812  0.63619134  0.92065196  1
  Na  Na24  1  1.01334013  -0.02564993  0.42345778  1
  Na  Na25  1  0.97652207  0.01530375  0.74795689  1
  Na  Na26  1  0.49525138  0.52479937  0.73147382  1
  Na  Na27  1  0.51338234  -0.02471870  0.77413071  1
  Na  Na28  1  0.98917298  0.50719079  0.75168998  1
  Na  Na29  1  0.52998981  0.48641764  0.07866417  1
  Na  Na30  1  0.98244018  0.54596357  0.14311253  1
  Na  Na31  1  0.98230983  0.01345269  0.07960663  1
  Na  Na32  1  0.99435946  0.52220405  0.39595906  1
  Na  Na33  1  0.53408908  1.00325980  0.58896657  1
  Na  Na34  1  0.01107536  0.49505996  0.57621294  1
  Na  Na35  1  0.45535701  1.02037450  0.30385497  1
  Na  Na36  1  0.49998919  0.48795627  0.26499577  1
  Na  Na37  1  0.00467933  0.95053385  0.57514200  1
  Na  Na38  1  0.54915157  0.49774995  0.92216581  1
  Na  Na39  1  0.02845527  0.98796412  0.91915513  1
  Na  Na40  1  0.01782142  0.98075140  0.25120318  1
  Na  Na41  1  0.00052547  0.49006792  0.93056018  1
  Na  Na42  1  0.71667692  0.21826303  0.66945002  1
  Na  Na43  1  0.25104151  0.24952370  0.66610989  1
  Na  Na44  1  0.25484381  0.25185695  0.32773010  1
  Na  Na45  1  0.75203529  0.75306510  0.66539780  1
  Na  Na46  1  0.23708027  0.73844186  0.34083171  1
  Na  Na47  1  0.26357337  0.76614105  -0.00518700  1
  Na  Na48  1  0.74851484  0.25511167  0.32609703  1
  Na  Na49  1  0.76485782  0.75734676  0.33275975  1
  Na  Na50  1  0.26875896  0.76686263  0.65163518  1
  Na  Na51  1  0.74094852  0.74354830  0.00543630  1
  Na  Na52  1  0.25665749  0.25735008  0.14931618  1
  Na  Na53  1  0.74778700  0.73972546  0.16715174  1
  Na  Na54  1  0.73305812  0.23984432  0.50528950  1
  Na  Na55  1  0.75861705  0.75518608  0.49420046  1
  Na  Na56  1  0.25810292  0.25359584  0.49464761  1
  Na  Na57  1  0.24236276  0.23986508  0.85008109  1
  Na  Na58  1  0.25709076  0.76203313  0.17007186  1
  Na  Na59  1  0.74462621  0.74381347  0.83753603  1
  Na  Na60  1  0.28755613  0.78760173  0.83275153  1
  Na  Na61  1  0.73169992  0.23322600  0.84639723  1
  Fe  Fe62  1  0.97064969  0.79869989  0.12099210  1
  Fe  Fe63  1  0.96020039  0.31189051  0.11987545  1
  Fe  Fe64  1  0.46567224  0.30728623  0.78772507  1
  Fe  Fe65  1  0.96398619  0.30947511  0.78456372  1
  Fe  Fe66  1  0.96693729  0.80516405  0.78807361  1
  Fe  Fe67  1  0.46763668  0.30388397  0.45915266  1
  Fe  Fe68  1  0.96388812  0.30538525  0.44870045  1
  Fe  Fe69  1  0.46404081  0.81283087  0.12299775  1
  Fe  Fe70  1  0.46254854  0.81055170  0.45209896  1
  Fe  Fe71  1  0.46061642  0.30272079  0.11427878  1
  Fe  Fe72  1  0.19414959  0.53463328  0.37958351  1
  Fe  Fe73  1  0.69463013  0.53354427  0.38067910  1
  Fe  Fe74  1  0.20503256  0.02677745  0.04580023  1
  Fe  Fe75  1  0.68635531  0.03470465  0.37605170  1
  Fe  Fe76  1  0.20324677  0.02966350  0.37685018  1
  Fe  Fe77  1  0.69116362  0.53305146  0.70711899  1
  Fe  Fe78  1  0.19509516  0.53606012  0.05186203  1
  Fe  Fe79  1  0.19071441  0.03453752  0.71469749  1
  Fe  Fe80  1  0.19353424  0.53512203  0.71761873  1
  Fe  Fe81  1  0.68552363  0.03830634  0.04457752  1
  Fe  Fe82  1  0.53464038  0.69406717  0.54557381  1
  Fe  Fe83  1  0.03689238  0.69166763  0.88420663  1
  Fe  Fe84  1  0.53712934  0.68979343  0.21004393  1
  Fe  Fe85  1  0.53189409  0.70059056  0.87701360  1
  Fe  Fe86  1  0.03223902  0.19785765  0.88394067  1
  Fe  Fe87  1  0.03209646  0.18923543  0.54308545  1
  Fe  Fe88  1  0.53498342  0.18659071  0.88057155  1
  Fe  Fe89  1  0.03533212  0.69977394  0.54459013  1
  Fe  Fe90  1  0.03102951  0.19446395  0.21320164  1
  Fe  Fe91  1  0.53284079  0.18677584  0.20641158  1
  Fe  Fe92  1  0.30998083  0.46573828  0.95545942  1
  Fe  Fe93  1  0.80785787  0.96682081  0.28656407  1
  Fe  Fe94  1  0.80044875  0.96965505  0.62062006  1
  Fe  Fe95  1  0.30371404  0.46598152  0.61892027  1
  Fe  Fe96  1  0.31438475  0.96516787  0.62146861  1
  Fe  Fe97  1  0.80563270  0.46395535  0.61456011  1
  Fe  Fe98  1  0.79973013  0.46889169  0.95685290  1
  Fe  Fe99  1  0.80490001  0.46551505  0.27917592  1
  Fe  Fe100  1  0.31209597  0.46291364  0.28967779  1
  Fe  Fe101  1  0.80482689  0.96593243  0.95206918  1
  S  S102  1  0.35637416  0.14128391  0.08303825  1
  S  S103  1  0.35789825  0.14573726  0.41521929  1
  S  S104  1  0.35481102  0.14444526  0.75207527  1
  S  S105  1  0.35885357  0.64087245  0.08473444  1
  S  S106  1  0.36321615  0.63851022  0.41634046  1
  S  S107  1  0.35822110  0.63943470  0.75025678  1
  S  S108  1  0.85835192  0.14076039  0.08259295  1
  S  S109  1  0.85518395  0.14363870  0.41521583  1
  S  S110  1  0.85925050  0.14573113  0.74874654  1
  S  S111  1  0.85284987  0.64373394  0.07458603  1
  S  S112  1  0.86152497  0.63787472  0.42053379  1
  S  S113  1  0.86255152  0.63674546  0.74927240  1
  S  S114  1  0.13942981  0.35695068  0.24953868  1
  S  S115  1  0.13735025  0.35972297  0.58387809  1
  S  S116  1  0.13840045  0.36241778  0.91627330  1
  S  S117  1  0.13956355  0.85865440  0.25339123  1
  S  S118  1  0.14287182  0.86189180  0.58143596  1
  S  S119  1  0.14173977  0.85561223  0.91672361  1
  S  S120  1  0.63480030  0.36233154  0.24621709  1
  S  S121  1  0.64265606  0.35820817  0.58265485  1
  S  S122  1  0.63911031  0.35733974  0.91823453  1
  S  S123  1  0.64408701  0.85611996  0.24801291  1
  S  S124  1  0.64214861  0.85756863  0.58213624  1
  S  S125  1  0.64280797  0.86015662  0.91545432  1
  S  S126  1  0.06284960  0.16998820  0.04231648  1
  S  S127  1  0.06589877  0.16864178  0.37550957  1
  S  S128  1  0.06604348  0.17076831  0.70761873  1
  S  S129  1  0.06949936  0.66768014  0.04320149  1
  S  S130  1  0.06836081  0.66035810  0.37327163  1
  S  S131  1  0.07039045  0.66971976  0.71063835  1
  S  S132  1  0.56640406  0.17238126  0.04298948  1
  S  S133  1  0.56645707  0.17528745  0.37197330  1
  S  S134  1  0.55603292  0.16539670  0.71367350  1
  S  S135  1  0.56305088  0.67108744  0.04173101  1
  S  S136  1  0.57053831  0.66839261  0.37442353  1
  S  S137  1  0.57091711  0.66985321  0.70774977  1
  S  S138  1  0.33274179  0.43406208  0.12612274  1
  S  S139  1  0.32565765  0.42840743  0.45619991  1
  S  S140  1  0.32840749  0.43127085  0.79219164  1
  S  S141  1  0.32957759  0.93317531  0.12960498  1
  S  S142  1  0.33124391  0.93384359  0.45851045  1
  S  S143  1  0.32617054  0.94037110  0.78389949  1
  S  S144  1  0.84123351  0.43761023  0.12973429  1
  S  S145  1  0.83104463  0.43169908  0.45580389  1
  S  S146  1  0.82833711  0.43173446  0.78966894  1
  S  S147  1  0.83464341  0.93314041  0.12387662  1
  S  S148  1  0.83078679  0.93969562  0.45752978  1
  S  S149  1  0.83866413  0.93291513  0.79425340  1
  S  S150  1  0.43113393  0.32561776  0.29013348  1
  S  S151  1  0.42934624  0.33530331  0.62845291  1
  S  S152  1  0.43334983  0.33238701  0.95793690  1
  S  S153  1  0.43640728  0.82213375  0.28834835  1
  S  S154  1  0.44155624  0.83220250  0.62433961  1
  S  S155  1  0.43174681  0.82468223  0.95728085  1
  S  S156  1  0.92961870  0.33031720  0.29156694  1
  S  S157  1  0.93337867  0.33407200  0.62199984  1
  S  S158  1  0.92919729  0.33169790  0.95523473  1
  S  S159  1  0.93070146  0.83581328  0.29072546  1
  S  S160  1  0.93293333  0.83074279  0.62719997  1
  S  S161  1  0.93370318  0.82885019  0.95770207  1
  S  S162  1  0.16034381  0.06846974  0.20438995  1
  S  S163  1  0.16886491  0.06918140  0.54051631  1
  S  S164  1  0.15668349  0.06740631  0.87243101  1
  S  S165  1  0.17981077  0.56389131  0.21370082  1
  S  S166  1  0.16855414  0.56566340  0.54391640  1
  S  S167  1  0.16702711  0.56506785  0.87739009  1
  S  S168  1  0.67189658  0.06746394  0.21060451  1
  S  S169  1  0.66940837  0.06487819  0.53906661  1
  S  S170  1  0.67059703  0.06149663  0.87638095  1
  S  S171  1  0.67507383  0.56673193  0.20939380  1
  S  S172  1  0.67507710  0.57179723  0.54368073  1
  S  S173  1  0.66801785  0.56837330  0.86995084  1
  O  O174  1  0.36273637  0.22524769  0.08390281  1
  O  O175  1  0.36392011  0.23102614  0.41760400  1
  O  O176  1  0.36423645  0.22537555  0.74790373  1
  O  O177  1  0.36601470  0.72142272  0.08075483  1
  O  O178  1  0.37065032  0.71570696  0.40402920  1
  O  O179  1  0.36022603  0.71772648  0.74416208  1
  O  O180  1  0.86985221  0.21788964  0.07331965  1
  O  O181  1  0.86628778  0.22321405  0.40821862  1
  O  O182  1  0.87419774  0.22144199  0.73502137  1
  O  O183  1  0.87437291  0.71715526  0.05906296  1
  O  O184  1  0.86565542  0.71459109  0.41111355  1
  O  O185  1  0.87186118  0.71495279  0.73953983  1
  O  O186  1  0.27872008  0.13028141  0.09615420  1
  O  O187  1  0.27359125  0.13348132  0.41435339  1
  O  O188  1  0.27481406  0.13566284  0.75935897  1
  O  O189  1  0.28139259  0.63030038  0.09602892  1
  O  O190  1  0.28414212  0.62757718  0.42253449  1
  O  O191  1  0.28453637  0.62267804  0.76618249  1
  O  O192  1  0.78117140  0.12936000  0.09112000  1
  O  O193  1  0.77551282  0.13550080  0.42139671  1
  O  O194  1  0.78047426  0.14079360  0.75332779  1
  O  O195  1  0.77039000  0.64318982  0.06981080  1
  O  O196  1  0.78444566  0.62407358  0.43242829  1
  O  O197  1  0.78376135  0.62846509  0.75721455  1
  O  O198  1  0.12719861  0.27976107  0.26151189  1
  O  O199  1  0.12701580  0.28135007  0.59255180  1
  O  O200  1  0.12853886  0.28296429  0.92182501  1
  O  O201  1  0.12762283  0.78520206  0.26741300  1
  O  O202  1  0.13193015  0.78344285  0.59120980  1
  O  O203  1  0.12865282  0.77729049  0.92611221  1
  O  O204  1  0.62765529  0.28313375  0.25342575  1
  O  O205  1  0.63925246  0.28129170  0.59195633  1
  O  O206  1  0.63128748  0.27494944  0.91750105  1
  O  O207  1  0.63797809  0.77508792  0.25355754  1
  O  O208  1  0.63348861  0.77572767  0.58610008  1
  O  O209  1  0.63357272  0.77856620  0.92180645  1
  O  O210  1  0.21937176  0.36141696  0.24212146  1
  O  O211  1  0.21637257  0.36742868  0.57604764  1
  O  O212  1  0.21706864  0.37207060  0.90790722  1
  O  O213  1  0.21394853  0.86847638  0.24036503  1
  O  O214  1  0.22439015  0.87050095  0.58063810  1
  O  O215  1  0.21782431  0.86227015  0.90703386  1
  O  O216  1  0.71222936  0.37511060  0.23712929  1
  O  O217  1  0.71977444  0.37271937  0.56993800  1
  O  O218  1  0.71869599  0.37044892  0.91166751  1
  O  O219  1  0.72372150  0.86723002  0.24107273  1
  O  O220  1  0.72232039  0.86499128  0.57412590  1
  O  O221  1  0.72497335  0.86673347  0.91079529  1
  O  O222  1  0.41706257  0.13282946  0.15045962  1
  O  O223  1  0.41125751  0.13473860  0.48202004  1
  O  O224  1  0.41280036  0.13442590  0.81945247  1
  O  O225  1  0.42037089  0.62835454  0.14879707  1
  O  O226  1  0.42141946  0.63530943  0.48696992  1
  O  O227  1  0.42468127  0.62883216  0.81353150  1
  O  O228  1  0.91888098  0.13225138  0.15115459  1
  O  O229  1  0.91312187  0.13682195  0.48475021  1
  O  O230  1  0.91747948  0.14002433  0.81930094  1
  O  O231  1  0.90280988  0.64038295  0.14735420  1
  O  O232  1  0.92283788  0.63154925  0.48909465  1
  O  O233  1  0.92187764  0.62899790  0.81771607  1
  O  O234  1  0.35912223  0.08728284  0.01341027  1
  O  O235  1  0.36743328  0.09733753  0.34455432  1
  O  O236  1  0.36108544  0.08866543  0.68186577  1
  O  O237  1  0.36184661  0.58441015  0.01278240  1
  O  O238  1  0.37548255  0.57745477  0.35128184  1
  O  O239  1  0.36350094  0.58077939  0.67956276  1
  O  O240  1  0.86997673  0.07929172  0.01620516  1
  O  O241  1  0.86444084  0.08540302  0.34766037  1
  O  O242  1  0.87143307  0.08213634  0.68451461  1
  O  O243  1  0.86646898  0.57793579  0.01199695  1
  O  O244  1  0.87071663  0.57619020  0.35385619  1
  O  O245  1  0.87233436  0.57642707  0.68224927  1
  O  O246  1  0.08179175  0.36167085  0.17954915  1
  O  O247  1  0.07854366  0.36885541  0.51580779  1
  O  O248  1  0.07879965  0.37254387  0.84859859  1
  O  O249  1  0.07577645  0.86725100  0.18545153  1
  O  O250  1  0.08692602  0.87064296  0.51324286  1
  O  O251  1  0.07978589  0.86494086  0.84968320  1
  O  O252  1  0.57267044  0.37212745  0.18069772  1
  O  O253  1  0.58126369  0.36529627  0.51559153  1
  O  O254  1  0.58113270  0.37028818  0.85027499  1
  O  O255  1  0.58551051  0.86410370  0.18058360  1
  O  O256  1  0.58390738  0.86544043  0.51301384  1
  O  O257  1  0.58681056  0.86871482  0.84889342  1
  O  O258  1  0.13273722  0.41826775  0.31645353  1
  O  O259  1  0.12895656  0.41991299  0.65160285  1
  O  O260  1  0.12985336  0.42092749  0.98462618  1
  O  O261  1  0.13086123  0.92444794  0.31959039  1
  O  O262  1  0.12903314  0.92091895  0.64855561  1
  O  O263  1  0.13284349  0.91570278  0.98476339  1
  O  O264  1  0.62728658  0.42099207  0.31618726  1
  O  O265  1  0.63700869  0.41847602  0.65155693  1
  O  O266  1  0.62806223  0.41165791  0.98606004  1
  O  O267  1  0.63590481  0.91241977  0.31701015  1
  O  O268  1  0.63482542  0.91470200  0.64925836  1
  O  O269  1  0.63892946  0.91674539  0.98673914  1
  O  O270  1  0.02713653  0.20172017  0.10377576  1
  O  O271  1  0.02785566  0.19925312  0.43630107  1
  O  O272  1  0.03180011  0.20239651  0.76989446  1
  O  O273  1  0.03491556  0.69644255  0.10351781  1
  O  O274  1  0.03629520  0.68139244  0.43756457  1
  O  O275  1  0.03181494  0.69690159  0.77066161  1
  O  O276  1  0.52615414  0.20283974  0.10253312  1
  O  O277  1  0.53054247  0.20427972  0.43136197  1
  O  O278  1  0.52171196  0.20369657  0.77745371  1
  O  O279  1  0.52293369  0.70489699  0.09986667  1
  O  O280  1  0.53323823  0.69764500  0.43410372  1
  O  O281  1  0.53762912  0.69234073  0.77011484  1
  O  O282  1  0.30203104  0.47003302  0.06438602  1
  O  O283  1  0.29602909  0.46653210  0.39577308  1
  O  O284  1  0.29750807  0.46538256  0.72945320  1
  O  O285  1  0.29965934  0.96368983  0.06515121  1
  O  O286  1  0.30548906  0.97310526  0.40102244  1
  O  O287  1  0.29103375  0.97737394  0.72074571  1
  O  O288  1  0.81250061  0.46960395  0.06719096  1
  O  O289  1  0.79841510  0.46299905  0.39186098  1
  O  O290  1  0.80157171  0.46819146  0.72820019  1
  O  O291  1  0.80339400  0.96913273  0.06302180  1
  O  O292  1  0.79435546  0.97608937  0.39692274  1
  O  O293  1  0.81784064  0.96688653  0.73287318  1
  O  O294  1  0.46956320  0.29787060  0.23074682  1
  O  O295  1  0.46457319  0.31371371  0.56859856  1
  O  O296  1  0.46956682  0.30227930  0.89733077  1
  O  O297  1  0.47792221  0.79119216  0.22975602  1
  O  O298  1  0.47108475  0.79884676  0.55686659  1
  O  O299  1  0.47350106  0.79166490  0.90049472  1
  O  O300  1  0.96419124  0.30016907  0.22910268  1
  O  O301  1  0.96987227  0.30288494  0.56145946  1
  O  O302  1  0.96968297  0.30429488  0.89580469  1
  O  O303  1  0.94897126  0.81051886  0.21967034  1
  O  O304  1  0.96984797  0.80331770  0.56808006  1
  O  O305  1  0.96938917  0.79715426  0.89583568  1
  O  O306  1  0.18194987  0.03406522  0.26511621  1
  O  O307  1  0.19736659  0.03551145  0.60291256  1
  O  O308  1  0.17556800  0.03203887  0.93304501  1
  O  O309  1  0.21356120  0.52321297  0.27213482  1
  O  O310  1  0.19719503  0.52812231  0.60534223  1
  O  O311  1  0.19793897  0.52939854  0.93859726  1
  O  O312  1  0.70047511  0.02619102  0.26909124  1
  O  O313  1  0.70344098  0.02641992  0.59717414  1
  O  O314  1  0.70450289  0.03186440  0.94355611  1
  O  O315  1  0.70630512  0.53871387  0.27728751  1
  O  O316  1  0.70600384  0.53396578  0.60438117  1
  O  O317  1  0.69148182  0.52914926  0.92750695  1
  O  O318  1  0.07838459  0.08783325  0.03718871  1
  O  O319  1  0.08406726  0.08780728  0.37119974  1
  O  O320  1  0.07966670  0.08756015  0.70018606  1
  O  O321  1  0.08807470  0.58506189  0.03702088  1
  O  O322  1  0.09038559  0.57728189  0.36542626  1
  O  O323  1  0.08290089  0.58494947  0.70243492  1
  O  O324  1  0.58524954  0.09289330  0.04279534  1
  O  O325  1  0.58687935  0.09395436  0.36782546  1
  O  O326  1  0.57121272  0.08634092  0.71603275  1
  O  O327  1  0.57666190  0.59066723  0.04076890  1
  O  O328  1  0.59004211  0.58708380  0.37017706  1
  O  O329  1  0.58801435  0.58646886  0.69506256  1
  O  O330  1  0.41330993  0.41343884  0.12816174  1
  O  O331  1  0.40302703  0.40448694  0.45713175  1
  O  O332  1  0.41065277  0.41552010  0.80004705  1
  O  O333  1  0.41027884  0.91110100  0.13403528  1
  O  O334  1  0.41399593  0.91608532  0.46725011  1
  O  O335  1  0.40386698  0.92234788  0.78156873  1
  O  O336  1  0.92587011  0.42367622  0.13935739  1
  O  O337  1  0.91366274  0.41527025  0.46123720  1
  O  O338  1  0.91333129  0.41871506  0.79854211  1
  O  O339  1  0.91738863  0.91856868  0.12814915  1
  O  O340  1  0.91208790  0.92896567  0.46036544  1
  O  O341  1  0.92357646  0.91735375  0.80944821  1
  O  O342  1  0.41241034  0.40730418  0.29252539  1
  O  O343  1  0.40834267  0.41791559  0.64128163  1
  O  O344  1  0.41700777  0.41547866  0.96350494  1
  O  O345  1  0.41623958  0.89943840  0.28934300  1
  O  O346  1  0.41713050  0.91123868  0.62385372  1
  O  O347  1  0.40325368  0.89624816  0.94854580  1
  O  O348  1  0.91141035  0.41189432  0.29787099  1
  O  O349  1  0.91864862  0.41746654  0.62677456  1
  O  O350  1  0.91033597  0.41264140  0.95872155  1
  O  O351  1  0.91290813  0.92104096  0.30381447  1
  O  O352  1  0.91279649  0.91253064  0.63126378  1
  O  O353  1  0.91883961  0.91162599  0.96315323  1
  O  O354  1  0.07558050  0.08468628  0.19195284  1
  O  O355  1  0.08496332  0.08491549  0.53291945  1
  O  O356  1  0.07261116  0.08723925  0.86089648  1
  O  O357  1  0.10297788  0.58333942  0.21569742  1
  O  O358  1  0.08590155  0.58157871  0.53841717  1
  O  O359  1  0.08342318  0.57919057  0.87103912  1
  O  O360  1  0.59218135  0.08681622  0.20735211  1
  O  O361  1  0.59216299  0.08441473  0.54121005  1
  O  O362  1  0.59222378  0.08648853  0.87880864  1
  O  O363  1  0.59357429  0.58805366  0.20532613  1
  O  O364  1  0.59684217  0.59369862  0.54181833  1
  O  O365  1  0.58673751  0.59198511  0.86500688  1
  O  O366  1  0.13348744  0.22124270  0.05645371  1
  O  O367  1  0.13578970  0.22297429  0.39307867  1
  O  O368  1  0.13912892  0.22061962  0.72410460  1
  O  O369  1  0.14012929  0.71835156  0.05473142  1
  O  O370  1  0.13923471  0.71293684  0.39093035  1
  O  O371  1  0.14370043  0.71873649  0.73003369  1
  O  O372  1  0.63506563  0.22550110  0.05867306  1
  O  O373  1  0.63768422  0.22769735  0.38612009  1
  O  O374  1  0.62963390  0.21730260  0.73239090  1
  O  O375  1  0.63511396  0.72361302  0.06063422  1
  O  O376  1  0.64141298  0.72110402  0.38993764  1
  O  O377  1  0.64377431  0.72123707  0.72504635  1
  O  O378  1  0.27817108  0.36671388  0.11309561  1
  O  O379  1  0.26771720  0.36080035  0.44009817  1
  O  O380  1  0.27645149  0.35998775  0.77664307  1
  O  O381  1  0.27677704  0.86115796  0.11418044  1
  O  O382  1  0.27907577  0.86225737  0.44046538  1
  O  O383  1  0.27233955  0.86708662  0.76174006  1
  O  O384  1  0.79538131  0.36559931  0.11956548  1
  O  O385  1  0.78112927  0.36103339  0.44452225  1
  O  O386  1  0.77927096  0.35853633  0.77148736  1
  O  O387  1  0.78479446  0.86086145  0.10890235  1
  O  O388  1  0.78232503  0.86530341  0.44080955  1
  O  O389  1  0.78827132  0.85956644  0.77614319  1
  O  O390  1  0.35825751  0.27421882  0.27113171  1
  O  O391  1  0.35857306  0.28139528  0.61184674  1
  O  O392  1  0.36234284  0.28189374  0.94366626  1
  O  O393  1  0.36713688  0.76622355  0.26979051  1
  O  O394  1  0.37516338  0.77771717  0.61436773  1
  O  O395  1  0.36605485  0.76397548  0.94306304  1
  O  O396  1  0.86079040  0.27847749  0.28009513  1
  O  O397  1  0.86140609  0.28473167  0.60659770  1
  O  O398  1  0.85963228  0.27750872  0.93634303  1
  O  O399  1  0.86062607  0.78546875  0.28243849  1
  O  O400  1  0.86199465  0.77813937  0.61214991  1
  O  O401  1  0.86087981  0.77877031  0.93971848  1
  O  O402  1  0.21068084  0.14118824  0.22125204  1
  O  O403  1  0.21837470  0.14208612  0.55576509  1
  O  O404  1  0.21003170  0.13674718  0.88862543  1
  O  O405  1  0.23416481  0.63364260  0.22985859  1
  O  O406  1  0.22049318  0.63645485  0.56147904  1
  O  O407  1  0.21613093  0.63686690  0.89214860  1
  O  O408  1  0.72648200  0.13775835  0.23093058  1
  O  O409  1  0.72410480  0.13553322  0.55430311  1
  O  O410  1  0.72467318  0.12767370  0.88548067  1
  O  O411  1  0.72777081  0.63625279  0.22139133  1
  O  O412  1  0.73119522  0.64038235  0.56002349  1
  O  O413  1  0.72332230  0.63802598  0.88708203  1
  O  O414  1  0.49335417  0.33693989  0.03117226  1
  O  O415  1  0.48746408  0.32929278  0.36378081  1
  O  O416  1  0.48944019  0.33543888  0.70047819  1
  O  O417  1  0.48984492  0.83425709  0.03343158  1
  O  O418  1  0.49404722  0.82374049  0.36239446  1
  O  O419  1  0.50720638  0.84272840  0.69281691  1
  O  O420  1  0.98804357  0.33373871  0.02811065  1
  O  O421  1  0.99308185  0.33382052  0.36323023  1
  O  O422  1  0.99247025  0.33846878  0.69595570  1
  O  O423  1  0.99268208  0.82895638  0.02933858  1
  O  O424  1  0.99763225  0.83750971  0.35558487  1
  O  O425  1  0.99144931  0.83611632  0.70184098  1
  O  O426  1  0.16284688  0.00972934  0.13288316  1
  O  O427  1  0.16705260  0.00983309  0.46837017  1
  O  O428  1  0.15389531  0.00695187  0.79953796  1
  O  O429  1  0.17554006  0.50525293  0.13902055  1
  O  O430  1  0.16703472  0.50604131  0.47177276  1
  O  O431  1  0.16375117  0.50523362  0.80399812  1
  O  O432  1  0.67134737  0.01022664  0.13755007  1
  O  O433  1  0.66486150  0.00786615  0.46327969  1
  O  O434  1  0.65946952  -0.00432002  0.80804287  1
  O  O435  1  0.66885151  0.50147923  0.14169873  1
  O  O436  1  0.67171590  0.51066956  0.47158871  1
  O  O437  1  0.66138645  0.51024065  0.79494233  1
  O  O438  1  0.00627864  0.16677196  0.30307952  1
  O  O439  1  0.00709707  0.17224809  0.63598100  1
  O  O440  1  0.00263955  0.16829091  0.96973073  1
  O  O441  1  0.00688313  0.65754714  0.30436100  1
  O  O442  1  0.01301455  0.67081382  0.63819296  1
  O  O443  1  0.00851254  0.66158524  0.96866612  1
  O  O444  1  0.50732633  0.16861899  0.29734072  1
  O  O445  1  0.49954555  0.16460436  0.64262521  1
  O  O446  1  0.50570093  0.16793697  0.96988202  1
  O  O447  1  0.51178869  0.66257094  0.30030843  1
  O  O448  1  0.51138619  0.67365282  0.63808805  1
  O  O449  1  0.50927497  0.66790101  0.96544178  1
  O  O450  1  0.34187889  0.49497666  0.20005927  1
  O  O451  1  0.33002658  0.48859194  0.52920884  1
  O  O452  1  0.32738470  0.49162633  0.86324482  1
  O  O453  1  0.33407268  0.99393345  0.20020391  1
  O  O454  1  0.33202406  0.99174021  0.53279674  1
  O  O455  1  0.32334147  0.99632824  0.85343775  1
  O  O456  1  0.84114828  0.50000655  0.20103105  1
  O  O457  1  0.83532686  0.49396511  0.52775786  1
  O  O458  1  0.82735113  0.49033497  0.86135692  1
  O  O459  1  0.83648961  0.99212513  0.19685997  1
  O  O460  1  0.83122207  0.99519837  0.53172632  1
  O  O461  1  0.83353105  0.99163569  0.86447680  1
