# generated using pymatgen
data_Na31Fe20(SO4)36
_symmetry_space_group_name_H-M   'P 1'
_cell_length_a   18.08127905
_cell_length_b   18.08241050
_cell_length_c   19.71503203
_cell_angle_alpha   107.59643695
_cell_angle_beta   107.55964485
_cell_angle_gamma   90.77318746
_symmetry_Int_Tables_number   1
_chemical_formula_structural   Na31Fe20(SO4)36
_chemical_formula_sum   'Na62 Fe40 S72 O288'
_cell_volume   5818.97510329
_cell_formula_units_Z   2
loop_
 _symmetry_equiv_pos_site_id
 _symmetry_equiv_pos_as_xyz
  1  'x, y, z'
loop_
 _atom_site_type_symbol
 _atom_site_label
 _atom_site_symmetry_multiplicity
 _atom_site_fract_x
 _atom_site_fract_y
 _atom_site_fract_z
 _atom_site_occupancy
  Na  Na0  1  0.13267231  0.36352700  0.08253745  1
  Na  Na1  1  0.11117297  0.37711924  0.42063371  1
  Na  Na2  1  0.13518678  0.37015713  0.75531985  1
  Na  Na3  1  0.14360946  0.87418825  0.08490989  1
  Na  Na4  1  0.14111485  0.86755452  0.42409178  1
  Na  Na5  1  0.12970096  0.86750331  0.74372366  1
  Na  Na6  1  0.63695058  0.34238635  0.05871734  1
  Na  Na7  1  0.63598864  0.35629060  0.41380651  1
  Na  Na8  1  0.63829521  0.35891588  0.74726037  1
  Na  Na9  1  0.64696724  0.87581006  0.09593427  1
  Na  Na10  1  0.63686201  0.85823051  0.41422864  1
  Na  Na11  1  0.63604798  0.86608177  0.75498422  1
  Na  Na12  1  0.36105190  0.12696469  0.24038853  1
  Na  Na13  1  0.36984786  0.13723079  0.58592095  1
  Na  Na14  1  0.36869903  0.12757851  0.91573538  1
  Na  Na15  1  0.36724028  0.64027549  0.26305725  1
  Na  Na16  1  0.35943068  0.64126301  0.58069241  1
  Na  Na17  1  0.36540391  0.63362021  0.91461033  1
  Na  Na18  1  0.85964687  0.14231917  0.26173288  1
  Na  Na19  1  0.84004538  0.12191689  0.54884405  1
  Na  Na20  1  0.86519874  0.13494479  0.91928650  1
  Na  Na21  1  0.86136076  0.63031987  0.24393324  1
  Na  Na22  1  0.88831677  0.61895483  0.57771807  1
  Na  Na23  1  0.86879005  0.63577384  0.91779247  1
  Na  Na24  1  0.51372822  -0.01668577  0.41167854  1
  Na  Na25  1  0.49124995  0.51050082  0.08503619  1
  Na  Na26  1  0.99668066  0.00975941  0.08891171  1
  Na  Na27  1  0.99572671  0.50834267  0.74208861  1
  Na  Na28  1  0.49126334  0.51875190  0.41663680  1
  Na  Na29  1  0.48212669  0.03039632  0.78587194  1
  Na  Na30  1  0.99258227  0.50961225  0.07620710  1
  Na  Na31  1  0.48838739  0.51188952  0.75205235  1
  Na  Na32  1  0.45701170  0.01360257  0.05380990  1
  Na  Na33  1  -0.03619640  1.01393831  0.30426767  1
  Na  Na34  1  -0.00445474  0.49856197  0.27097988  1
  Na  Na35  1  -0.00472457  0.98638728  0.59714584  1
  Na  Na36  1  0.51308684  0.48099651  0.91721657  1
  Na  Na37  1  0.55381299  0.99171665  0.25697671  1
  Na  Na38  1  0.51050018  0.48995395  0.58209307  1
  Na  Na39  1  0.51141851  0.48082719  0.24679969  1
  Na  Na40  1  0.51015266  0.96026848  0.57816388  1
  Na  Na41  1  0.05757814  0.99873996  0.92498948  1
  Na  Na42  1  0.23388295  0.22791415  0.00495725  1
  Na  Na43  1  0.25371266  0.75109470  0.34573742  1
  Na  Na44  1  0.76041036  0.75236272  0.66283007  1
  Na  Na45  1  0.25000577  0.75448880  0.65337716  1
  Na  Na46  1  0.26412368  0.77020419  -0.00836399  1
  Na  Na47  1  0.23931000  0.24694916  0.33806195  1
  Na  Na48  1  0.24289654  0.24865293  0.67181711  1
  Na  Na49  1  0.74637140  0.22823245  0.36205456  1
  Na  Na50  1  0.75559211  0.25041641  0.65196972  1
  Na  Na51  1  0.76423663  0.76574506  0.32421310  1
  Na  Na52  1  0.24429896  0.25020225  0.50378158  1
  Na  Na53  1  0.23828782  0.23766030  0.17225578  1
  Na  Na54  1  0.75333117  0.74873820  0.49725137  1
  Na  Na55  1  0.24788076  0.24459762  0.84115884  1
  Na  Na56  1  0.76467748  0.76623445  0.15277682  1
  Na  Na57  1  0.26106293  0.76010784  0.16541791  1
  Na  Na58  1  0.26126265  0.76971279  0.82686697  1
  Na  Na59  1  0.74795207  0.74365530  0.84320720  1
  Na  Na60  1  0.74254916  0.24208248  0.16489207  1
  Na  Na61  1  0.73201076  0.23663142  0.84961754  1
  Fe  Fe62  1  0.95683780  0.30982799  0.11424240  1
  Fe  Fe63  1  0.46346369  0.81826844  0.79525769  1
  Fe  Fe64  1  0.46766282  0.80544165  0.12314969  1
  Fe  Fe65  1  0.96121746  0.31151584  0.78318155  1
  Fe  Fe66  1  0.97155441  0.80584822  0.78754642  1
  Fe  Fe67  1  0.47120903  0.29981443  0.78490835  1
  Fe  Fe68  1  0.46532878  0.30660824  0.44966684  1
  Fe  Fe69  1  0.96624789  0.81133155  0.12371089  1
  Fe  Fe70  1  0.46690295  0.30322898  0.11102819  1
  Fe  Fe71  1  0.96936618  0.79544657  0.45754694  1
  Fe  Fe72  1  0.68400215  0.03693641  0.04071400  1
  Fe  Fe73  1  0.19104036  0.04022224  0.71010984  1
  Fe  Fe74  1  0.18986925  0.53812359  0.71244300  1
  Fe  Fe75  1  0.19001587  0.53591159  0.04730431  1
  Fe  Fe76  1  0.69499547  0.53592187  0.05006029  1
  Fe  Fe77  1  0.69428652  0.53499748  0.38225817  1
  Fe  Fe78  1  0.69381907  0.53448530  0.71393747  1
  Fe  Fe79  1  0.18941354  0.03631514  0.37755978  1
  Fe  Fe80  1  0.69287272  0.03399567  0.71726104  1
  Fe  Fe81  1  0.19277926  0.53486913  0.38883778  1
  Fe  Fe82  1  0.52914495  0.70141836  0.54904958  1
  Fe  Fe83  1  0.02914440  0.19426346  0.87421788  1
  Fe  Fe84  1  0.02625443  0.20365459  0.53914275  1
  Fe  Fe85  1  0.53939477  0.69352360  0.88502795  1
  Fe  Fe86  1  0.53116194  0.69072417  0.21832846  1
  Fe  Fe87  1  0.53189247  0.19053653  0.21117209  1
  Fe  Fe88  1  0.53809649  0.18362022  0.54114292  1
  Fe  Fe89  1  0.03786064  0.69307868  0.88407160  1
  Fe  Fe90  1  0.02852927  0.19837166  0.21507921  1
  Fe  Fe91  1  0.03908133  0.69117434  0.21738887  1
  Fe  Fe92  1  0.80667986  0.46228880  0.61135782  1
  Fe  Fe93  1  0.80912677  0.96511522  0.62315488  1
  Fe  Fe94  1  0.30506812  0.46372534  0.28478624  1
  Fe  Fe95  1  0.31013309  0.96726228  0.28804741  1
  Fe  Fe96  1  0.80980901  0.96337002  0.95458509  1
  Fe  Fe97  1  0.30787219  0.96626600  0.61668895  1
  Fe  Fe98  1  0.30459679  0.46468145  0.95061273  1
  Fe  Fe99  1  0.80592793  0.46711443  0.94754746  1
  Fe  Fe100  1  0.30691639  0.46400622  0.61857781  1
  Fe  Fe101  1  0.80663998  0.46238323  0.28600316  1
  S  S102  1  0.35580290  0.14898815  0.08213426  1
  S  S103  1  0.35752321  0.14519254  0.41494028  1
  S  S104  1  0.35735965  0.14356593  0.74750852  1
  S  S105  1  0.35900451  0.63826506  0.08404591  1
  S  S106  1  0.36000855  0.63521465  0.41846738  1
  S  S107  1  0.36304752  0.64065797  0.75216717  1
  S  S108  1  0.85797344  0.14037008  0.08191804  1
  S  S109  1  0.86566231  0.13714488  0.41255109  1
  S  S110  1  0.85494621  0.14389071  0.74860730  1
  S  S111  1  0.86280976  0.63827000  0.08369719  1
  S  S112  1  0.85874922  0.63718567  0.41072735  1
  S  S113  1  0.86266582  0.63842160  0.74979909  1
  S  S114  1  0.13602111  0.36363800  0.24825448  1
  S  S115  1  0.14293166  0.36231829  0.59049649  1
  S  S116  1  0.13831766  0.36088451  0.91728028  1
  S  S117  1  0.14381662  0.85842052  0.25054301  1
  S  S118  1  0.13721730  0.86685884  0.58165388  1
  S  S119  1  0.14339431  0.85739673  0.92009774  1
  S  S120  1  0.63651052  0.35925924  0.24880142  1
  S  S121  1  0.63849330  0.35983071  0.58186876  1
  S  S122  1  0.64083356  0.36366403  0.91215067  1
  S  S123  1  0.64096087  0.84868210  0.25051544  1
  S  S124  1  0.64461864  0.85692952  0.58810725  1
  S  S125  1  0.64376143  0.85641046  0.91836035  1
  S  S126  1  0.05838716  0.17312100  0.04238308  1
  S  S127  1  0.07082543  0.17613210  0.37706577  1
  S  S128  1  0.06794537  0.17947565  0.70645726  1
  S  S129  1  0.06938272  0.67126626  0.04739260  1
  S  S130  1  0.06842210  0.66953491  0.37376920  1
  S  S131  1  0.07015919  0.67064756  0.71496865  1
  S  S132  1  0.56082327  0.16715760  0.03884345  1
  S  S133  1  0.55901873  0.16488278  0.37429601  1
  S  S134  1  0.56690492  0.16763558  0.70522358  1
  S  S135  1  0.56580980  0.66421387  0.04288019  1
  S  S136  1  0.56585867  0.66089836  0.37647771  1
  S  S137  1  0.56720713  0.66823499  0.71054924  1
  S  S138  1  0.32922403  0.43308949  0.12316610  1
  S  S139  1  0.33327535  0.43161481  0.46011257  1
  S  S140  1  0.33680952  0.43480819  0.79217071  1
  S  S141  1  0.34602743  0.93325885  0.13241018  1
  S  S142  1  0.33408954  0.94354638  0.45666760  1
  S  S143  1  0.32454731  0.93759316  0.78730195  1
  S  S144  1  0.82821332  0.43351212  0.12107280  1
  S  S145  1  0.82449310  0.43059338  0.44966746  1
  S  S146  1  0.82802909  0.43464273  0.78506731  1
  S  S147  1  0.83912757  0.94010751  0.12681602  1
  S  S148  1  0.83400963  0.91745195  0.46186033  1
  S  S149  1  0.83309158  0.93054140  0.79233818  1
  S  S150  1  0.43233964  0.33404229  0.29011575  1
  S  S151  1  0.43526304  0.33295238  0.62375521  1
  S  S152  1  0.43400893  0.33909745  0.95698646  1
  S  S153  1  0.43341715  0.82694381  0.29432636  1
  S  S154  1  0.43308486  0.83370513  0.63129765  1
  S  S155  1  0.43511572  0.82601317  0.95587118  1
  S  S156  1  0.92874775  0.33049808  0.28360424  1
  S  S157  1  0.93281578  0.33130917  0.62610594  1
  S  S158  1  0.93033117  0.33367415  0.95439216  1
  S  S159  1  0.93252505  0.81819570  0.28812599  1
  S  S160  1  0.93168396  0.82369753  0.62303000  1
  S  S161  1  0.93617976  0.82848685  0.95924185  1
  S  S162  1  0.16665108  0.06959193  0.20972156  1
  S  S163  1  0.17071771  0.08048054  0.54198898  1
  S  S164  1  0.16261296  0.07297939  0.86683383  1
  S  S165  1  0.17167335  0.56629201  0.21060616  1
  S  S166  1  0.17235679  0.56460570  0.54900731  1
  S  S167  1  0.17376678  0.56974733  0.87986717  1
  S  S168  1  0.66320887  0.07054905  0.20441303  1
  S  S169  1  0.66461328  0.05623888  0.54276960  1
  S  S170  1  0.67311756  0.06463142  0.87788276  1
  S  S171  1  0.66568625  0.56238501  0.20659960  1
  S  S172  1  0.66454781  0.56633891  0.54179465  1
  S  S173  1  0.66888787  0.56640523  0.87223825  1
  O  O174  1  0.36886082  0.23035699  0.07634683  1
  O  O175  1  0.36721133  0.22379475  0.40542594  1
  O  O176  1  0.36963613  0.22120249  0.73657316  1
  O  O177  1  0.36880131  0.71710776  0.07648363  1
  O  O178  1  0.36797931  0.70859303  0.40431322  1
  O  O179  1  0.37159664  0.72127775  0.74772283  1
  O  O180  1  0.86474653  0.21743407  0.07060276  1
  O  O181  1  0.87701491  0.21171611  0.39899830  1
  O  O182  1  0.86485455  0.22382447  0.74272649  1
  O  O183  1  0.87296922  0.71904749  0.08213736  1
  O  O184  1  0.87248742  0.71785385  0.40274911  1
  O  O185  1  0.87240675  0.71788711  0.74383555  1
  O  O186  1  0.27792479  0.14323474  0.08958858  1
  O  O187  1  0.27773942  0.13829534  0.42155019  1
  O  O188  1  0.27472390  0.13887489  0.74914630  1
  O  O189  1  0.28077187  0.62985094  0.09330042  1
  O  O190  1  0.28247177  0.62243721  0.42765392  1
  O  O191  1  0.28559426  0.63042833  0.76254727  1
  O  O192  1  0.77912573  0.12775609  0.08831004  1
  O  O193  1  0.79198183  0.13003517  0.42833989  1
  O  O194  1  0.77644070  0.13402833  0.75776334  1
  O  O195  1  0.78505320  0.62834107  0.09469102  1
  O  O196  1  0.77669959  0.63412678  0.41424496  1
  O  O197  1  0.78354216  0.62987585  0.75849554  1
  O  O198  1  0.12805806  0.28347626  0.25409267  1
  O  O199  1  0.12739786  0.28161872  0.59634611  1
  O  O200  1  0.12957588  0.28170307  0.92504109  1
  O  O201  1  0.13869349  0.77796870  0.25646190  1
  O  O202  1  0.13682939  0.79641305  0.60222956  1
  O  O203  1  0.12888029  0.77851559  0.93007603  1
  O  O204  1  0.62585704  0.28222088  0.25942496  1
  O  O205  1  0.62752887  0.28161334  0.59046887  1
  O  O206  1  0.63451249  0.28778131  0.92175158  1
  O  O207  1  0.62560571  0.76926870  0.25924376  1
  O  O208  1  0.63203469  0.77771780  0.59596440  1
  O  O209  1  0.63589160  0.77657641  0.92435286  1
  O  O210  1  0.21556763  0.37201381  0.23982351  1
  O  O211  1  0.22614788  0.36427505  0.58888110  1
  O  O212  1  0.21687151  0.36952822  0.90687480  1
  O  O213  1  0.22234450  0.87146953  0.24210036  1
  O  O214  1  0.21176761  0.88334881  0.56789801  1
  O  O215  1  0.22176928  0.86082698  0.91370892  1
  O  O216  1  0.71493404  0.36751338  0.24028453  1
  O  O217  1  0.71738954  0.36918760  0.57586112  1
  O  O218  1  0.71763004  0.37656393  0.89967948  1
  O  O219  1  0.71856587  0.85140014  0.24247096  1
  O  O220  1  0.72790935  0.86351806  0.58917560  1
  O  O221  1  0.72075869  0.86602350  0.90613688  1
  O  O222  1  0.41473607  0.14195486  0.15209238  1
  O  O223  1  0.41506817  0.13939133  0.48455561  1
  O  O224  1  0.41100017  0.13707864  0.81672971  1
  O  O225  1  0.41845874  0.62777024  0.15105046  1
  O  O226  1  0.42029347  0.62995638  0.48819360  1
  O  O227  1  0.42415559  0.62876681  0.81762953  1
  O  O228  1  0.91725557  0.13584854  0.15198019  1
  O  O229  1  0.93038186  0.13535126  0.48557584  1
  O  O230  1  0.91413870  0.13674777  0.81681476  1
  O  O231  1  0.92380229  0.62207225  0.14631055  1
  O  O232  1  0.91452848  0.62848750  0.47656034  1
  O  O233  1  0.92196323  0.62826097  0.81696285  1
  O  O234  1  0.36556287  0.09206186  0.01590022  1
  O  O235  1  0.36636638  0.08558279  0.34811757  1
  O  O236  1  0.36667051  0.08219789  0.68098243  1
  O  O237  1  0.36677930  0.57937108  0.01567816  1
  O  O238  1  0.37121657  0.56994186  0.35379565  1
  O  O239  1  0.37064717  0.58352312  0.68260427  1
  O  O240  1  0.87127162  0.07964403  0.01705000  1
  O  O241  1  0.87431945  0.07241626  0.35048467  1
  O  O242  1  0.86094309  0.08569119  0.67943482  1
  O  O243  1  0.86660817  0.58201439  0.01175323  1
  O  O244  1  0.86277373  0.57962620  0.33966861  1
  O  O245  1  0.86936151  0.57945461  0.68100496  1
  O  O246  1  0.07760779  0.37369760  0.18133859  1
  O  O247  1  0.08946034  0.37382764  0.52489450  1
  O  O248  1  0.07891906  0.36972592  0.85058751  1
  O  O249  1  0.08405441  0.86550866  0.18283784  1
  O  O250  1  0.07421954  0.86146034  0.50883538  1
  O  O251  1  0.08507339  0.86395548  0.84900039  1
  O  O252  1  0.57739979  0.36726400  0.17997983  1
  O  O253  1  0.57983502  0.36909627  0.51362754  1
  O  O254  1  0.57937789  0.37252492  0.84463462  1
  O  O255  1  0.58301569  0.85506351  0.17932988  1
  O  O256  1  0.59101403  0.86541818  0.51955289  1
  O  O257  1  0.58281784  0.86489850  0.85142443  1
  O  O258  1  0.12884547  0.42141711  0.31744301  1
  O  O259  1  0.13943705  0.41940905  0.66198260  1
  O  O260  1  0.13397662  0.41926192  0.98718206  1
  O  O261  1  0.13606706  0.91490596  0.31992004  1
  O  O262  1  0.12079211  0.93332272  0.64075081  1
  O  O263  1  0.13265118  0.91777422  0.98427174  1
  O  O264  1  0.62649592  0.42054428  0.31502645  1
  O  O265  1  0.62792804  0.42024582  0.64880589  1
  O  O266  1  0.63222980  0.42612800  0.97925150  1
  O  O267  1  0.63000249  0.90836709  0.31491967  1
  O  O268  1  0.63358895  0.91592058  0.65546108  1
  O  O269  1  0.63858716  0.91421331  0.98777884  1
  O  O270  1  0.02353597  0.21103032  0.10358935  1
  O  O271  1  0.04446669  0.20473311  0.44357164  1
  O  O272  1  0.02649516  0.20552312  0.76408770  1
  O  O273  1  0.03116629  0.70267617  0.10679892  1
  O  O274  1  0.03265492  0.70188850  0.43356866  1
  O  O275  1  0.03477907  0.70246617  0.77840868  1
  O  O276  1  0.53018378  0.20139958  0.10572515  1
  O  O277  1  0.52527397  0.20397180  0.43748061  1
  O  O278  1  0.52915455  0.19659673  0.76371446  1
  O  O279  1  0.52709320  0.69133238  0.10202033  1
  O  O280  1  0.53356349  0.68032772  0.43881870  1
  O  O281  1  0.53271607  0.69642332  0.77225872  1
  O  O282  1  0.29849330  0.46961697  0.06239271  1
  O  O283  1  0.29652002  0.46101874  0.39578390  1
  O  O284  1  0.30784351  0.47194624  0.73236813  1
  O  O285  1  0.33545044  0.96676148  0.07277568  1
  O  O286  1  0.29633091  0.98002480  0.39595364  1
  O  O287  1  0.29365899  0.97085072  0.72217299  1
  O  O288  1  0.79726880  0.46820825  0.05844579  1
  O  O289  1  0.78984784  0.47269325  0.39098671  1
  O  O290  1  0.79688059  0.47110323  0.72371163  1
  O  O291  1  0.80359836  0.96694959  0.05951227  1
  O  O292  1  0.81259483  0.94385799  0.39782757  1
  O  O293  1  0.80492567  0.97149977  0.73446948  1
  O  O294  1  0.46712349  0.30459623  0.22893460  1
  O  O295  1  0.46970204  0.30591606  0.56180738  1
  O  O296  1  0.46706225  0.31790024  0.89516040  1
  O  O297  1  0.46279261  0.79214282  0.22763429  1
  O  O298  1  0.46890175  0.80315500  0.57128818  1
  O  O299  1  0.47521019  0.79198431  0.89682396  1
  O  O300  1  0.96496771  0.30041702  0.22008283  1
  O  O301  1  0.96922814  0.30059657  0.56648593  1
  O  O302  1  0.96864954  0.30448866  0.89472130  1
  O  O303  1  0.97784516  0.78933839  0.23257054  1
  O  O304  1  0.96691772  0.79751530  0.56165381  1
  O  O305  1  0.97008570  0.79830713  0.89632457  1
  O  O306  1  0.19731784  0.03521492  0.27312803  1
  O  O307  1  0.19794079  0.04389818  0.60250260  1
  O  O308  1  0.18249647  0.04030180  0.92766064  1
  O  O309  1  0.20126017  0.53143402  0.27247822  1
  O  O310  1  0.20929782  0.52491241  0.60912808  1
  O  O311  1  0.20170115  0.53147569  0.94043919  1
  O  O312  1  0.68035064  0.03462997  0.26301128  1
  O  O313  1  0.69781324  0.02552952  0.60873658  1
  O  O314  1  0.70568928  0.02556120  0.93767168  1
  O  O315  1  0.69716817  0.52636216  0.26709880  1
  O  O316  1  0.69923022  0.53176024  0.60360207  1
  O  O317  1  0.70262231  0.53630178  0.93679019  1
  O  O318  1  0.06632789  0.09176337  0.03948180  1
  O  O319  1  0.08877619  0.09357256  0.36681621  1
  O  O320  1  0.08400983  0.09721718  0.69610102  1
  O  O321  1  0.08597357  0.58980695  0.04641940  1
  O  O322  1  0.09111368  0.59051861  0.37534247  1
  O  O323  1  0.09047182  0.59053850  0.71837367  1
  O  O324  1  0.57567728  0.08460548  0.03449256  1
  O  O325  1  0.56563515  0.08365885  0.37269760  1
  O  O326  1  0.58324093  0.08511622  0.69897343  1
  O  O327  1  0.58159427  0.58059209  0.03636261  1
  O  O328  1  0.58364398  0.57639930  0.36196468  1
  O  O329  1  0.58153137  0.58382600  0.70193655  1
  O  O330  1  0.41124130  0.41600444  0.12667781  1
  O  O331  1  0.41597518  0.41784297  0.46185039  1
  O  O332  1  0.41891408  0.41746245  0.79634593  1
  O  O333  1  0.42930797  0.91352017  0.15625693  1
  O  O334  1  0.41600208  0.93707356  0.46067860  1
  O  O335  1  0.40613325  0.91842560  0.78949448  1
  O  O336  1  0.91231587  0.42162954  0.12762792  1
  O  O337  1  0.90126132  0.41347144  0.44883238  1
  O  O338  1  0.90982828  0.41966227  0.79023091  1
  O  O339  1  0.91794728  0.91409260  0.12308006  1
  O  O340  1  0.91729733  0.89394935  0.47743581  1
  O  O341  1  0.91304113  0.90962005  0.79669314  1
  O  O342  1  0.41793923  0.41792040  0.29707055  1
  O  O343  1  0.41932966  0.41690729  0.63218209  1
  O  O344  1  0.41552584  0.42331068  0.96949037  1
  O  O345  1  0.41243601  0.90761931  0.29667411  1
  O  O346  1  0.41732700  0.91648797  0.63480467  1
  O  O347  1  0.41690852  0.90297676  0.95309894  1
  O  O348  1  0.90768116  0.41079864  0.28197639  1
  O  O349  1  0.91182460  0.41163321  0.62756722  1
  O  O350  1  0.91173889  0.41523650  0.95881702  1
  O  O351  1  0.91429638  0.89579512  0.28906717  1
  O  O352  1  0.91121475  0.90501933  0.63154830  1
  O  O353  1  0.91887750  0.91047808  0.96562777  1
  O  O354  1  0.08805819  0.09620189  0.20950290  1
  O  O355  1  0.09300412  0.10716390  0.54015122  1
  O  O356  1  0.08019116  0.09516329  0.85479831  1
  O  O357  1  0.08883206  0.58196783  0.20306673  1
  O  O358  1  0.09546992  0.58075645  0.55038592  1
  O  O359  1  0.09157827  0.58549240  0.87185204  1
  O  O360  1  0.57736732  0.08526682  0.18582204  1
  O  O361  1  0.58175003  0.07378678  0.53894172  1
  O  O362  1  0.59511679  0.08320248  0.87671377  1
  O  O363  1  0.58306531  0.57869186  0.20382259  1
  O  O364  1  0.58304607  0.58231340  0.54138377  1
  O  O365  1  0.58637911  0.58199095  0.86961703  1
  O  O366  1  0.13370889  0.22087536  0.06007675  1
  O  O367  1  0.14080538  0.22853513  0.38885330  1
  O  O368  1  0.14141448  0.23234208  0.73154432  1
  O  O369  1  0.14151502  0.72159050  0.06359039  1
  O  O370  1  0.13523449  0.72220232  0.38117406  1
  O  O371  1  0.14211529  0.72196633  0.73134493  1
  O  O372  1  0.63532850  0.21491152  0.05631108  1
  O  O373  1  0.63248748  0.21162077  0.38914102  1
  O  O374  1  0.63974151  0.21868886  0.72272285  1
  O  O375  1  0.63749104  0.71433940  0.05974062  1
  O  O376  1  0.63606984  0.71327078  0.39216755  1
  O  O377  1  0.64091923  0.71657762  0.72697907  1
  O  O378  1  0.27725851  0.36259808  0.10848033  1
  O  O379  1  0.28688299  0.36002509  0.45192694  1
  O  O380  1  0.28542110  0.36380827  0.77771366  1
  O  O381  1  0.29061778  0.86125794  0.11095748  1
  O  O382  1  0.28725884  0.86922387  0.43978700  1
  O  O383  1  0.27359823  0.86384885  0.76811270  1
  O  O384  1  0.78050548  0.36108840  0.10643279  1
  O  O385  1  0.76754847  0.36271870  0.43274885  1
  O  O386  1  0.77720136  0.36240016  0.76759241  1
  O  O387  1  0.78718871  0.87351428  0.12094719  1
  O  O388  1  0.78010124  0.84913282  0.45295693  1
  O  O389  1  0.77789265  0.86021136  0.77330644  1
  O  O390  1  0.35936074  0.28613297  0.27621558  1
  O  O391  1  0.36331948  0.28260640  0.60779580  1
  O  O392  1  0.36366088  0.28732651  0.94253902  1
  O  O393  1  0.36212353  0.77555846  0.28103825  1
  O  O394  1  0.36105923  0.78478847  0.61787468  1
  O  O395  1  0.36474625  0.77027861  0.93695447  1
  O  O396  1  0.85745289  0.27823947  0.26508004  1
  O  O397  1  0.86497397  0.27880405  0.61618794  1
  O  O398  1  0.86063320  0.28100967  0.93878122  1
  O  O399  1  0.86167493  0.76166005  0.26324762  1
  O  O400  1  0.86214496  0.76854240  0.60657703  1
  O  O401  1  0.86552387  0.77628731  0.94377850  1
  O  O402  1  0.22277393  0.13905166  0.22612986  1
  O  O403  1  0.22860260  0.14755035  0.55678217  1
  O  O404  1  0.21756631  0.14343147  0.88261830  1
  O  O405  1  0.22258571  0.63798864  0.22627677  1
  O  O406  1  0.22763328  0.63354548  0.56485298  1
  O  O407  1  0.22648471  0.64110829  0.89916611  1
  O  O408  1  0.71341300  0.14519449  0.22521677  1
  O  O409  1  0.71282399  0.12898767  0.55691774  1
  O  O410  1  0.72855265  0.13245175  0.89253768  1
  O  O411  1  0.71534732  0.63369407  0.21991383  1
  O  O412  1  0.71401573  0.63739964  0.55358726  1
  O  O413  1  0.71754838  0.63591666  0.88052581  1
  O  O414  1  0.49575138  0.34081533  0.02846330  1
  O  O415  1  0.49200665  0.33558724  0.36247332  1
  O  O416  1  0.49447129  0.33353052  0.69553919  1
  O  O417  1  0.49100993  0.82854880  0.03035122  1
  O  O418  1  0.49650280  0.83287569  0.36316906  1
  O  O419  1  0.49247144  0.83708585  0.70506547  1
  O  O420  1  0.98961221  0.33947304  0.02861276  1
  O  O421  1  0.98785566  0.33563881  0.35339048  1
  O  O422  1  0.99430801  0.34264580  0.70153938  1
  O  O423  1  0.99680043  0.82972711  0.03065313  1
  O  O424  1  0.98487529  0.81715139  0.36342932  1
  O  O425  1  0.99187760  0.82534076  0.69476565  1
  O  O426  1  0.15801738  0.00901064  0.13878386  1
  O  O427  1  0.16463759  0.01877948  0.46951734  1
  O  O428  1  0.16171122  0.01356076  0.79392445  1
  O  O429  1  0.17026438  0.50650204  0.13834992  1
  O  O430  1  0.17260333  0.50507113  0.47591762  1
  O  O431  1  0.17599076  0.51094026  0.80886043  1
  O  O432  1  0.67167518  0.01461517  0.13351322  1
  O  O433  1  0.66051660  -0.00550042  0.47363458  1
  O  O434  1  0.66975457  0.00460704  0.80375968  1
  O  O435  1  0.66010741  0.50273962  0.13283797  1
  O  O436  1  0.65810003  0.50609914  0.46843898  1
  O  O437  1  0.66243355  0.50328935  0.80008968  1
  O  O438  1  0.00722452  0.17521993  0.30790732  1
  O  O439  1  0.01376574  0.18379723  0.63424183  1
  O  O440  1  0.00409746  0.17562786  0.96895827  1
  O  O441  1  0.00635091  0.65459590  0.29801826  1
  O  O442  1  0.01159474  0.66487925  0.64471726  1
  O  O443  1  0.01187065  0.66641923  0.97326962  1
  O  O444  1  0.50141560  0.16678695  0.30181858  1
  O  O445  1  0.51007314  0.16764167  0.63137422  1
  O  O446  1  0.50085341  0.16993628  0.97173323  1
  O  O447  1  0.50426461  0.66128535  0.30584276  1
  O  O448  1  0.50834855  0.66929684  0.63919268  1
  O  O449  1  0.50770410  0.66119754  0.96917491  1
  O  O450  1  0.33381738  0.49271886  0.19656246  1
  O  O451  1  0.33952453  0.49374826  0.53234324  1
  O  O452  1  0.34000520  0.49362325  0.86565058  1
  O  O453  1  0.33440934  0.99136755  0.20081333  1
  O  O454  1  0.33152224  0.99914426  0.53010752  1
  O  O455  1  0.32599475  0.99619153  0.85637983  1
  O  O456  1  0.82856897  0.49356123  0.19247818  1
  O  O457  1  0.82464038  0.48983570  0.52347037  1
  O  O458  1  0.82755495  0.49366095  0.85681156  1
  O  O459  1  0.85331547  1.00617659  0.19556296  1
  O  O460  1  0.83784414  0.98233913  0.53376744  1
  O  O461  1  0.83554299  0.98809356  0.86592835  1
