# generated using pymatgen
data_Na31Fe20(SO4)36
_symmetry_space_group_name_H-M   'P 1'
_cell_length_a   18.07139465
_cell_length_b   18.06815606
_cell_length_c   19.69988973
_cell_angle_alpha   107.57492029
_cell_angle_beta   107.59292813
_cell_angle_gamma   90.70988077
_symmetry_Int_Tables_number   1
_chemical_formula_structural   Na31Fe20(SO4)36
_chemical_formula_sum   'Na62 Fe40 S72 O288'
_cell_volume   5807.13985356
_cell_formula_units_Z   2
loop_
 _symmetry_equiv_pos_site_id
 _symmetry_equiv_pos_as_xyz
  1  'x, y, z'
loop_
 _atom_site_type_symbol
 _atom_site_label
 _atom_site_symmetry_multiplicity
 _atom_site_fract_x
 _atom_site_fract_y
 _atom_site_fract_z
 _atom_site_occupancy
  Na  Na0  1  0.13275624  0.35439689  0.07314261  1
  Na  Na1  1  0.13136117  0.36899319  0.41688675  1
  Na  Na2  1  0.13629834  0.35996708  0.75318878  1
  Na  Na3  1  0.13478079  0.85349201  0.07683685  1
  Na  Na4  1  0.13372852  0.86798746  0.41926614  1
  Na  Na5  1  0.13214236  0.86258779  0.74011248  1
  Na  Na6  1  0.63407624  0.36097573  0.08236147  1
  Na  Na7  1  0.64146813  0.37878615  0.43115471  1
  Na  Na8  1  0.63605086  0.36168359  0.74310354  1
  Na  Na9  1  0.63040890  0.87893066  0.08351166  1
  Na  Na10  1  0.64255958  0.87132131  0.42409611  1
  Na  Na11  1  0.62837594  0.86064715  0.74255082  1
  Na  Na12  1  0.36030211  0.13617319  0.24209593  1
  Na  Na13  1  0.36574367  0.13630734  0.58636059  1
  Na  Na14  1  0.32872951  0.12967955  0.88779607  1
  Na  Na15  1  0.36721990  0.63352530  0.24953030  1
  Na  Na16  1  0.37614271  0.64137968  0.59694180  1
  Na  Na17  1  0.37071678  0.62786178  0.91320530  1
  Na  Na18  1  0.86143372  0.12373458  0.23847760  1
  Na  Na19  1  0.85953366  0.13223657  0.58694498  1
  Na  Na20  1  0.86196762  0.14172805  0.91798587  1
  Na  Na21  1  0.85696669  0.64574984  0.25401759  1
  Na  Na22  1  0.86519558  0.64355409  0.58448377  1
  Na  Na23  1  0.87069695  0.63798367  0.92204879  1
  Na  Na24  1  0.96763261  0.51783304  0.70346787  1
  Na  Na25  1  0.48490398  -0.00881920  0.75567040  1
  Na  Na26  1  0.98694946  0.52082857  0.08599308  1
  Na  Na27  1  0.49430754  0.51428198  0.75492192  1
  Na  Na28  1  0.98355174  0.03557805  0.75948288  1
  Na  Na29  1  0.49626016  0.50459669  0.06771601  1
  Na  Na30  1  1.01200460  -0.04413492  0.13624528  1
  Na  Na31  1  0.98486804  0.54461366  0.52049054  1
  Na  Na32  1  0.98780752  0.00934092  0.41674351  1
  Na  Na33  1  -0.01431002  1.01091625  0.92787162  1
  Na  Na34  1  0.52001849  0.99631265  0.57065778  1
  Na  Na35  1  -0.00224034  0.49368232  0.26558642  1
  Na  Na36  1  0.50745755  0.48833751  0.25878616  1
  Na  Na37  1  0.01115283  0.48524773  0.90587911  1
  Na  Na38  1  0.52148899  0.97405109  0.93799988  1
  Na  Na39  1  0.51605932  0.99428093  0.24739173  1
  Na  Na40  1  0.02681177  0.97974804  0.60292208  1
  Na  Na41  1  0.52081515  0.49884491  0.56191335  1
  Na  Na42  1  0.24303228  0.74690436  0.33560082  1
  Na  Na43  1  0.23279952  0.23396922  -0.00299636  1
  Na  Na44  1  0.76661678  0.76614595  -0.00198241  1
  Na  Na45  1  0.26274053  0.75848627  0.66661966  1
  Na  Na46  1  0.75991422  0.76892897  0.65775600  1
  Na  Na47  1  0.23771470  0.22793776  0.68780913  1
  Na  Na48  1  0.26140970  0.75438280  -0.00608837  1
  Na  Na49  1  0.25720574  0.25961266  0.32098922  1
  Na  Na50  1  0.74180668  0.23527749  0.00583166  1
  Na  Na51  1  0.74357584  0.24923685  0.34471343  1
  Na  Na52  1  0.23896450  0.74313892  0.50436779  1
  Na  Na53  1  0.26138791  0.75603787  0.82377344  1
  Na  Na54  1  0.75825029  0.76003389  0.16341929  1
  Na  Na55  1  0.76619809  0.76855018  0.48759115  1
  Na  Na56  1  0.75579759  0.75748097  0.83018826  1
  Na  Na57  1  0.74234957  0.24658356  0.51636751  1
  Na  Na58  1  0.24898589  0.74696761  0.16770675  1
  Na  Na59  1  0.75731840  0.25850187  0.82033318  1
  Na  Na60  1  0.24407514  0.24364093  0.50379725  1
  Na  Na61  1  0.73838555  0.23499557  0.17342095  1
  Fe  Fe62  1  0.46384657  0.30600942  0.44780401  1
  Fe  Fe63  1  0.96372854  0.30072622  0.78631803  1
  Fe  Fe64  1  0.46763884  0.80498162  0.12069250  1
  Fe  Fe65  1  0.96948964  0.30564451  0.11797775  1
  Fe  Fe66  1  0.46554491  0.30800270  0.78601376  1
  Fe  Fe67  1  0.96394523  0.31198857  0.45659098  1
  Fe  Fe68  1  0.96849964  0.80469830  0.45818355  1
  Fe  Fe69  1  0.46103601  0.80768608  0.45024404  1
  Fe  Fe70  1  0.96736157  0.81083459  0.78802045  1
  Fe  Fe71  1  0.46035885  0.30442061  0.11336635  1
  Fe  Fe72  1  0.69532278  0.53777383  0.38183464  1
  Fe  Fe73  1  0.18920181  0.03541468  0.04692076  1
  Fe  Fe74  1  0.69807432  0.03458851  0.38476797  1
  Fe  Fe75  1  0.19235182  0.53713207  0.38165985  1
  Fe  Fe76  1  0.68831373  0.53305330  0.04402949  1
  Fe  Fe77  1  0.70261882  0.53076146  0.70961165  1
  Fe  Fe78  1  0.18856293  0.03439836  0.37654385  1
  Fe  Fe79  1  0.19155215  0.53350544  0.71193679  1
  Fe  Fe80  1  0.69979527  0.03313743  0.71064494  1
  Fe  Fe81  1  0.19462345  0.53241790  0.04557594  1
  Fe  Fe82  1  0.53361659  0.18893505  0.20806007  1
  Fe  Fe83  1  0.03699183  0.19041065  0.21406013  1
  Fe  Fe84  1  0.03483611  0.69362952  0.88014801  1
  Fe  Fe85  1  0.03439219  0.19309864  0.55039510  1
  Fe  Fe86  1  0.53622667  0.18923909  0.87962295  1
  Fe  Fe87  1  0.53241447  0.19163986  0.54483483  1
  Fe  Fe88  1  0.02888761  0.70237969  0.21091292  1
  Fe  Fe89  1  0.53107738  0.69449560  0.54567056  1
  Fe  Fe90  1  0.53948775  0.69036224  0.21509276  1
  Fe  Fe91  1  0.53541333  0.69833606  0.87875378  1
  Fe  Fe92  1  0.80553879  0.46472475  0.94998785  1
  Fe  Fe93  1  0.31253884  0.96599799  0.28973854  1
  Fe  Fe94  1  0.30214747  0.97032075  0.62293297  1
  Fe  Fe95  1  0.80819466  0.96418531  0.28612016  1
  Fe  Fe96  1  0.30834158  0.46237538  0.61727180  1
  Fe  Fe97  1  0.80185047  0.96893944  0.96137207  1
  Fe  Fe98  1  0.30462216  0.46123954  0.94539117  1
  Fe  Fe99  1  0.30847757  0.96589633  0.95208808  1
  Fe  Fe100  1  0.80800375  0.46578328  0.28723198  1
  Fe  Fe101  1  0.30950364  0.46340426  0.28542781  1
  S  S102  1  0.35719395  0.14001599  0.08214631  1
  S  S103  1  0.35660217  0.14245506  0.41416311  1
  S  S104  1  0.36361396  0.13995797  0.74884220  1
  S  S105  1  0.36313423  0.63573059  0.08270348  1
  S  S106  1  0.35761582  0.64011040  0.41389666  1
  S  S107  1  0.36302921  0.63475608  0.75039853  1
  S  S108  1  0.86224369  0.14345429  0.08317758  1
  S  S109  1  0.86006992  0.14321801  0.41599924  1
  S  S110  1  0.85828568  0.14445393  0.75543800  1
  S  S111  1  0.85544913  0.63781111  0.08490568  1
  S  S112  1  0.85653614  0.64246997  0.41343255  1
  S  S113  1  0.85961586  0.64591615  0.75120174  1
  S  S114  1  0.13908616  0.36328505  0.25231636  1
  S  S115  1  0.14156305  0.35800924  0.58286319  1
  S  S116  1  0.13777962  0.36081418  0.91370309  1
  S  S117  1  0.14706549  0.85975119  0.24906762  1
  S  S118  1  0.14592062  0.85919356  0.58082445  1
  S  S119  1  0.14458728  0.85535404  0.91958833  1
  S  S120  1  0.63757614  0.36120637  0.24932313  1
  S  S121  1  0.63492417  0.36135646  0.58047697  1
  S  S122  1  0.63949446  0.35802954  0.91601616  1
  S  S123  1  0.64048899  0.85953422  0.25180994  1
  S  S124  1  0.63583142  0.85989608  0.58039382  1
  S  S125  1  0.64334971  0.85412317  0.91445894  1
  S  S126  1  0.06487928  0.16805391  0.04484437  1
  S  S127  1  0.06593786  0.17174161  0.37670565  1
  S  S128  1  0.05735631  0.16863759  0.70699845  1
  S  S129  1  0.06722156  0.66198447  0.04070026  1
  S  S130  1  0.06672337  0.67227774  0.37198369  1
  S  S131  1  0.06593688  0.66618548  0.70883991  1
  S  S132  1  0.56422639  0.17056829  0.04210450  1
  S  S133  1  0.56787293  0.17315316  0.37508772  1
  S  S134  1  0.56799640  0.16893783  0.70718446  1
  S  S135  1  0.56913972  0.67024250  0.04317558  1
  S  S136  1  0.56697393  0.67187624  0.37603543  1
  S  S137  1  0.57088330  0.66094286  0.70601085  1
  S  S138  1  0.32935574  0.43164100  0.12168796  1
  S  S139  1  0.32998428  0.43380500  0.45579265  1
  S  S140  1  0.33054569  0.42908855  0.78596249  1
  S  S141  1  0.33166056  0.93027903  0.12574941  1
  S  S142  1  0.32911653  0.93527202  0.45715500  1
  S  S143  1  0.34148884  0.93367314  0.79646856  1
  S  S144  1  0.83041125  0.42926965  0.12352682  1
  S  S145  1  0.83227558  0.43842266  0.45711004  1
  S  S146  1  0.83155457  0.43290726  0.79369635  1
  S  S147  1  0.82536654  0.92874932  0.12389696  1
  S  S148  1  0.83587781  0.93962840  0.46030779  1
  S  S149  1  0.82686976  0.93366126  0.79530217  1
  S  S150  1  0.43387547  0.33068852  0.28934822  1
  S  S151  1  0.43218656  0.32995984  0.62288821  1
  S  S152  1  0.43017117  0.32841523  0.95603420  1
  S  S153  1  0.43272496  0.82692689  0.28836869  1
  S  S154  1  0.43011627  0.83253485  0.62123124  1
  S  S155  1  0.43257545  0.82561412  0.95837858  1
  S  S156  1  0.93129743  0.32864011  0.28948810  1
  S  S157  1  0.93149714  0.32433079  0.62212089  1
  S  S158  1  0.93320166  0.33697125  0.95821962  1
  S  S159  1  0.93584632  0.83153121  0.29396384  1
  S  S160  1  0.93807314  0.83876033  0.62882212  1
  S  S161  1  0.93801688  0.83349054  0.95908712  1
  S  S162  1  0.17183014  0.06575932  0.21145002  1
  S  S163  1  0.17012029  0.06925389  0.53973096  1
  S  S164  1  0.15744464  0.04939600  0.87753533  1
  S  S165  1  0.16987185  0.56712259  0.20754311  1
  S  S166  1  0.18074333  0.57045943  0.54709277  1
  S  S167  1  0.17100793  0.56780632  0.87512188  1
  S  S168  1  0.66957989  0.06761908  0.21403364  1
  S  S169  1  0.66422552  0.07081571  0.54000315  1
  S  S170  1  0.66844846  0.06387324  0.87161214  1
  S  S171  1  0.66435590  0.56248054  0.20478035  1
  S  S172  1  0.67118069  0.57580940  0.54300949  1
  S  S173  1  0.67538557  0.57019069  0.87629627  1
  O  O174  1  0.36373464  0.22047771  0.07605632  1
  O  O175  1  0.36613328  0.22190658  0.40616942  1
  O  O176  1  0.37752627  0.21733388  0.73705163  1
  O  O177  1  0.37071112  0.71484934  0.07478157  1
  O  O178  1  0.36707921  0.71775891  0.40257881  1
  O  O179  1  0.36816411  0.70983556  0.73791543  1
  O  O180  1  0.87731282  0.22013753  0.07010168  1
  O  O181  1  0.86993551  0.22386246  0.41126711  1
  O  O182  1  0.86656270  0.23008747  0.75734672  1
  O  O183  1  0.85969178  0.71487005  0.07666568  1
  O  O184  1  0.86896186  0.72196245  0.40800263  1
  O  O185  1  0.86565202  0.72825581  0.74902548  1
  O  O186  1  0.28038058  0.12779714  0.09295255  1
  O  O187  1  0.27663461  0.13308242  0.41989647  1
  O  O188  1  0.28681538  0.13507554  0.75765174  1
  O  O189  1  0.28531929  0.62704744  0.09356693  1
  O  O190  1  0.27701773  0.63362073  0.41956551  1
  O  O191  1  0.28537186  0.62250703  0.76151768  1
  O  O192  1  0.78568120  0.14248641  0.09390680  1
  O  O193  1  0.78115901  0.13594179  0.42505629  1
  O  O194  1  0.77605003  0.13426114  0.75761679  1
  O  O195  1  0.77799436  0.62199741  0.09507169  1
  O  O196  1  0.77412285  0.63533195  0.41595609  1
  O  O197  1  0.78196096  0.63286214  0.76113422  1
  O  O198  1  0.12933010  0.28661821  0.26450674  1
  O  O199  1  0.13533206  0.27849133  0.59050059  1
  O  O200  1  0.13247626  0.28665117  0.92659640  1
  O  O201  1  0.13472859  0.77792634  0.25077921  1
  O  O202  1  0.14633077  0.77914729  0.58416386  1
  O  O203  1  0.13298379  0.77714201  0.93028985  1
  O  O204  1  0.62953325  0.28158918  0.25642844  1
  O  O205  1  0.62147699  0.28272680  0.58746805  1
  O  O206  1  0.63084818  0.28058596  0.92756715  1
  O  O207  1  0.62900346  0.78023468  0.25689032  1
  O  O208  1  0.62171706  0.78372176  0.59366492  1
  O  O209  1  0.63588529  0.77221883  0.91987537  1
  O  O210  1  0.21975531  0.37262486  0.24933922  1
  O  O211  1  0.21876868  0.36810283  0.57102528  1
  O  O212  1  0.21247551  0.37564466  0.89969452  1
  O  O213  1  0.23037456  0.86741486  0.24886519  1
  O  O214  1  0.22087715  0.87575030  0.56485827  1
  O  O215  1  0.22558635  0.86054545  0.91481459  1
  O  O216  1  0.71513618  0.36978905  0.23814770  1
  O  O217  1  0.70752105  0.36867044  0.56429275  1
  O  O218  1  0.71873786  0.36748153  0.90880999  1
  O  O219  1  0.71808883  0.86844169  0.24200437  1
  O  O220  1  0.71125368  0.86252438  0.56815541  1
  O  O221  1  0.72876713  0.86465447  0.91956142  1
  O  O222  1  0.41860267  0.13309112  0.14986664  1
  O  O223  1  0.41393792  0.13638182  0.48378387  1
  O  O224  1  0.42414107  0.13067274  0.81595996  1
  O  O225  1  0.42404113  0.62682562  0.14924693  1
  O  O226  1  0.41407568  0.63430158  0.48376970  1
  O  O227  1  0.42405529  0.62939333  0.81952535  1
  O  O228  1  0.92274893  0.13520141  0.15061577  1
  O  O229  1  0.91982878  0.13084056  0.48110265  1
  O  O230  1  0.91315904  0.13363985  0.82293308  1
  O  O231  1  0.91696999  0.63028640  0.15262229  1
  O  O232  1  0.91031289  0.63202235  0.48098597  1
  O  O233  1  0.92012059  0.63628009  0.81866563  1
  O  O234  1  0.36468137  0.08356818  0.01301604  1
  O  O235  1  0.36610556  0.08431293  0.34655281  1
  O  O236  1  0.37143726  0.07911474  0.68063925  1
  O  O237  1  0.36984008  0.57660451  0.01382007  1
  O  O238  1  0.36591820  0.57969840  0.34685844  1
  O  O239  1  0.37427448  0.57151307  0.68553553  1
  O  O240  1  0.86588653  0.08148080  0.01493997  1
  O  O241  1  0.86613815  0.08613813  0.34615844  1
  O  O242  1  0.86885696  0.09312890  0.68707748  1
  O  O243  1  0.86592075  0.57743688  0.01777664  1
  O  O244  1  0.86351556  0.58373483  0.34377652  1
  O  O245  1  0.86716280  0.59196542  0.68230824  1
  O  O246  1  0.08266949  0.36905325  0.18171259  1
  O  O247  1  0.08085732  0.36585626  0.51556838  1
  O  O248  1  0.07372775  0.36739099  0.84558999  1
  O  O249  1  0.09463481  0.87156107  0.18172889  1
  O  O250  1  0.08180563  0.86783334  0.51463416  1
  O  O251  1  0.08849291  0.86090505  0.84968445  1
  O  O252  1  0.57595545  0.37092361  0.18329274  1
  O  O253  1  0.56915399  0.37477354  0.51736400  1
  O  O254  1  0.58131391  0.36259666  0.84603466  1
  O  O255  1  0.57972738  0.87156371  0.18582687  1
  O  O256  1  0.57331571  0.86888743  0.51366925  1
  O  O257  1  0.59333531  0.85926090  0.84294378  1
  O  O258  1  0.12593380  0.42495635  0.31702985  1
  O  O259  1  0.13550105  0.41619284  0.65206958  1
  O  O260  1  0.12918905  0.42488753  0.98005687  1
  O  O261  1  0.13841665  0.91479269  0.31903907  1
  O  O262  1  0.13977711  0.91594119  0.64925923  1
  O  O263  1  0.13596878  0.91495454  0.98690173  1
  O  O264  1  0.63151574  0.42022271  0.31863426  1
  O  O265  1  0.63298588  0.42080293  0.65163233  1
  O  O266  1  0.63047821  0.41870844  0.98262908  1
  O  O267  1  0.63377524  0.91839134  0.32086804  1
  O  O268  1  0.63071228  0.92243954  0.64805668  1
  O  O269  1  0.62725713  0.90940978  0.97856949  1
  O  O270  1  0.04092015  0.20645205  0.11471198  1
  O  O271  1  0.02885186  0.20247541  0.43706691  1
  O  O272  1  0.01923878  0.20669592  0.76545590  1
  O  O273  1  0.03058371  0.68289085  0.10013208  1
  O  O274  1  0.03018781  0.70037614  0.43049747  1
  O  O275  1  0.03216557  0.69988406  0.77245831  1
  O  O276  1  0.52737903  0.20674128  0.10363129  1
  O  O277  1  0.52893500  0.20124822  0.43477015  1
  O  O278  1  0.53422626  0.19796336  0.77035466  1
  O  O279  1  0.53182442  0.70082856  0.10429368  1
  O  O280  1  0.52664151  0.69873450  0.43440361  1
  O  O281  1  0.53443871  0.67964416  0.76548827  1
  O  O282  1  0.30025235  0.46783275  0.06016550  1
  O  O283  1  0.29975425  0.47239025  0.39626791  1
  O  O284  1  0.29700842  0.46416594  0.72440291  1
  O  O285  1  0.30468062  0.96553753  0.06449035  1
  O  O286  1  0.30138615  0.97379086  0.39708561  1
  O  O287  1  0.31627453  0.96338111  0.73162868  1
  O  O288  1  0.79916294  0.46310873  0.06124717  1
  O  O289  1  0.79765122  0.46904094  0.39049521  1
  O  O290  1  0.80577473  0.46935515  0.73431282  1
  O  O291  1  0.80340521  0.97078974  0.06801952  1
  O  O292  1  0.80448721  0.97195642  0.39369351  1
  O  O293  1  0.79975799  0.96986011  0.73567191  1
  O  O294  1  0.46797584  0.29799715  0.22710648  1
  O  O295  1  0.46424246  0.29796389  0.55932195  1
  O  O296  1  0.46696739  0.29945887  0.89528167  1
  O  O297  1  0.46938839  0.79407282  0.22766362  1
  O  O298  1  0.45985004  0.79747957  0.55479637  1
  O  O299  1  0.47164685  0.79846863  0.90109754  1
  O  O300  1  0.96838638  0.29921319  0.22887723  1
  O  O301  1  0.97566292  0.29492583  0.56571716  1
  O  O302  1  0.96885539  0.31797871  0.89753346  1
  O  O303  1  0.97624753  0.80618251  0.23717359  1
  O  O304  1  0.97098419  0.80848951  0.56644457  1
  O  O305  1  0.97246906  0.80264177  0.89512096  1
  O  O306  1  0.20262960  0.02756876  0.27155532  1
  O  O307  1  0.19989940  0.03578470  0.60059467  1
  O  O308  1  0.20408425  0.02063141  0.94392047  1
  O  O309  1  0.20003557  0.53154604  0.26911888  1
  O  O310  1  0.21035548  0.52943456  0.60600639  1
  O  O311  1  0.20497756  0.53582110  0.93913128  1
  O  O312  1  0.70083965  0.03244643  0.27737728  1
  O  O313  1  0.68735871  0.03588485  0.60062175  1
  O  O314  1  0.69673810  0.02657118  0.93006076  1
  O  O315  1  0.69620252  0.52824670  0.26691673  1
  O  O316  1  0.69329940  0.53953571  0.60273377  1
  O  O317  1  0.70152952  0.52970892  0.93553474  1
  O  O318  1  0.08778629  0.08894981  0.04779531  1
  O  O319  1  0.08420945  0.09082324  0.37417180  1
  O  O320  1  0.06994969  0.08958195  0.70962150  1
  O  O321  1  0.08334569  0.57755197  0.02706982  1
  O  O322  1  0.08793634  0.59070993  0.36673646  1
  O  O323  1  0.08918745  0.58692816  0.71280608  1
  O  O324  1  0.57682411  0.09080681  0.03901389  1
  O  O325  1  0.58855846  0.09265381  0.36941783  1
  O  O326  1  0.58643267  0.08722464  0.69977086  1
  O  O327  1  0.58371351  0.58788057  0.04000007  1
  O  O328  1  0.58757849  0.59084191  0.36976539  1
  O  O329  1  0.58931177  0.57731827  0.69159061  1
  O  O330  1  0.41229794  0.41572761  0.12806843  1
  O  O331  1  0.40993354  0.41291783  0.45764692  1
  O  O332  1  0.41236618  0.41408814  0.78851851  1
  O  O333  1  0.41358966  0.91124854  0.13529177  1
  O  O334  1  0.41103061  0.91721698  0.46340399  1
  O  O335  1  0.42586417  0.92598079  0.81575214  1
  O  O336  1  0.91424456  0.41575727  0.13144912  1
  O  O337  1  0.91120230  0.41446381  0.45437591  1
  O  O338  1  0.91062332  0.40454400  0.79518303  1
  O  O339  1  0.90070234  0.89916314  0.12876998  1
  O  O340  1  0.91735695  0.91933332  0.46321137  1
  O  O341  1  0.90929402  0.91477201  0.80224933  1
  O  O342  1  0.41558711  0.41176496  0.28994153  1
  O  O343  1  0.41745221  0.41303207  0.62924910  1
  O  O344  1  0.40910829  0.40925857  0.95884418  1
  O  O345  1  0.41473830  0.90710652  0.28906963  1
  O  O346  1  0.40893905  0.91262392  0.62131013  1
  O  O347  1  0.41014949  0.90555792  0.96208026  1
  O  O348  1  0.91318883  0.41013018  0.29241446  1
  O  O349  1  0.91317781  0.40234970  0.62259776  1
  O  O350  1  0.91670235  0.42133306  0.97392110  1
  O  O351  1  0.91715515  0.91393604  0.30271005  1
  O  O352  1  0.93382513  0.92327390  0.64513304  1
  O  O353  1  0.91276181  0.91199257  0.95955900  1
  O  O354  1  0.09039517  0.08265096  0.20821405  1
  O  O355  1  0.08751394  0.08735882  0.53334160  1
  O  O356  1  0.07759799  0.05628217  0.88221954  1
  O  O357  1  0.08891270  0.58649590  0.20238580  1
  O  O358  1  0.10559390  0.59587822  0.54849764  1
  O  O359  1  0.08912683  0.58362209  0.87163690  1
  O  O360  1  0.58933578  0.08892820  0.21516986  1
  O  O361  1  0.57996111  0.08657122  0.52776875  1
  O  O362  1  0.58520401  0.08108556  0.86533835  1
  O  O363  1  0.58057812  0.57644853  0.19979788  1
  O  O364  1  0.58775602  0.59301729  0.53023930  1
  O  O365  1  0.59452638  0.58976903  0.87058442  1
  O  O366  1  0.13151237  0.21841806  0.04895557  1
  O  O367  1  0.13734241  0.22397487  0.39286270  1
  O  O368  1  0.12884872  0.21855985  0.72038692  1
  O  O369  1  0.14042262  0.71290783  0.06009054  1
  O  O370  1  0.13842077  0.72448216  0.38666426  1
  O  O371  1  0.13595218  0.71814738  0.72102277  1
  O  O372  1  0.63779220  0.22253609  0.06151808  1
  O  O373  1  0.63812845  0.22841482  0.39433090  1
  O  O374  1  0.63650578  0.22270841  0.72105556  1
  O  O375  1  0.64161203  0.72001796  0.06046975  1
  O  O376  1  0.63513961  0.72725581  0.39337108  1
  O  O377  1  0.64080295  0.71519871  0.72350537  1
  O  O378  1  0.27770306  0.36132802  0.10614839  1
  O  O379  1  0.27585895  0.36366509  0.43896840  1
  O  O380  1  0.28120179  0.35754620  0.77241598  1
  O  O381  1  0.27887353  0.85856928  0.10902231  1
  O  O382  1  0.27713996  0.86292614  0.43736824  1
  O  O383  1  0.29257637  0.85896407  0.77940785  1
  O  O384  1  0.78137585  0.35665529  0.10911863  1
  O  O385  1  0.77923636  0.36971971  0.44565338  1
  O  O386  1  0.77493167  0.36861186  0.78440236  1
  O  O387  1  0.76369965  0.86337639  0.10592331  1
  O  O388  1  0.78311910  0.86945777  0.44424528  1
  O  O389  1  0.77404118  0.86166181  0.77778414  1
  O  O390  1  0.36350208  0.28067623  0.27812260  1
  O  O391  1  0.35996062  0.28101272  0.60939162  1
  O  O392  1  0.36252814  0.27558790  0.94505991  1
  O  O393  1  0.36180066  0.77424652  0.27270646  1
  O  O394  1  0.36000586  0.78007216  0.60902952  1
  O  O395  1  0.36237641  0.77020842  0.94132501  1
  O  O396  1  0.85966135  0.27733487  0.27363139  1
  O  O397  1  0.86296268  0.26820122  0.60243771  1
  O  O398  1  0.86103260  0.28520478  0.93883207  1
  O  O399  1  0.86348748  0.77907112  0.27289533  1
  O  O400  1  0.86139638  0.79227610  0.60971458  1
  O  O401  1  0.86964654  0.77700901  0.94344943  1
  O  O402  1  0.22314792  0.13716734  0.22865384  1
  O  O403  1  0.22101266  0.14121437  0.55356860  1
  O  O404  1  0.19990890  0.12556219  0.89114572  1
  O  O405  1  0.22346937  0.63763987  0.22314224  1
  O  O406  1  0.23994232  0.63655614  0.56294149  1
  O  O407  1  0.22092595  0.63931406  0.88798459  1
  O  O408  1  0.72195345  0.14059218  0.23287898  1
  O  O409  1  0.71475349  0.14207013  0.55509556  1
  O  O410  1  0.71811916  0.13790282  0.88930903  1
  O  O411  1  0.71159333  0.63417407  0.21649178  1
  O  O412  1  0.72355901  0.64727305  0.56017026  1
  O  O413  1  0.73089450  0.63988507  0.89643398  1
  O  O414  1  0.49261422  0.33836234  0.03016838  1
  O  O415  1  0.49493414  0.33636076  0.36208875  1
  O  O416  1  0.49301793  0.33122484  0.69428826  1
  O  O417  1  0.48970276  0.83062745  0.03368646  1
  O  O418  1  0.49089332  0.83086358  0.36164746  1
  O  O419  1  0.49282772  0.83960133  0.69073085  1
  O  O420  1  0.99273623  0.33215871  0.02813016  1
  O  O421  1  0.99011723  0.33103518  0.36213084  1
  O  O422  1  0.98739981  0.32674902  0.69828602  1
  O  O423  1  0.99977812  0.84050052  0.02963277  1
  O  O424  1  0.99170878  0.83180497  0.36821398  1
  O  O425  1  0.99331395  0.82498902  0.69795405  1
  O  O426  1  0.16917795  0.00658335  0.13874589  1
  O  O427  1  0.16559979  0.00975771  0.46568497  1
  O  O428  1  0.15687760  -0.00874848  0.80754860  1
  O  O429  1  0.16749633  0.50707250  0.13513177  1
  O  O430  1  0.17455306  0.51064090  0.47262212  1
  O  O431  1  0.16966801  0.50615454  0.80451828  1
  O  O432  1  0.66517442  0.01039707  0.14330405  1
  O  O433  1  0.66639127  0.01037799  0.46875636  1
  O  O434  1  0.66555621  0.00822044  0.79671097  1
  O  O435  1  0.66054166  0.50112168  0.13215650  1
  O  O436  1  0.67385527  0.51606960  0.47185883  1
  O  O437  1  0.67416389  0.51192176  0.80347917  1
  O  O438  1  0.00799330  0.16871441  0.30320641  1
  O  O439  1  0.00062935  0.16284953  0.63085064  1
  O  O440  1  -0.00363946  0.15667255  0.97867597  1
  O  O441  1  0.00874153  0.66608148  0.29671656  1
  O  O442  1  0.00370976  0.65377181  0.63749946  1
  O  O443  1  0.00991441  0.66636893  0.96948641  1
  O  O444  1  0.50852523  0.17147701  0.30269031  1
  O  O445  1  0.50577114  0.16620260  0.63524062  1
  O  O446  1  0.50816511  0.17468942  0.97031689  1
  O  O447  1  0.50728530  0.66671612  0.30179762  1
  O  O448  1  0.51070188  0.66328336  0.63433033  1
  O  O449  1  0.51152400  0.66894818  0.97064583  1
  O  O450  1  0.33231134  0.49197109  0.19450060  1
  O  O451  1  0.33635617  0.49211774  0.52987966  1
  O  O452  1  0.33308175  0.48931520  0.85838402  1
  O  O453  1  0.33186978  0.99036920  0.19747638  1
  O  O454  1  0.32873359  0.99352017  0.52880140  1
  O  O455  1  0.32790075  0.99280201  0.86317104  1
  O  O456  1  0.83055039  0.48935657  0.19536450  1
  O  O457  1  0.84354799  0.50276871  0.52633794  1
  O  O458  1  0.84539000  0.49471118  0.86931035  1
  O  O459  1  0.82896611  0.98803527  0.19868212  1
  O  O460  1  0.83887894  1.00183107  0.52832484  1
  O  O461  1  0.83003538  0.99113143  0.86954296  1
