# generated using pymatgen
data_Na31Fe20(SO4)36
_symmetry_space_group_name_H-M   'P 1'
_cell_length_a   18.06624648
_cell_length_b   18.06350011
_cell_length_c   19.70351395
_cell_angle_alpha   107.57533757
_cell_angle_beta   107.58701231
_cell_angle_gamma   90.72339972
_symmetry_Int_Tables_number   1
_chemical_formula_structural   Na31Fe20(SO4)36
_chemical_formula_sum   'Na62 Fe40 S72 O288'
_cell_volume   5805.08229589
_cell_formula_units_Z   2
loop_
 _symmetry_equiv_pos_site_id
 _symmetry_equiv_pos_as_xyz
  1  'x, y, z'
loop_
 _atom_site_type_symbol
 _atom_site_label
 _atom_site_symmetry_multiplicity
 _atom_site_fract_x
 _atom_site_fract_y
 _atom_site_fract_z
 _atom_site_occupancy
  Na  Na0  1  0.15482954  0.34560378  0.08845962  1
  Na  Na1  1  0.14363055  0.36599185  0.41357693  1
  Na  Na2  1  0.12812418  0.35921946  0.74109682  1
  Na  Na3  1  0.12543840  0.86692510  0.08135786  1
  Na  Na4  1  0.12600242  0.86892943  0.41405689  1
  Na  Na5  1  0.12697608  0.86584379  0.74975543  1
  Na  Na6  1  0.64341183  0.37294278  0.09730101  1
  Na  Na7  1  0.63451130  0.36916732  0.41420041  1
  Na  Na8  1  0.63322349  0.37381033  0.74911062  1
  Na  Na9  1  0.62791294  0.86192462  0.07766785  1
  Na  Na10  1  0.63533130  0.86436717  0.41587094  1
  Na  Na11  1  0.64250087  0.85903049  0.75113943  1
  Na  Na12  1  0.35365228  0.14805957  0.25043810  1
  Na  Na13  1  0.36857936  0.12863763  0.58176562  1
  Na  Na14  1  0.36589237  0.14534620  0.92859168  1
  Na  Na15  1  0.37568056  0.63548961  0.26110797  1
  Na  Na16  1  0.36231236  0.62792026  0.56994661  1
  Na  Na17  1  0.36189017  0.63600761  0.91240697  1
  Na  Na18  1  0.87649205  0.12892178  0.25255619  1
  Na  Na19  1  0.86202589  0.13899178  0.58487804  1
  Na  Na20  1  0.86462394  0.13180132  0.91474594  1
  Na  Na21  1  0.85946472  0.62949212  0.24485673  1
  Na  Na22  1  0.86982638  0.64064788  0.59235914  1
  Na  Na23  1  0.85509231  0.63037050  0.90595605  1
  Na  Na24  1  0.51396687  -0.04414053  0.47597526  1
  Na  Na25  1  0.95026434  -0.00456213  0.72678568  1
  Na  Na26  1  0.49250724  0.50827281  0.09415051  1
  Na  Na27  1  0.49787813  0.51862253  0.39265121  1
  Na  Na28  1  0.95296778  0.51141718  0.39688675  1
  Na  Na29  1  0.99056754  0.50823509  0.09076975  1
  Na  Na30  1  0.51609288  -0.00668203  0.72720043  1
  Na  Na31  1  0.98515118  0.52860286  0.74515524  1
  Na  Na32  1  0.50525746  0.54536584  0.75898354  1
  Na  Na33  1  0.00993799  0.48956443  0.91473049  1
  Na  Na34  1  0.50206383  0.97981507  0.93347256  1
  Na  Na35  1  0.49633529  0.51124530  0.91493268  1
  Na  Na36  1  0.54214828  0.49474873  0.58162589  1
  Na  Na37  1  0.04457120  0.48198056  0.26749326  1
  Na  Na38  1  -0.01710515  1.03817577  0.53796894  1
  Na  Na39  1  0.01996604  0.48357927  0.57325736  1
  Na  Na40  1  0.50376005  0.99824751  0.24771530  1
  Na  Na41  1  0.00558760  0.95995052  0.91814635  1
  Na  Na42  1  0.26330447  0.75523678  0.33533609  1
  Na  Na43  1  0.25326663  0.75536283  -0.00219372  1
  Na  Na44  1  0.23592982  0.23768433  0.66619123  1
  Na  Na45  1  0.77570498  0.77142659  0.66682643  1
  Na  Na46  1  0.75322895  0.25462213  -0.00204415  1
  Na  Na47  1  0.75098982  0.25365534  0.66310339  1
  Na  Na48  1  0.25315038  0.74668349  0.66307632  1
  Na  Na49  1  0.73330940  0.73724947  0.01299759  1
  Na  Na50  1  0.75887282  0.26084082  0.32525650  1
  Na  Na51  1  0.75837859  0.76140424  0.32246061  1
  Na  Na52  1  0.75596086  0.25896285  0.49334219  1
  Na  Na53  1  0.76399598  0.76871935  0.49877649  1
  Na  Na54  1  0.75235571  0.25269438  0.83045110  1
  Na  Na55  1  0.25269103  0.75154243  0.16748082  1
  Na  Na56  1  0.24586773  0.73637797  0.49263897  1
  Na  Na57  1  0.25347206  0.25469967  0.49260287  1
  Na  Na58  1  0.23796517  0.23924651  0.84475943  1
  Na  Na59  1  0.25426459  0.75742951  0.82838738  1
  Na  Na60  1  0.76272959  0.26394378  0.16512450  1
  Na  Na61  1  0.73580460  0.73559301  0.83850216  1
  Fe  Fe62  1  0.46462973  0.30711206  0.78493439  1
  Fe  Fe63  1  0.97009221  0.30411253  0.12194947  1
  Fe  Fe64  1  0.46910779  0.80084943  0.78891505  1
  Fe  Fe65  1  0.96158541  0.81328978  0.12650424  1
  Fe  Fe66  1  0.45762743  0.31512583  0.12243641  1
  Fe  Fe67  1  0.97010953  0.30055167  0.45466686  1
  Fe  Fe68  1  0.46375323  0.30712972  0.44771920  1
  Fe  Fe69  1  0.96489792  0.81381859  0.45632774  1
  Fe  Fe70  1  0.46504958  0.80544219  0.11901461  1
  Fe  Fe71  1  0.96724335  0.30315399  0.78432513  1
  Fe  Fe72  1  0.19241015  0.03933498  0.05280366  1
  Fe  Fe73  1  0.19248719  0.53342335  0.04942227  1
  Fe  Fe74  1  0.69909555  0.53153414  0.37381750  1
  Fe  Fe75  1  0.69373285  0.03698518  0.38113303  1
  Fe  Fe76  1  0.18939247  0.03226095  0.71046762  1
  Fe  Fe77  1  0.19404964  0.53388217  0.71363726  1
  Fe  Fe78  1  0.18730021  0.03654938  0.37926277  1
  Fe  Fe79  1  0.69156064  0.53707800  0.05029752  1
  Fe  Fe80  1  0.69698994  0.03038686  0.70789839  1
  Fe  Fe81  1  0.69396599  0.03838794  0.04936887  1
  Fe  Fe82  1  0.53304835  0.19350344  0.87969190  1
  Fe  Fe83  1  0.53124595  0.19294577  0.21191880  1
  Fe  Fe84  1  0.53164814  0.69937209  0.54041778  1
  Fe  Fe85  1  0.04215933  0.18303381  0.21197041  1
  Fe  Fe86  1  0.03501360  0.69356119  0.21878956  1
  Fe  Fe87  1  0.53236914  0.19166777  0.54416883  1
  Fe  Fe88  1  0.03578010  0.18767044  0.88192071  1
  Fe  Fe89  1  0.03377747  0.69044383  0.54557666  1
  Fe  Fe90  1  0.03052250  0.70230731  0.88082088  1
  Fe  Fe91  1  0.53613326  0.69672778  0.21791203  1
  Fe  Fe92  1  0.30064373  0.46210649  0.28633848  1
  Fe  Fe93  1  0.30756774  0.96608958  0.28968306  1
  Fe  Fe94  1  0.30959178  0.96167751  0.61846716  1
  Fe  Fe95  1  0.80723180  0.46559223  0.95366227  1
  Fe  Fe96  1  0.30711363  0.96910199  0.95755852  1
  Fe  Fe97  1  0.80969718  0.96622401  0.28649560  1
  Fe  Fe98  1  0.81152229  0.96566305  0.95741945  1
  Fe  Fe99  1  0.30526405  0.46398305  0.95220958  1
  Fe  Fe100  1  0.79646390  0.47244031  0.62462173  1
  Fe  Fe101  1  0.30617844  0.46742778  0.61461447  1
  S  S102  1  0.35994526  0.14190260  0.08380052  1
  S  S103  1  0.35944124  0.14073305  0.41634094  1
  S  S104  1  0.35995389  0.13995668  0.75064124  1
  S  S105  1  0.35785272  0.63887534  0.08302521  1
  S  S106  1  0.36314281  0.63408946  0.41415446  1
  S  S107  1  0.35866882  0.63818920  0.75281793  1
  S  S108  1  0.85964965  0.14242177  0.08569575  1
  S  S109  1  0.85780276  0.14122745  0.41768225  1
  S  S110  1  0.85817456  0.14285567  0.74786585  1
  S  S111  1  0.86195644  0.63978979  0.08348384  1
  S  S112  1  0.85657950  0.64693275  0.41856251  1
  S  S113  1  0.85981059  0.64306934  0.75343022  1
  S  S114  1  0.14467319  0.34928597  0.24340803  1
  S  S115  1  0.14194170  0.36008929  0.58439299  1
  S  S116  1  0.13889843  0.35907231  0.91680148  1
  S  S117  1  0.14044660  0.85688966  0.25226790  1
  S  S118  1  0.14495145  0.85551085  0.58306900  1
  S  S119  1  0.14267313  0.86133258  0.91947593  1
  S  S120  1  0.63601528  0.35722485  0.24838113  1
  S  S121  1  0.63793305  0.35735221  0.58086254  1
  S  S122  1  0.63973436  0.35933816  0.91845001  1
  S  S123  1  0.63873373  0.86464074  0.24948064  1
  S  S124  1  0.64156922  0.85847703  0.58748274  1
  S  S125  1  0.64141885  0.86358907  0.91729862  1
  S  S126  1  0.06318893  0.16089081  0.03687017  1
  S  S127  1  0.06899904  0.17322364  0.37733603  1
  S  S128  1  0.06440473  0.16697062  0.71056050  1
  S  S129  1  0.06644546  0.66754006  0.04249777  1
  S  S130  1  0.05687970  0.66546743  0.37597240  1
  S  S131  1  0.07101544  0.66572559  0.70840834  1
  S  S132  1  0.57015976  0.17354112  0.04285898  1
  S  S133  1  0.56700425  0.17231320  0.37507124  1
  S  S134  1  0.56922410  0.17241738  0.70970674  1
  S  S135  1  0.55871058  0.66535440  0.04284597  1
  S  S136  1  0.57563334  0.67284297  0.37769172  1
  S  S137  1  0.56417339  0.67062702  0.70295825  1
  S  S138  1  0.33100111  0.43621724  0.12342227  1
  S  S139  1  0.33896877  0.42916362  0.46193598  1
  S  S140  1  0.32830498  0.43086924  0.78952852  1
  S  S141  1  0.32824495  0.93269046  0.12616299  1
  S  S142  1  0.31992641  0.92911241  0.45200685  1
  S  S143  1  0.33182833  0.93067791  0.79305328  1
  S  S144  1  0.83659510  0.43452880  0.12496268  1
  S  S145  1  0.83106834  0.43403625  0.46032853  1
  S  S146  1  0.83193250  0.42861709  0.79313444  1
  S  S147  1  0.82356021  0.93238101  0.12183586  1
  S  S148  1  0.82812503  0.93873554  0.45564657  1
  S  S149  1  0.83220498  0.94062629  0.79634463  1
  S  S150  1  0.43098067  0.33299164  0.29121907  1
  S  S151  1  0.43245604  0.33181182  0.62557138  1
  S  S152  1  0.43368030  0.33513336  0.95735720  1
  S  S153  1  0.43548039  0.83375901  0.29028033  1
  S  S154  1  0.43012291  0.82337717  0.62433972  1
  S  S155  1  0.42952637  0.83057840  0.95798282  1
  S  S156  1  0.94357320  0.32827580  0.29073740  1
  S  S157  1  0.92886972  0.33766905  0.62676755  1
  S  S158  1  0.93555969  0.32947988  0.95852377  1
  S  S159  1  0.92963900  0.82726657  0.29054491  1
  S  S160  1  0.93975469  0.83213483  0.61951778  1
  S  S161  1  0.92960112  0.82716697  0.96099153  1
  S  S162  1  0.17081314  0.06144110  0.20866436  1
  S  S163  1  0.17666011  0.06520527  0.54721869  1
  S  S164  1  0.17169433  0.06529807  0.87437979  1
  S  S165  1  0.16953077  0.56711382  0.20951194  1
  S  S166  1  0.16635595  0.56334420  0.53890100  1
  S  S167  1  0.16611183  0.56641186  0.87622714  1
  S  S168  1  0.66888704  0.07060167  0.21003719  1
  S  S169  1  0.66673028  0.06880617  0.54084108  1
  S  S170  1  0.66779532  0.07070926  0.87375169  1
  S  S171  1  0.66889207  0.57092668  0.21030512  1
  S  S172  1  0.67255512  0.57401856  0.53889177  1
  S  S173  1  0.66698974  0.56090288  0.88142654  1
  O  O174  1  0.37271441  0.21897051  0.07362419  1
  O  O175  1  0.37147734  0.21950453  0.40971426  1
  O  O176  1  0.36882541  0.21798138  0.73995220  1
  O  O177  1  0.36672975  0.71794523  0.07480475  1
  O  O178  1  0.37003523  0.70723954  0.39794474  1
  O  O179  1  0.36506416  0.72042509  0.75120989  1
  O  O180  1  0.86907814  0.22304526  0.07936009  1
  O  O181  1  0.86660401  0.22183476  0.41099274  1
  O  O182  1  0.86757896  0.22396815  0.74223421  1
  O  O183  1  0.87095215  0.71959709  0.07778989  1
  O  O184  1  0.86315756  0.73015271  0.41853632  1
  O  O185  1  0.87130586  0.71718232  0.74070585  1
  O  O186  1  0.28090938  0.13144031  0.08960576  1
  O  O187  1  0.28083687  0.13237039  0.42478900  1
  O  O188  1  0.27874347  0.12995348  0.75360218  1
  O  O189  1  0.27826614  0.63089599  0.09027077  1
  O  O190  1  0.29277997  0.62353161  0.43351368  1
  O  O191  1  0.27971289  0.62794232  0.76305551  1
  O  O192  1  0.78018083  0.13560887  0.09446277  1
  O  O193  1  0.77588146  0.13369864  0.42226813  1
  O  O194  1  0.77783826  0.13541816  0.75416895  1
  O  O195  1  0.78340155  0.62903109  0.09074723  1
  O  O196  1  0.77824679  0.63430816  0.42667073  1
  O  O197  1  0.78785288  0.63276400  0.77062256  1
  O  O198  1  0.13671637  0.26753366  0.24251838  1
  O  O199  1  0.13350161  0.28470778  0.59510924  1
  O  O200  1  0.12980803  0.27943102  0.92156668  1
  O  O201  1  0.13243131  0.77868578  0.26372178  1
  O  O202  1  0.13396322  0.77584636  0.58943216  1
  O  O203  1  0.13213151  0.78330640  0.93066298  1
  O  O204  1  0.62364942  0.27986956  0.26070487  1
  O  O205  1  0.63028978  0.27636247  0.58597985  1
  O  O206  1  0.62907745  0.27910900  0.92414467  1
  O  O207  1  0.62971566  0.78786881  0.26203616  1
  O  O208  1  0.62129376  0.77951277  0.59631081  1
  O  O209  1  0.63676836  0.78755391  0.92816143  1
  O  O210  1  0.22001016  0.36513913  0.23089650  1
  O  O211  1  0.22071519  0.37239141  0.57578127  1
  O  O212  1  0.21757998  0.36967647  0.90806536  1
  O  O213  1  0.22093123  0.86492730  0.24631828  1
  O  O214  1  0.22485951  0.86153192  0.57559277  1
  O  O215  1  0.22486758  0.86770341  0.91645443  1
  O  O216  1  0.71179213  0.36110541  0.23609766  1
  O  O217  1  0.71818357  0.36854097  0.57505183  1
  O  O218  1  0.71917023  0.36593345  0.91045382  1
  O  O219  1  0.71736146  0.87267237  0.24231357  1
  O  O220  1  0.72328476  0.85925484  0.58989173  1
  O  O221  1  0.71892133  0.87782629  0.90704797  1
  O  O222  1  0.41779295  0.13491030  0.15342469  1
  O  O223  1  0.41829330  0.13250926  0.48510111  1
  O  O224  1  0.41554843  0.13794234  0.82318905  1
  O  O225  1  0.41659954  0.62997608  0.15062489  1
  O  O226  1  0.43238237  0.62917389  0.48020277  1
  O  O227  1  0.41857362  0.62361734  0.81486964  1
  O  O228  1  0.91825146  0.13253696  0.15185724  1
  O  O229  1  0.91356993  0.13301882  0.48512535  1
  O  O230  1  0.91525207  0.13654704  0.81829127  1
  O  O231  1  0.92200034  0.62903274  0.15012855  1
  O  O232  1  0.91626883  0.63445333  0.48537317  1
  O  O233  1  0.92658800  0.63175098  0.81785688  1
  O  O234  1  0.36970724  0.08117848  0.01684868  1
  O  O235  1  0.36707649  0.08143279  0.34839939  1
  O  O236  1  0.37449577  0.07897731  0.68732553  1
  O  O237  1  0.36532852  0.57975248  0.01441547  1
  O  O238  1  0.37037961  0.56855839  0.34816580  1
  O  O239  1  0.36168143  0.58463473  0.67939347  1
  O  O240  1  0.86315825  0.08548414  0.01522716  1
  O  O241  1  0.86385570  0.08404673  0.34775674  1
  O  O242  1  0.86834083  0.08549863  0.68221585  1
  O  O243  1  0.87180437  0.58207439  0.01491732  1
  O  O244  1  0.86578234  0.59370717  0.35000185  1
  O  O245  1  0.86471970  0.57855690  0.68462319  1
  O  O246  1  0.08193150  0.36198400  0.17711686  1
  O  O247  1  0.08202239  0.36913896  0.51674848  1
  O  O248  1  0.07960097  0.37056875  0.84975405  1
  O  O249  1  0.08319108  0.85861332  0.18087988  1
  O  O250  1  0.08720659  0.86660846  0.51630793  1
  O  O251  1  0.08668162  0.86802069  0.85156079  1
  O  O252  1  0.57390909  0.36456326  0.18122090  1
  O  O253  1  0.58097350  0.36382044  0.51021080  1
  O  O254  1  0.58109360  0.36896998  0.85097750  1
  O  O255  1  0.57932815  0.87008059  0.18006389  1
  O  O256  1  0.58957589  0.86732640  0.51810836  1
  O  O257  1  0.58060013  0.86922362  0.84822593  1
  O  O258  1  0.13733625  0.40423291  0.31231789  1
  O  O259  1  0.13308102  0.42298370  0.65153510  1
  O  O260  1  0.13071024  0.41725352  0.98541460  1
  O  O261  1  0.12957574  0.91738263  0.31692355  1
  O  O262  1  0.14036290  0.91375927  0.65291648  1
  O  O263  1  0.13417886  0.92208725  0.98700404  1
  O  O264  1  0.63258977  0.41862488  0.31713287  1
  O  O265  1  0.62631976  0.41467638  0.64582612  1
  O  O266  1  0.63331798  0.41682763  0.98781389  1
  O  O267  1  0.62720752  0.92628648  0.31482472  1
  O  O268  1  0.62991336  0.91825625  0.65474129  1
  O  O269  1  0.63016675  0.92602445  0.98313946  1
  O  O270  1  0.02641638  0.19081173  0.09775499  1
  O  O271  1  0.02752228  0.20048915  0.43299322  1
  O  O272  1  0.03203240  0.19958288  0.77577390  1
  O  O273  1  0.03318679  0.69533118  0.10541591  1
  O  O274  1  0.02444402  0.70766362  0.43806372  1
  O  O275  1  0.04261477  0.69101033  0.77309485  1
  O  O276  1  0.53440872  0.19975323  0.10381747  1
  O  O277  1  0.53027675  0.20101167  0.43601787  1
  O  O278  1  0.53098338  0.20112407  0.77016711  1
  O  O279  1  0.53069754  0.70126852  0.11046866  1
  O  O280  1  0.54151400  0.69659730  0.44005878  1
  O  O281  1  0.52169845  0.69894203  0.75833920  1
  O  O282  1  0.29795074  0.47279075  0.06134893  1
  O  O283  1  0.31160995  0.45378970  0.39534748  1
  O  O284  1  0.30102112  0.46744857  0.72868162  1
  O  O285  1  0.29825912  0.96956164  0.06561945  1
  O  O286  1  0.28814683  0.97195950  0.39508813  1
  O  O287  1  0.30441232  0.96726578  0.73225813  1
  O  O288  1  0.80450426  0.46587594  0.05915984  1
  O  O289  1  0.80427047  0.47200992  0.40164109  1
  O  O290  1  0.80438145  0.46175750  0.73224459  1
  O  O291  1  0.79690970  0.97397474  0.06343287  1
  O  O292  1  0.79428249  0.96848203  0.38890153  1
  O  O293  1  0.79943122  0.97906278  0.73847898  1
  O  O294  1  0.46433427  0.29969067  0.22779650  1
  O  O295  1  0.46996353  0.30246375  0.56534871  1
  O  O296  1  0.47050045  0.30450264  0.89656766  1
  O  O297  1  0.46759286  0.79902856  0.22517793  1
  O  O298  1  0.46352858  0.79260184  0.56256277  1
  O  O299  1  0.46625747  0.80993978  0.89862863  1
  O  O300  1  0.97948341  0.28858228  0.23048524  1
  O  O301  1  0.96306315  0.32018764  0.56555975  1
  O  O302  1  0.96936730  0.29870591  0.89602979  1
  O  O303  1  0.96928349  0.79651521  0.23092325  1
  O  O304  1  0.97747186  0.79374163  0.55849107  1
  O  O305  1  0.96996471  0.80215256  0.90392533  1
  O  O306  1  0.20199426  0.02443176  0.27015250  1
  O  O307  1  0.21020669  0.02372765  0.60598992  1
  O  O308  1  0.20162200  0.03000791  0.93667550  1
  O  O309  1  0.19939281  0.53054847  0.26831458  1
  O  O310  1  0.20042134  0.53367692  0.60585769  1
  O  O311  1  0.19655715  0.52983999  0.93729346  1
  O  O312  1  0.70126806  0.03340677  0.26995286  1
  O  O313  1  0.69009638  0.03293323  0.60066021  1
  O  O314  1  0.69711614  0.03880187  0.93733709  1
  O  O315  1  0.69336100  0.53336310  0.26864766  1
  O  O316  1  0.69272143  0.53365878  0.59619235  1
  O  O317  1  0.70521979  0.52738595  0.94577568  1
  O  O318  1  0.08001874  0.07847540  0.03075161  1
  O  O319  1  0.09277123  0.09467202  0.37787202  1
  O  O320  1  0.08815599  0.08790260  0.71098915  1
  O  O321  1  0.08167593  0.58345265  0.03370749  1
  O  O322  1  0.05833500  0.58344544  0.37364697  1
  O  O323  1  0.08414530  0.58010450  0.69515936  1
  O  O324  1  0.58821895  0.09110727  0.03274380  1
  O  O325  1  0.58644295  0.09109245  0.36870285  1
  O  O326  1  0.59129235  0.09298454  0.70772449  1
  O  O327  1  0.58102726  0.58493803  0.04393130  1
  O  O328  1  0.59354475  0.59070060  0.36624796  1
  O  O329  1  0.57550351  0.58838543  0.69573456  1
  O  O330  1  0.41441248  0.42550195  0.12721935  1
  O  O331  1  0.42456581  0.41610503  0.47670275  1
  O  O332  1  0.41115552  0.41417867  0.79838340  1
  O  O333  1  0.40886379  0.91220362  0.13015379  1
  O  O334  1  0.39325117  0.90182322  0.44492004  1
  O  O335  1  0.41284652  0.90969224  0.79922533  1
  O  O336  1  0.91785678  0.41364934  0.12621617  1
  O  O337  1  0.91284594  0.41424367  0.46397961  1
  O  O338  1  0.91489306  0.40992946  0.80278034  1
  O  O339  1  0.90257927  0.91081046  0.12510368  1
  O  O340  1  0.90686919  0.91432797  0.45369592  1
  O  O341  1  0.91393747  0.92946222  0.80052840  1
  O  O342  1  0.41189143  0.41343703  0.29253317  1
  O  O343  1  0.41515474  0.41397901  0.63315095  1
  O  O344  1  0.41788530  0.41820686  0.96216085  1
  O  O345  1  0.41090641  0.91186431  0.28636832  1
  O  O346  1  0.41041656  0.90477086  0.62767041  1
  O  O347  1  0.41028729  0.91310364  0.97033696  1
  O  O348  1  0.93676327  0.40923494  0.29063453  1
  O  O349  1  0.90910197  0.42018619  0.64390721  1
  O  O350  1  0.92159529  0.41314359  0.96590659  1
  O  O351  1  0.90766940  0.90517299  0.28892168  1
  O  O352  1  0.91738782  0.90669156  0.60900943  1
  O  O353  1  0.91248622  0.90935786  0.96655334  1
  O  O354  1  0.09012468  0.07839120  0.20544721  1
  O  O355  1  0.10231077  0.08936853  0.55409650  1
  O  O356  1  0.09000478  0.08259412  0.86905131  1
  O  O357  1  0.08703187  0.58508983  0.20636455  1
  O  O358  1  0.08440085  0.58227981  0.53827009  1
  O  O359  1  0.08388131  0.58260313  0.87119941  1
  O  O360  1  0.58808409  0.08798310  0.20916726  1
  O  O361  1  0.58362584  0.08719292  0.52950559  1
  O  O362  1  0.58458145  0.08715884  0.86501946  1
  O  O363  1  0.58636342  0.59056254  0.20023031  1
  O  O364  1  0.58935037  0.59520810  0.52957465  1
  O  O365  1  0.58684596  0.57414155  0.88289792  1
  O  O366  1  0.13296959  0.21112146  0.04953109  1
  O  O367  1  0.13783040  0.22868465  0.39361493  1
  O  O368  1  0.13441794  0.22133190  0.72569439  1
  O  O369  1  0.13951487  0.71724236  0.05852907  1
  O  O370  1  0.13390820  0.70663008  0.38977441  1
  O  O371  1  0.14402031  0.71410069  0.72139915  1
  O  O372  1  0.64126082  0.22640015  0.05927792  1
  O  O373  1  0.63716014  0.22589359  0.39127243  1
  O  O374  1  0.63810366  0.22800413  0.72609756  1
  O  O375  1  0.62629398  0.71644680  0.05040199  1
  O  O376  1  0.64510303  0.72696181  0.39328605  1
  O  O377  1  0.63796895  0.72116835  0.72521168  1
  O  O378  1  0.28592362  0.36156416  0.10511373  1
  O  O379  1  0.29143182  0.35914887  0.45541612  1
  O  O380  1  0.27621680  0.35976333  0.77320031  1
  O  O381  1  0.27479686  0.86178926  0.11003427  1
  O  O382  1  0.26134266  0.86271787  0.43716102  1
  O  O383  1  0.27676270  0.86087495  0.77644018  1
  O  O384  1  0.78443034  0.36234524  0.10879660  1
  O  O385  1  0.77789150  0.36180308  0.44168727  1
  O  O386  1  0.77959353  0.35794262  0.77983855  1
  O  O387  1  0.76686833  0.86420994  0.10253615  1
  O  O388  1  0.77418023  0.87019374  0.44390078  1
  O  O389  1  0.78331230  0.86680241  0.77971483  1
  O  O390  1  0.36393900  0.28196168  0.28328908  1
  O  O391  1  0.36147039  0.27913746  0.60916764  1
  O  O392  1  0.36138928  0.28495585  0.93993776  1
  O  O393  1  0.36647443  0.77949335  0.27726069  1
  O  O394  1  0.35958868  0.77135917  0.61192198  1
  O  O395  1  0.35819450  0.77618425  0.93882104  1
  O  O396  1  0.86732903  0.28266450  0.27382159  1
  O  O397  1  0.85840333  0.28220794  0.60774166  1
  O  O398  1  0.86154037  0.28081410  0.94226737  1
  O  O399  1  0.86212928  0.77177859  0.27580269  1
  O  O400  1  0.87022366  0.77697585  0.60478551  1
  O  O401  1  0.85749075  0.77518698  0.94237669  1
  O  O402  1  0.22251342  0.13037934  0.22194765  1
  O  O403  1  0.23414256  0.13293483  0.56334278  1
  O  O404  1  0.22379615  0.13564173  0.88900742  1
  O  O405  1  0.21982581  0.63889470  0.22248493  1
  O  O406  1  0.21592149  0.63608360  0.55307574  1
  O  O407  1  0.21737057  0.63853863  0.89307034  1
  O  O408  1  0.72021605  0.14208508  0.22454827  1
  O  O409  1  0.71959789  0.14004658  0.55750783  1
  O  O410  1  0.71898326  0.14245718  0.88788092  1
  O  O411  1  0.72164551  0.64091346  0.22588236  1
  O  O412  1  0.72678558  0.64438434  0.55871692  1
  O  O413  1  0.71587150  0.63532491  0.89874196  1
  O  O414  1  0.49130707  0.33765589  0.03063103  1
  O  O415  1  0.49571447  0.34044195  0.36319662  1
  O  O416  1  0.49185129  0.33262400  0.69839090  1
  O  O417  1  0.48779810  0.82698258  0.02912853  1
  O  O418  1  0.49811174  0.84458894  0.36077294  1
  O  O419  1  0.49045255  0.83177076  0.69848843  1
  O  O420  1  0.99437482  0.32764980  0.02920453  1
  O  O421  1  0.99687667  0.32821249  0.36532231  1
  O  O422  1  0.98970324  0.33161622  0.69600880  1
  O  O423  1  0.98632999  0.82849192  0.03508270  1
  O  O424  1  0.99008623  0.83409499  0.36407096  1
  O  O425  1  0.99735602  0.84243396  0.69294348  1
  O  O426  1  0.16736529  0.00048786  0.13600118  1
  O  O427  1  0.16868078  0.00766173  0.47231434  1
  O  O428  1  0.17048307  0.00464059  0.80269268  1
  O  O429  1  0.16186937  0.50840792  0.13400728  1
  O  O430  1  0.16273460  0.50164870  0.47062855  1
  O  O431  1  0.16494044  0.50797354  0.80364213  1
  O  O432  1  0.66448633  0.01221282  0.13626012  1
  O  O433  1  0.66650924  0.00919433  0.46852967  1
  O  O434  1  0.66580221  0.00993683  0.80203802  1
  O  O435  1  0.66782563  0.51042299  0.13739533  1
  O  O436  1  0.66945923  0.51537243  0.46514916  1
  O  O437  1  0.66550696  0.50382630  0.81045093  1
  O  O438  1  0.01266432  0.16426947  0.30072897  1
  O  O439  1  0.00220576  0.16014114  0.64087122  1
  O  O440  1  0.00175328  0.15814763  0.96418565  1
  O  O441  1  0.00154634  0.66909680  0.30304325  1
  O  O442  1  0.00998421  0.66890703  0.63894220  1
  O  O443  1  0.00759515  0.66793589  0.97092998  1
  O  O444  1  0.50617938  0.16963127  0.30323268  1
  O  O445  1  0.50964464  0.16827600  0.63694911  1
  O  O446  1  0.50986138  0.17360304  0.97123324  1
  O  O447  1  0.51346441  0.67545263  0.30786197  1
  O  O448  1  0.51123020  0.67267323  0.62694400  1
  O  O449  1  0.49239785  0.65398247  0.97461312  1
  O  O450  1  0.32911267  0.49409473  0.19465095  1
  O  O451  1  0.33679484  0.49462424  0.53028681  1
  O  O452  1  0.32921395  0.49085689  0.86200217  1
  O  O453  1  0.33215979  0.99260304  0.19862723  1
  O  O454  1  0.33124177  0.98733051  0.52812804  1
  O  O455  1  0.33580918  0.99042491  0.86620160  1
  O  O456  1  0.83974342  0.49475868  0.19395687  1
  O  O457  1  0.83415321  0.48970461  0.53509456  1
  O  O458  1  0.83505258  0.48903388  0.86638714  1
  O  O459  1  0.82677584  0.99159090  0.19482581  1
  O  O460  1  0.83797994  1.00346003  0.52412001  1
  O  O461  1  0.83255259  0.99610555  0.87148538  1
