# generated using pymatgen
data_Na31Fe20(SO4)36
_symmetry_space_group_name_H-M   'P 1'
_cell_length_a   18.07989080
_cell_length_b   18.07914659
_cell_length_c   19.73014040
_cell_angle_alpha   107.57207067
_cell_angle_beta   107.57286116
_cell_angle_gamma   90.78311122
_symmetry_Int_Tables_number   1
_chemical_formula_structural   Na31Fe20(SO4)36
_chemical_formula_sum   'Na62 Fe40 S72 O288'
_cell_volume   5822.21283431
_cell_formula_units_Z   2
loop_
 _symmetry_equiv_pos_site_id
 _symmetry_equiv_pos_as_xyz
  1  'x, y, z'
loop_
 _atom_site_type_symbol
 _atom_site_label
 _atom_site_symmetry_multiplicity
 _atom_site_fract_x
 _atom_site_fract_y
 _atom_site_fract_z
 _atom_site_occupancy
  Na  Na0  1  0.12577820  0.36148729  0.07476923  1
  Na  Na1  1  0.13338321  0.38133405  0.42789192  1
  Na  Na2  1  0.13433641  0.35862314  0.74850829  1
  Na  Na3  1  0.13246653  0.86820462  0.08774331  1
  Na  Na4  1  0.13638106  0.87229934  0.42482383  1
  Na  Na5  1  0.12966314  0.86256505  0.73334925  1
  Na  Na6  1  0.62302471  0.36863907  0.07853300  1
  Na  Na7  1  0.62488243  0.36826425  0.41686648  1
  Na  Na8  1  0.63246029  0.36891676  0.75372634  1
  Na  Na9  1  0.65726004  0.84507974  0.08239050  1
  Na  Na10  1  0.63462268  0.85894195  0.40738958  1
  Na  Na11  1  0.65021932  0.87629476  0.76181028  1
  Na  Na12  1  0.37079952  0.13961510  0.25639751  1
  Na  Na13  1  0.36485730  0.13775798  0.58269574  1
  Na  Na14  1  0.35331239  0.12518379  0.90205065  1
  Na  Na15  1  0.36625812  0.63733205  0.25187609  1
  Na  Na16  1  0.37121686  0.62671683  0.58296021  1
  Na  Na17  1  0.36723543  0.62650345  0.91381997  1
  Na  Na18  1  0.87646083  0.12572060  0.25235139  1
  Na  Na19  1  0.86768862  0.12904537  0.58494371  1
  Na  Na20  1  0.85875156  0.12793627  0.90779942  1
  Na  Na21  1  0.84023397  0.65459883  0.24452740  1
  Na  Na22  1  0.86978903  0.64309246  0.58929102  1
  Na  Na23  1  0.86904521  0.67500954  0.95498117  1
  Na  Na24  1  0.99436444  0.03817778  0.75805519  1
  Na  Na25  1  0.96638355  0.00108436  0.08178960  1
  Na  Na26  1  0.48955615  0.01409631  0.74457887  1
  Na  Na27  1  1.00753850  0.50396363  0.73078763  1
  Na  Na28  1  0.49328705  0.00687916  0.07798956  1
  Na  Na29  1  0.48700690  0.44325095  0.54317488  1
  Na  Na30  1  0.45973782  0.50351734  0.74433236  1
  Na  Na31  1  0.98466718  0.52074556  0.08962990  1
  Na  Na32  1  0.47828987  0.01511223  0.42023713  1
  Na  Na33  1  0.51862479  0.97925366  0.24814585  1
  Na  Na34  1  0.50514021  0.48969157  0.24943926  1
  Na  Na35  1  -0.02027545  0.51682695  0.27217970  1
  Na  Na36  1  -0.00763274  0.54195175  0.52677085  1
  Na  Na37  1  -0.01301040  1.01102416  0.91563087  1
  Na  Na38  1  0.52703251  0.99179327  0.91266615  1
  Na  Na39  1  0.00360437  0.48554631  0.91089361  1
  Na  Na40  1  0.04397004  0.99701468  0.58438498  1
  Na  Na41  1  0.55177701  0.99189321  0.59643263  1
  Na  Na42  1  0.25092533  0.25575429  0.66209706  1
  Na  Na43  1  0.26865036  0.27011969  0.33572468  1
  Na  Na44  1  0.74631260  0.24802485  0.33677632  1
  Na  Na45  1  0.74079469  0.23572743  0.67357656  1
  Na  Na46  1  0.23126351  0.23506058  -0.00261078  1
  Na  Na47  1  0.75376805  0.75578020  0.66604336  1
  Na  Na48  1  0.23860935  0.74520561  0.34901783  1
  Na  Na49  1  0.25178887  0.74777285  -0.00083704  1
  Na  Na50  1  0.25752814  0.75620832  0.64706943  1
  Na  Na51  1  0.74806282  0.24802908  0.00380654  1
  Na  Na52  1  0.75923448  0.75798478  0.48512266  1
  Na  Na53  1  0.24512459  0.24848889  0.16582983  1
  Na  Na54  1  0.25296046  0.75323537  0.82081515  1
  Na  Na55  1  0.26416775  0.27157948  0.49727144  1
  Na  Na56  1  0.75734518  0.75901195  0.84401898  1
  Na  Na57  1  0.24087290  0.74306954  0.17322172  1
  Na  Na58  1  0.74954173  0.24778345  0.16817572  1
  Na  Na59  1  0.74280573  0.24119925  0.50581390  1
  Na  Na60  1  0.22772258  0.22782463  0.83273641  1
  Na  Na61  1  0.74032111  0.23791664  0.83634319  1
  Fe  Fe62  1  0.96584363  0.30008022  0.78667367  1
  Fe  Fe63  1  0.46113216  0.30464328  0.11540685  1
  Fe  Fe64  1  0.46887531  0.80491230  0.78244938  1
  Fe  Fe65  1  0.97125199  0.80249030  0.45977203  1
  Fe  Fe66  1  0.96918366  0.80597521  0.78497636  1
  Fe  Fe67  1  0.96387492  0.30891193  0.45410204  1
  Fe  Fe68  1  0.46516659  0.80941485  0.45342242  1
  Fe  Fe69  1  0.46890509  0.80261041  0.11754135  1
  Fe  Fe70  1  0.96585929  0.30816465  0.12058343  1
  Fe  Fe71  1  0.46034222  0.31072038  0.78595979  1
  Fe  Fe72  1  0.69155624  0.53795509  0.38192024  1
  Fe  Fe73  1  0.19348693  0.53435225  0.04872357  1
  Fe  Fe74  1  0.69944601  0.02871549  0.37696970  1
  Fe  Fe75  1  0.19793274  0.53129614  0.70500545  1
  Fe  Fe76  1  0.69286312  0.53378903  0.71464838  1
  Fe  Fe77  1  0.68542107  0.53998595  0.04794921  1
  Fe  Fe78  1  0.18839871  0.03543748  0.37501986  1
  Fe  Fe79  1  0.18717761  0.03262235  0.04244007  1
  Fe  Fe80  1  0.19076608  0.54249948  0.38475783  1
  Fe  Fe81  1  0.70659191  0.02671860  0.04642534  1
  Fe  Fe82  1  0.03424410  0.18873188  0.54338259  1
  Fe  Fe83  1  0.53315093  0.68774895  0.54279409  1
  Fe  Fe84  1  0.53702509  0.69309309  0.88458138  1
  Fe  Fe85  1  0.03710236  0.19517982  0.21600720  1
  Fe  Fe86  1  0.54198108  0.68382323  0.21023168  1
  Fe  Fe87  1  0.02877122  0.70280466  0.21434273  1
  Fe  Fe88  1  0.53131378  0.19695788  0.54347116  1
  Fe  Fe89  1  0.53290044  0.19734955  0.88037683  1
  Fe  Fe90  1  0.53330782  0.19335793  0.21356509  1
  Fe  Fe91  1  0.03382378  0.69100627  0.88142481  1
  Fe  Fe92  1  0.30706547  0.96514178  0.28352565  1
  Fe  Fe93  1  0.80526705  0.46891859  0.28790722  1
  Fe  Fe94  1  0.30604806  0.46369550  0.95356334  1
  Fe  Fe95  1  0.80220611  0.96676134  0.62328347  1
  Fe  Fe96  1  0.80613225  0.46462251  0.61981512  1
  Fe  Fe97  1  0.31266710  0.46594805  0.29120649  1
  Fe  Fe98  1  0.82005465  0.95568952  0.28830263  1
  Fe  Fe99  1  0.30176445  0.96967595  0.61822121  1
  Fe  Fe100  1  0.30564619  0.96223626  0.94785825  1
  Fe  Fe101  1  0.80244246  0.46851530  0.95257260  1
  S  S102  1  0.35834763  0.13709654  0.08053245  1
  S  S103  1  0.35732400  0.13953696  0.41414328  1
  S  S104  1  0.35923645  0.14117279  0.75002670  1
  S  S105  1  0.36039884  0.63969104  0.08571124  1
  S  S106  1  0.35881617  0.64458702  0.41383659  1
  S  S107  1  0.36350153  0.64150020  0.75015116  1
  S  S108  1  0.86165245  0.14275326  0.08405434  1
  S  S109  1  0.85867060  0.14035358  0.41633270  1
  S  S110  1  0.85650890  0.14039467  0.75037924  1
  S  S111  1  0.85798698  0.63697232  0.08790834  1
  S  S112  1  0.85896712  0.63940436  0.41598381  1
  S  S113  1  0.86065032  0.63759073  0.74920491  1
  S  S114  1  0.13922959  0.36283162  0.25031413  1
  S  S115  1  0.13553568  0.35848649  0.58568681  1
  S  S116  1  0.13804823  0.36077439  0.91605003  1
  S  S117  1  0.14514145  0.86071839  0.24986893  1
  S  S118  1  0.14283986  0.86494662  0.58548243  1
  S  S119  1  0.14517942  0.85386845  0.91585225  1
  S  S120  1  0.63894542  0.36062116  0.25042167  1
  S  S121  1  0.64422103  0.35793056  0.58386808  1
  S  S122  1  0.63753310  0.36388529  0.91713207  1
  S  S123  1  0.64223440  0.85732387  0.24677872  1
  S  S124  1  0.64063624  0.85140786  0.57902297  1
  S  S125  1  0.63904990  0.86050492  0.91856231  1
  S  S126  1  0.06239580  0.16868970  0.04323763  1
  S  S127  1  0.07185212  0.17840820  0.37928564  1
  S  S128  1  0.06338630  0.16837796  0.70550965  1
  S  S129  1  0.06681172  0.66108174  0.04045781  1
  S  S130  1  0.06514977  0.67680236  0.37524266  1
  S  S131  1  0.06750279  0.66541981  0.71000977  1
  S  S132  1  0.56404650  0.16789903  0.04195220  1
  S  S133  1  0.57057638  0.16240792  0.37177748  1
  S  S134  1  0.56161834  0.17208927  0.70835888  1
  S  S135  1  0.56422936  0.66452125  0.04114075  1
  S  S136  1  0.56556499  0.66856506  0.37402551  1
  S  S137  1  0.57322211  0.67392571  0.71039246  1
  S  S138  1  0.32500509  0.42896215  0.12300976  1
  S  S139  1  0.32676924  0.43516683  0.44739316  1
  S  S140  1  0.32638168  0.43287880  0.79192152  1
  S  S141  1  0.33537467  0.93293553  0.12387068  1
  S  S142  1  0.33931373  0.93662303  0.46037676  1
  S  S143  1  0.33777445  0.92976436  0.78993589  1
  S  S144  1  0.82831619  0.43056119  0.12560275  1
  S  S145  1  0.82656953  0.43337207  0.45698286  1
  S  S146  1  0.82906571  0.42948767  0.79012195  1
  S  S147  1  0.83676179  0.93549717  0.13040095  1
  S  S148  1  0.82842545  0.92682882  0.45887112  1
  S  S149  1  0.83646552  0.93022147  0.79064632  1
  S  S150  1  0.43447062  0.32870629  0.28447136  1
  S  S151  1  0.43812913  0.33215521  0.62516965  1
  S  S152  1  0.42391768  0.32333235  0.95337914  1
  S  S153  1  0.43452141  0.83220896  0.28911124  1
  S  S154  1  0.43651290  0.83410960  0.62605284  1
  S  S155  1  0.43184331  0.82739584  0.95730419  1
  S  S156  1  0.93136860  0.33233671  0.29169071  1
  S  S157  1  0.92890882  0.32766106  0.62362759  1
  S  S158  1  0.92644216  0.33561660  0.95933222  1
  S  S159  1  0.93651323  0.83192668  0.30154387  1
  S  S160  1  0.93084592  0.83310157  0.62358656  1
  S  S161  1  0.94921486  0.83628822  0.95619454  1
  S  S162  1  0.17337371  0.07149539  0.20886921  1
  S  S163  1  0.17456382  0.07336676  0.53979611  1
  S  S164  1  0.16462281  0.05407575  0.87584010  1
  S  S165  1  0.16854326  0.57006238  0.21084762  1
  S  S166  1  0.17800495  0.57335212  0.54661359  1
  S  S167  1  0.16918927  0.56425925  0.87449519  1
  S  S168  1  0.67011323  0.06887999  0.20613329  1
  S  S169  1  0.66714232  0.06337184  0.53702027  1
  S  S170  1  0.66261328  0.06953329  0.87792019  1
  S  S171  1  0.66293574  0.56102700  0.20806542  1
  S  S172  1  0.67201371  0.56678935  0.54423478  1
  S  S173  1  0.67200470  0.57132691  0.87522948  1
  O  O174  1  0.36465443  0.21527317  0.07038979  1
  O  O175  1  0.36588268  0.21651131  0.40627400  1
  O  O176  1  0.36838419  0.21962049  0.73945956  1
  O  O177  1  0.36810613  0.71874519  0.07681679  1
  O  O178  1  0.37158162  0.72215196  0.40280369  1
  O  O179  1  0.37190412  0.72264106  0.74514428  1
  O  O180  1  0.86919578  0.22513066  0.08157116  1
  O  O181  1  0.86688879  0.22000027  0.40833413  1
  O  O182  1  0.86893725  0.21870731  0.73913912  1
  O  O183  1  0.86640182  0.71220842  0.07871377  1
  O  O184  1  0.87371559  0.72191473  0.41687241  1
  O  O185  1  0.87094530  0.71344704  0.73539159  1
  O  O186  1  0.27948414  0.12787561  0.08878496  1
  O  O187  1  0.27910504  0.12727024  0.42287945  1
  O  O188  1  0.28541080  0.13167285  0.76337214  1
  O  O189  1  0.28208982  0.63076801  0.09638435  1
  O  O190  1  0.27843709  0.63875440  0.41739006  1
  O  O191  1  0.28480057  0.63217716  0.75895018  1
  O  O192  1  0.78090843  0.13278463  0.09019780  1
  O  O193  1  0.77874896  0.13099680  0.42375905  1
  O  O194  1  0.77810770  0.13508678  0.75706203  1
  O  O195  1  0.78127867  0.62040580  0.09831674  1
  O  O196  1  0.77602846  0.63212058  0.41649963  1
  O  O197  1  0.77950837  0.62990533  0.75258027  1
  O  O198  1  0.13295254  0.28374412  0.25952578  1
  O  O199  1  0.12051630  0.28123264  0.59692953  1
  O  O200  1  0.13010323  0.28381213  0.92424980  1
  O  O201  1  0.13734468  0.77930907  0.25429432  1
  O  O202  1  0.13774793  0.78964889  0.59739569  1
  O  O203  1  0.13525270  0.77483560  0.92375446  1
  O  O204  1  0.62934336  0.28169703  0.25889998  1
  O  O205  1  0.63584321  0.27686259  0.58862994  1
  O  O206  1  0.63013437  0.28490338  0.92714768  1
  O  O207  1  0.62889088  0.78017041  0.25534535  1
  O  O208  1  0.63134029  0.76903017  0.57985243  1
  O  O209  1  0.62564604  0.78264439  0.92734293  1
  O  O210  1  0.21899517  0.37207867  0.24316081  1
  O  O211  1  0.21257306  0.36194086  0.57698246  1
  O  O212  1  0.21518223  0.37172845  0.90401795  1
  O  O213  1  0.22673262  0.86977021  0.24308435  1
  O  O214  1  0.21663093  0.87647275  0.56730209  1
  O  O215  1  0.22628636  0.86180539  0.91089216  1
  O  O216  1  0.71898130  0.36858021  0.24450904  1
  O  O217  1  0.72480449  0.36697304  0.57775905  1
  O  O218  1  0.71496724  0.37113700  0.90476927  1
  O  O219  1  0.72072279  0.86970711  0.24189128  1
  O  O220  1  0.71952845  0.86262508  0.57162210  1
  O  O221  1  0.71319886  0.86978441  0.90626454  1
  O  O222  1  0.41779576  0.13024075  0.14911627  1
  O  O223  1  0.41776865  0.12963949  0.48136358  1
  O  O224  1  0.42401468  0.13274437  0.81558450  1
  O  O225  1  0.42046063  0.63376957  0.15360025  1
  O  O226  1  0.41535464  0.63991096  0.48444253  1
  O  O227  1  0.42264642  0.63483531  0.82014039  1
  O  O228  1  0.91933898  0.13547526  0.15377605  1
  O  O229  1  0.91647921  0.13451451  0.48531391  1
  O  O230  1  0.91697136  0.13106706  0.81529745  1
  O  O231  1  0.91961893  0.62701592  0.15511819  1
  O  O232  1  0.91085375  0.62422158  0.48168963  1
  O  O233  1  0.91625198  0.63296756  0.81993644  1
  O  O234  1  0.36941060  0.07752763  0.01418828  1
  O  O235  1  0.36688146  0.07853646  0.34639351  1
  O  O236  1  0.36755147  0.08183035  0.68152347  1
  O  O237  1  0.36451105  0.58043392  0.01683287  1
  O  O238  1  0.36903880  0.58359161  0.34780104  1
  O  O239  1  0.37427409  0.58381488  0.68523378  1
  O  O240  1  0.87191544  0.08708450  0.01767310  1
  O  O241  1  0.86536175  0.08167989  0.34885931  1
  O  O242  1  0.86255388  0.08065147  0.68008591  1
  O  O243  1  0.86754412  0.57454687  0.02024933  1
  O  O244  1  0.86598918  0.58507257  0.34446327  1
  O  O245  1  0.87232704  0.57474435  0.68456257  1
  O  O246  1  0.08139966  0.36673412  0.17949794  1
  O  O247  1  0.07508926  0.36698368  0.51795236  1
  O  O248  1  0.07625754  0.37180798  0.85022697  1
  O  O249  1  0.08814290  0.87194142  0.18573659  1
  O  O250  1  0.07710121  0.86796421  0.51564277  1
  O  O251  1  0.08944513  0.86236535  0.84725429  1
  O  O252  1  0.58081215  0.36785367  0.18150948  1
  O  O253  1  0.58667157  0.36822489  0.51821130  1
  O  O254  1  0.57651910  0.37068581  0.85080475  1
  O  O255  1  0.58316922  0.86640613  0.17798462  1
  O  O256  1  0.58219591  0.86225440  0.51062959  1
  O  O257  1  0.57491032  0.87164784  0.85372633  1
  O  O258  1  0.12716243  0.42199767  0.31531890  1
  O  O259  1  0.12877357  0.41948632  0.65372170  1
  O  O260  1  0.13177497  0.42192100  0.98476538  1
  O  O261  1  0.14453110  0.91646718  0.32312747  1
  O  O262  1  0.13591056  0.92902735  0.64881165  1
  O  O263  1  0.13842664  0.91250250  0.98471300  1
  O  O264  1  0.62923534  0.42028316  0.31721608  1
  O  O265  1  0.63798760  0.41464579  0.65419229  1
  O  O266  1  0.63385670  0.42266754  0.98649329  1
  O  O267  1  0.63062897  0.91874289  0.31321528  1
  O  O268  1  0.63079181  0.90606340  0.64649041  1
  O  O269  1  0.63287011  0.92079732  0.98851587  1
  O  O270  1  0.03317625  0.20315353  0.10995812  1
  O  O271  1  0.02975985  0.20396773  0.43683205  1
  O  O272  1  0.02942859  0.20526786  0.76567934  1
  O  O273  1  0.03367342  0.68516629  0.10199975  1
  O  O274  1  0.02843232  0.70559178  0.43520100  1
  O  O275  1  0.03301346  0.69636642  0.77350743  1
  O  O276  1  0.52883817  0.20021503  0.10385497  1
  O  O277  1  0.53597795  0.18053916  0.43252322  1
  O  O278  1  0.52773570  0.21028997  0.77016405  1
  O  O279  1  0.52814848  0.69759675  0.10339431  1
  O  O280  1  0.52651080  0.69609981  0.43289695  1
  O  O281  1  0.53509241  0.70251437  0.77053633  1
  O  O282  1  0.29606565  0.46648105  0.06266130  1
  O  O283  1  0.28807105  0.47526746  0.38850088  1
  O  O284  1  0.29899299  0.47179582  0.73447810  1
  O  O285  1  0.30576973  0.96747084  0.06228278  1
  O  O286  1  0.31270669  0.97140939  0.39818033  1
  O  O287  1  0.31616956  0.96380055  0.72903673  1
  O  O288  1  0.79627665  0.46095770  0.06173205  1
  O  O289  1  0.79657539  0.47043895  0.39623389  1
  O  O290  1  0.79934192  0.46806766  0.73074889  1
  O  O291  1  0.80219594  0.97629048  0.07212877  1
  O  O292  1  0.80534369  0.96635243  0.39876947  1
  O  O293  1  0.80380024  0.95526399  0.72358725  1
  O  O294  1  0.46600262  0.29433478  0.21831744  1
  O  O295  1  0.47531881  0.29656396  0.56688927  1
  O  O296  1  0.46461186  0.29729061  0.89499919  1
  O  O297  1  0.47168860  0.80448910  0.22901876  1
  O  O298  1  0.47095882  0.80275802  0.56340249  1
  O  O299  1  0.46645324  0.79775477  0.89589110  1
  O  O300  1  0.96984542  0.30357408  0.23222730  1
  O  O301  1  0.96171213  0.29854616  0.56049160  1
  O  O302  1  0.95848645  0.31348404  0.89706466  1
  O  O303  1  0.97668767  0.80248054  0.24532780  1
  O  O304  1  0.96611375  0.81024942  0.56212134  1
  O  O305  1  0.97623107  0.79381366  0.88785767  1
  O  O306  1  0.20217039  0.03354099  0.26894303  1
  O  O307  1  0.20551434  0.03948450  0.60046915  1
  O  O308  1  0.20668228  0.02507523  0.94297283  1
  O  O309  1  0.19677659  0.53392331  0.27147645  1
  O  O310  1  0.19735496  0.52934991  0.60148873  1
  O  O311  1  0.20040229  0.53242924  0.93891404  1
  O  O312  1  0.69803341  0.03181932  0.26573772  1
  O  O313  1  0.69290610  0.02452742  0.59470346  1
  O  O314  1  0.68183402  0.04215907  0.94480533  1
  O  O315  1  0.69792083  0.52540533  0.26962061  1
  O  O316  1  0.70106221  0.52711564  0.60338359  1
  O  O317  1  0.69992988  0.53562282  0.93743992  1
  O  O318  1  0.08455941  0.08862994  0.04326347  1
  O  O319  1  0.09307017  0.09923801  0.37443369  1
  O  O320  1  0.07505763  0.08764217  0.70416264  1
  O  O321  1  0.08275812  0.57644941  0.02865972  1
  O  O322  1  0.08721072  0.59654392  0.37292218  1
  O  O323  1  0.09634232  0.58869388  0.71457429  1
  O  O324  1  0.57982121  0.08621513  0.03876944  1
  O  O325  1  0.59125457  0.08000695  0.35655678  1
  O  O326  1  0.57078475  0.09087598  0.70649630  1
  O  O327  1  0.57833802  0.58322822  0.03819204  1
  O  O328  1  0.58336857  0.58649538  0.36755034  1
  O  O329  1  0.59156026  0.59291431  0.70548920  1
  O  O330  1  0.40627971  0.41076898  0.12847283  1
  O  O331  1  0.39153793  0.39804857  0.42593277  1
  O  O332  1  0.40788760  0.41434542  0.79506379  1
  O  O333  1  0.41827123  0.91608503  0.12956103  1
  O  O334  1  0.42430768  0.92345164  0.47021965  1
  O  O335  1  0.42239260  0.91432149  0.80472517  1
  O  O336  1  0.91175861  0.41610222  0.13331278  1
  O  O337  1  0.90739428  0.41458436  0.46057985  1
  O  O338  1  0.90969858  0.40959154  0.79223071  1
  O  O339  1  0.91687124  0.92584005  0.13238241  1
  O  O340  1  0.90900885  0.90404339  0.46759490  1
  O  O341  1  0.91903270  0.91006659  0.79543350  1
  O  O342  1  0.41462584  0.40861538  0.28298128  1
  O  O343  1  0.42568072  0.41242275  0.62514154  1
  O  O344  1  0.40303999  0.40255314  0.95863080  1
  O  O345  1  0.41890264  0.91562825  0.29599785  1
  O  O346  1  0.41634760  0.91479708  0.62872742  1
  O  O347  1  0.41431099  0.90980668  0.96325685  1
  O  O348  1  0.91014982  0.41251734  0.29362017  1
  O  O349  1  0.91007331  0.40948341  0.62948987  1
  O  O350  1  0.91150773  0.42043973  0.97437702  1
  O  O351  1  0.92557251  0.91523356  0.31039003  1
  O  O352  1  0.91412652  0.91584386  0.63754788  1
  O  O353  1  0.94694053  0.91898462  0.96034399  1
  O  O354  1  0.09218387  0.08932695  0.20206643  1
  O  O355  1  0.09206433  0.08851016  0.53505085  1
  O  O356  1  0.08562399  0.06761809  0.87980269  1
  O  O357  1  0.08790275  0.59118570  0.20520672  1
  O  O358  1  0.10353776  0.60449175  0.54206825  1
  O  O359  1  0.08596119  0.57969400  0.86826567  1
  O  O360  1  0.58590857  0.08306260  0.19747088  1
  O  O361  1  0.58526601  0.08375758  0.53292753  1
  O  O362  1  0.57898014  0.09099677  0.86590898  1
  O  O363  1  0.57993722  0.57159312  0.20561031  1
  O  O364  1  0.59211060  0.58616823  0.54156997  1
  O  O365  1  0.59034886  0.58942048  0.86817270  1
  O  O366  1  0.13341375  0.22067618  0.05594978  1
  O  O367  1  0.14017848  0.23531963  0.39822617  1
  O  O368  1  0.13708011  0.21604572  0.71826491  1
  O  O369  1  0.13958458  0.71104544  0.05580945  1
  O  O370  1  0.13278202  0.73085024  0.38733489  1
  O  O371  1  0.13355724  0.72193971  0.72195940  1
  O  O372  1  0.63609712  0.21930849  0.05795182  1
  O  O373  1  0.64007820  0.21847535  0.39014557  1
  O  O374  1  0.63625103  0.21962815  0.72410235  1
  O  O375  1  0.63543725  0.71323059  0.05501836  1
  O  O376  1  0.63610723  0.72124918  0.39195833  1
  O  O377  1  0.64388503  0.72759850  0.72784157  1
  O  O378  1  0.27187512  0.35784300  0.10559539  1
  O  O379  1  0.26628258  0.37419056  0.44110500  1
  O  O380  1  0.27512668  0.36067554  0.77517997  1
  O  O381  1  0.28496319  0.86116254  0.10969200  1
  O  O382  1  0.29095779  0.86353064  0.44314246  1
  O  O383  1  0.28630112  0.85746814  0.77244237  1
  O  O384  1  0.77872986  0.35895373  0.11405139  1
  O  O385  1  0.77351422  0.36280372  0.44087989  1
  O  O386  1  0.77535858  0.35925661  0.77371286  1
  O  O387  1  0.78702175  0.86415666  0.11401867  1
  O  O388  1  0.77108617  0.85924817  0.43881880  1
  O  O389  1  0.78670633  0.85879727  0.78101184  1
  O  O390  1  0.36204853  0.27710548  0.26829148  1
  O  O391  1  0.36452362  0.28303055  0.61025271  1
  O  O392  1  0.35515839  0.26703687  0.93555298  1
  O  O393  1  0.36263214  0.78110282  0.27166980  1
  O  O394  1  0.36883144  0.78106609  0.61502728  1
  O  O395  1  0.36067732  0.77579743  0.94275356  1
  O  O396  1  0.86114651  0.27829223  0.27513220  1
  O  O397  1  0.85875933  0.27518114  0.60979465  1
  O  O398  1  0.85420071  0.28494728  0.94417459  1
  O  O399  1  0.86308467  0.78513794  0.28513405  1
  O  O400  1  0.85887242  0.77946028  0.60346197  1
  O  O401  1  0.87148280  0.79586255  0.94053546  1
  O  O402  1  0.22675314  0.14280224  0.22678869  1
  O  O403  1  0.22270645  0.14665592  0.55287585  1
  O  O404  1  0.21244188  0.12851852  0.88987195  1
  O  O405  1  0.22355179  0.63979448  0.22698881  1
  O  O406  1  0.24197802  0.63521187  0.56523152  1
  O  O407  1  0.21941709  0.63633297  0.88920295  1
  O  O408  1  0.71948114  0.14294069  0.22484455  1
  O  O409  1  0.72026016  0.13488615  0.55472013  1
  O  O410  1  0.71619194  0.14076037  0.89501683  1
  O  O411  1  0.70701951  0.63531605  0.22283701  1
  O  O412  1  0.72704191  0.63634847  0.56194508  1
  O  O413  1  0.72525004  0.63991089  0.88858897  1
  O  O414  1  0.48372039  0.32569109  0.02638241  1
  O  O415  1  0.49555968  0.33067605  0.35221054  1
  O  O416  1  0.49344080  0.33637508  0.70133675  1
  O  O417  1  0.49224639  0.83085189  0.02967435  1
  O  O418  1  0.49219792  0.83361370  0.36210299  1
  O  O419  1  0.49929470  0.84081380  0.69863205  1
  O  O420  1  0.98709538  0.33197697  0.02947196  1
  O  O421  1  0.98939338  0.33678682  0.36512206  1
  O  O422  1  0.99014886  0.33190209  0.69555365  1
  O  O423  1  1.00631134  0.82788536  0.02299806  1
  O  O424  1  0.99298327  0.83122058  0.37687940  1
  O  O425  1  0.99015783  0.82521072  0.69196133  1
  O  O426  1  0.17433742  0.01199899  0.13739650  1
  O  O427  1  0.17249793  0.01383001  0.46713440  1
  O  O428  1  0.16364245  -0.00562236  0.80712161  1
  O  O429  1  0.16515674  0.51013013  0.13792677  1
  O  O430  1  0.17248440  0.51380378  0.47132246  1
  O  O431  1  0.16787270  0.50358803  0.80387711  1
  O  O432  1  0.67077469  0.01255352  0.13315878  1
  O  O433  1  0.66245267  0.00688724  0.46196719  1
  O  O434  1  0.66225069  0.00762900  0.81094927  1
  O  O435  1  0.66286668  0.50275908  0.13600963  1
  O  O436  1  0.66856089  0.50880179  0.47050458  1
  O  O437  1  0.66917881  0.50846662  0.80382690  1
  O  O438  1  0.01316382  0.17600370  0.30586841  1
  O  O439  1  0.00577433  0.16544748  0.63068456  1
  O  O440  1  -0.00041949  0.16168244  0.97440386  1
  O  O441  1  0.00415338  0.66595922  0.30055533  1
  O  O442  1  0.00438476  0.65090537  0.63877074  1
  O  O443  1  0.00730059  0.66087726  0.96845887  1
  O  O444  1  0.50991982  0.16446153  0.30090626  1
  O  O445  1  0.50583471  0.17197395  0.63466712  1
  O  O446  1  0.50525636  0.16610793  0.96977299  1
  O  O447  1  0.50775508  0.66679703  0.30056876  1
  O  O448  1  0.51389355  0.67248618  0.63812147  1
  O  O449  1  0.50341985  0.66351387  0.96971589  1
  O  O450  1  0.32692601  0.48858765  0.19521961  1
  O  O451  1  0.35403167  0.49512945  0.52104024  1
  O  O452  1  0.33087189  0.48967011  0.86677460  1
  O  O453  1  0.33805068  0.99282641  0.19625012  1
  O  O454  1  0.33661192  0.99549531  0.53092747  1
  O  O455  1  0.33464079  0.98856961  0.86131706  1
  O  O456  1  0.83063245  0.49247374  0.19712152  1
  O  O457  1  0.83078198  0.49270262  0.52990410  1
  O  O458  1  0.83512348  0.48809544  0.86388680  1
  O  O459  1  0.83570739  0.99318479  0.20475982  1
  O  O460  1  0.82901538  0.98711306  0.53043774  1
  O  O461  1  0.84236777  0.99407529  0.85923534  1
