# generated using pymatgen
data_Na31Fe20(SO4)36
_symmetry_space_group_name_H-M   'P 1'
_cell_length_a   18.08451146
_cell_length_b   18.08571385
_cell_length_c   19.71935168
_cell_angle_alpha   107.56347708
_cell_angle_beta   107.57277091
_cell_angle_gamma   90.76892646
_symmetry_Int_Tables_number   1
_chemical_formula_structural   Na31Fe20(SO4)36
_chemical_formula_sum   'Na62 Fe40 S72 O288'
_cell_volume   5823.13153356
_cell_formula_units_Z   2
loop_
 _symmetry_equiv_pos_site_id
 _symmetry_equiv_pos_as_xyz
  1  'x, y, z'
loop_
 _atom_site_type_symbol
 _atom_site_label
 _atom_site_symmetry_multiplicity
 _atom_site_fract_x
 _atom_site_fract_y
 _atom_site_fract_z
 _atom_site_occupancy
  Na  Na0  1  0.12993820  0.37330794  0.08305464  1
  Na  Na1  1  0.13612459  0.37486414  0.41548363  1
  Na  Na2  1  0.12854314  0.37202910  0.75091697  1
  Na  Na3  1  0.13346066  0.86572287  0.09025002  1
  Na  Na4  1  0.12596290  0.85809801  0.40836513  1
  Na  Na5  1  0.13380532  0.86258855  0.75147744  1
  Na  Na6  1  0.67210859  0.37444836  0.11703899  1
  Na  Na7  1  0.62641329  0.35453111  0.40150976  1
  Na  Na8  1  0.63427725  0.36341672  0.75276080  1
  Na  Na9  1  0.63591683  0.86846537  0.08208025  1
  Na  Na10  1  0.62773005  0.85178650  0.40643281  1
  Na  Na11  1  0.65445591  0.86389075  0.75698829  1
  Na  Na12  1  0.37549689  0.12933458  0.24909316  1
  Na  Na13  1  0.36599607  0.13026756  0.58078195  1
  Na  Na14  1  0.37316168  0.12979354  0.91741713  1
  Na  Na15  1  0.37421080  0.64552090  0.26111895  1
  Na  Na16  1  0.35380536  0.62898104  0.56935004  1
  Na  Na17  1  0.36951524  0.63410337  0.91973748  1
  Na  Na18  1  0.86934421  0.13417192  0.24981495  1
  Na  Na19  1  0.85902951  0.13185768  0.57601106  1
  Na  Na20  1  0.86935692  0.13078392  0.92202811  1
  Na  Na21  1  0.85377795  0.62278857  0.24019349  1
  Na  Na22  1  0.86882383  0.66841882  0.61792923  1
  Na  Na23  1  0.85243248  0.65679381  0.92711263  1
  Na  Na24  1  0.50679347  -0.01831314  0.77316916  1
  Na  Na25  1  0.99442751  0.00380874  0.74671300  1
  Na  Na26  1  0.49330035  0.56563858  0.10628854  1
  Na  Na27  1  0.48814651  0.50894296  0.75817888  1
  Na  Na28  1  0.49085473  0.53208703  0.40855987  1
  Na  Na29  1  0.50846916  -0.00985870  0.40331182  1
  Na  Na30  1  0.97285446  0.51463912  0.40582411  1
  Na  Na31  1  0.95929675  0.00202417  0.08188861  1
  Na  Na32  1  0.50517249  0.05529945  0.09977132  1
  Na  Na33  1  0.61442004  0.50721204  0.98834730  1
  Na  Na34  1  0.51950087  0.49661314  0.57775166  1
  Na  Na35  1  -0.02321048  0.51773662  0.92487437  1
  Na  Na36  1  0.51971970  0.48942600  0.24013861  1
  Na  Na37  1  0.00057242  0.95480687  0.89980611  1
  Na  Na38  1  0.02516236  0.49198621  0.25148742  1
  Na  Na39  1  -0.01576439  0.50518177  0.59494113  1
  Na  Na40  1  0.50407440  0.95009843  0.57046245  1
  Na  Na41  1  0.00831166  0.98999041  0.56562723  1
  Na  Na42  1  0.23774864  0.74397609  0.01297845  1
  Na  Na43  1  0.25011462  0.24869672  0.00058212  1
  Na  Na44  1  0.26444764  0.75921021  0.32090551  1
  Na  Na45  1  0.25255297  0.25339334  0.33280446  1
  Na  Na46  1  0.74809112  0.24711210  0.66431509  1
  Na  Na47  1  0.25094479  0.25130648  0.66522235  1
  Na  Na48  1  0.75652696  0.26575246  0.30445303  1
  Na  Na49  1  0.73463166  0.74055085  0.32945025  1
  Na  Na50  1  0.74692003  0.24469540  0.01429606  1
  Na  Na51  1  0.24777228  0.74687897  0.66584477  1
  Na  Na52  1  0.74319243  0.74205237  0.51211475  1
  Na  Na53  1  0.25113719  0.25336149  0.49955210  1
  Na  Na54  1  0.24154256  0.74081790  0.84234632  1
  Na  Na55  1  0.74614351  0.23925842  0.83762996  1
  Na  Na56  1  0.25003236  0.24957609  0.16671978  1
  Na  Na57  1  0.24857501  0.25070116  0.83209532  1
  Na  Na58  1  0.25287964  0.74873869  0.48780279  1
  Na  Na59  1  0.77784886  0.77246142  0.82389748  1
  Na  Na60  1  0.74431131  0.74221671  0.15783597  1
  Na  Na61  1  0.75393678  0.25672098  0.48930985  1
  Fe  Fe62  1  0.46693759  0.30951533  0.79306491  1
  Fe  Fe63  1  0.95604342  0.80490048  0.44643378  1
  Fe  Fe64  1  0.46618571  0.80680226  0.79265551  1
  Fe  Fe65  1  0.46555639  0.30315432  0.44998621  1
  Fe  Fe66  1  0.46493853  0.81133208  0.12674328  1
  Fe  Fe67  1  0.96014538  0.80898466  0.12097534  1
  Fe  Fe68  1  0.96438639  0.30773957  0.44738361  1
  Fe  Fe69  1  0.96378685  0.30583605  0.11735281  1
  Fe  Fe70  1  0.47118472  0.29785597  0.12369576  1
  Fe  Fe71  1  0.96442656  0.31060361  0.78685960  1
  Fe  Fe72  1  0.19087635  0.53849185  0.04927960  1
  Fe  Fe73  1  0.19400958  0.03437705  0.71300335  1
  Fe  Fe74  1  0.19293078  0.03193530  0.04517114  1
  Fe  Fe75  1  0.69944946  0.03012879  0.04256971  1
  Fe  Fe76  1  0.69205357  0.53589955  0.71590817  1
  Fe  Fe77  1  0.68799799  0.03781217  0.37330264  1
  Fe  Fe78  1  0.69428394  0.03243366  0.71335166  1
  Fe  Fe79  1  0.19068085  0.53594904  0.71459099  1
  Fe  Fe80  1  0.18724198  0.03316356  0.37782706  1
  Fe  Fe81  1  0.70076725  0.52824014  0.37158729  1
  Fe  Fe82  1  0.03430503  0.19438571  0.87996135  1
  Fe  Fe83  1  0.03468837  0.19143645  0.21263680  1
  Fe  Fe84  1  0.03185777  0.69522950  0.54815991  1
  Fe  Fe85  1  0.03271985  0.68899921  0.21300238  1
  Fe  Fe86  1  0.03284734  0.19051981  0.54265158  1
  Fe  Fe87  1  0.53390179  0.18899885  0.54558474  1
  Fe  Fe88  1  0.53455218  0.69986954  0.54751095  1
  Fe  Fe89  1  0.03005686  0.69450184  0.87891912  1
  Fe  Fe90  1  0.54066388  0.69391246  0.88581914  1
  Fe  Fe91  1  0.53572896  0.19058790  0.87994281  1
  Fe  Fe92  1  0.80605563  0.46893021  0.95820821  1
  Fe  Fe93  1  0.81013367  0.96246343  0.61690485  1
  Fe  Fe94  1  0.31049434  0.96274894  0.95367995  1
  Fe  Fe95  1  0.30222337  0.96298025  0.28310634  1
  Fe  Fe96  1  0.29897374  0.47106400  0.29185680  1
  Fe  Fe97  1  0.30157857  0.46709399  0.61863069  1
  Fe  Fe98  1  0.31035749  0.46801713  0.95862319  1
  Fe  Fe99  1  0.80648133  0.96290351  0.28331798  1
  Fe  Fe100  1  0.80664882  0.46615456  0.62193402  1
  Fe  Fe101  1  0.30769125  0.96430326  0.61768635  1
  S  S102  1  0.35674224  0.13906117  0.07972323  1
  S  S103  1  0.35627604  0.13953787  0.41591929  1
  S  S104  1  0.35938743  0.14034778  0.74988541  1
  S  S105  1  0.35170663  0.64626868  0.08256010  1
  S  S106  1  0.35991561  0.64028997  0.42090134  1
  S  S107  1  0.36142887  0.63960848  0.75223551  1
  S  S108  1  0.86158862  0.13689305  0.08118667  1
  S  S109  1  0.85910443  0.14104418  0.41560605  1
  S  S110  1  0.86083246  0.14092209  0.74553374  1
  S  S111  1  0.86067464  0.64008808  0.08055333  1
  S  S112  1  0.85680588  0.64425985  0.42447632  1
  S  S113  1  0.86063370  0.63546173  0.75430386  1
  S  S114  1  0.14017811  0.35409508  0.24501211  1
  S  S115  1  0.13748346  0.35929792  0.58469580  1
  S  S116  1  0.14149102  0.36053180  0.91661717  1
  S  S117  1  0.13615454  0.85850842  0.25270987  1
  S  S118  1  0.13993588  0.86075307  0.57978281  1
  S  S119  1  0.14467348  0.85912548  0.91579731  1
  S  S120  1  0.63583347  0.35796105  0.25278049  1
  S  S121  1  0.63893901  0.35969594  0.58287230  1
  S  S122  1  0.64658841  0.34694713  0.91519782  1
  S  S123  1  0.63648804  0.86159063  0.24995401  1
  S  S124  1  0.64192615  0.85978684  0.58233235  1
  S  S125  1  0.64059717  0.86005427  0.91287770  1
  S  S126  1  0.06821538  0.16654378  0.03873160  1
  S  S127  1  0.07107914  0.17527068  0.37845945  1
  S  S128  1  0.06668244  0.16770140  0.70638829  1
  S  S129  1  0.06582658  0.67209422  0.04136704  1
  S  S130  1  0.05690336  0.66699287  0.37719197  1
  S  S131  1  0.07023827  0.67049484  0.71125052  1
  S  S132  1  0.57404237  0.17123928  0.03959863  1
  S  S133  1  0.56410939  0.16933704  0.37898867  1
  S  S134  1  0.56541784  0.16663576  0.70712506  1
  S  S135  1  0.55996817  0.68151036  0.04761136  1
  S  S136  1  0.57327784  0.66050180  0.37483536  1
  S  S137  1  0.56789384  0.67046047  0.71013857  1
  S  S138  1  0.32793056  0.43287471  0.12536826  1
  S  S139  1  0.33304453  0.42719299  0.46230084  1
  S  S140  1  0.32823649  0.43178280  0.79126892  1
  S  S141  1  0.32684344  0.93220642  0.12222622  1
  S  S142  1  0.32798280  0.93662136  0.45460800  1
  S  S143  1  0.32704097  0.93143795  0.78839839  1
  S  S144  1  0.84674276  0.43230524  0.12592206  1
  S  S145  1  0.82988015  0.43279897  0.45873107  1
  S  S146  1  0.82466889  0.42764470  0.78971451  1
  S  S147  1  0.82669605  0.93321824  0.12648973  1
  S  S148  1  0.82377633  0.93247505  0.45284369  1
  S  S149  1  0.83695944  0.94335142  0.78620335  1
  S  S150  1  0.42443335  0.33606314  0.29325973  1
  S  S151  1  0.43159056  0.33013548  0.62767061  1
  S  S152  1  0.42960426  0.32403632  0.95762579  1
  S  S153  1  0.43072059  0.83671235  0.29063307  1
  S  S154  1  0.43193347  0.82997172  0.62809570  1
  S  S155  1  0.42943092  0.82817592  0.95954360  1
  S  S156  1  0.94306407  0.33208115  0.29175816  1
  S  S157  1  0.93086684  0.32780774  0.62182970  1
  S  S158  1  0.93265877  0.32822302  0.95271548  1
  S  S159  1  0.92553998  0.82376320  0.28753888  1
  S  S160  1  0.94151380  0.84112699  0.62209981  1
  S  S161  1  0.94199864  0.83314279  0.96114136  1
  S  S162  1  0.17124782  0.06830132  0.20759251  1
  S  S163  1  0.16985379  0.06756248  0.54352012  1
  S  S164  1  0.16842275  0.06720138  0.87304079  1
  S  S165  1  0.17098884  0.56860766  0.21024265  1
  S  S166  1  0.16360871  0.56524073  0.54398793  1
  S  S167  1  0.17041400  0.56888308  0.87859395  1
  S  S168  1  0.67848515  0.07108390  0.21034170  1
  S  S169  1  0.66787257  0.06533123  0.54012628  1
  S  S170  1  0.67270648  0.06749415  0.87633560  1
  S  S171  1  0.67023509  0.56249781  0.20967785  1
  S  S172  1  0.67402941  0.56706252  0.54188790  1
  S  S173  1  0.66650269  0.56295456  0.87081556  1
  O  O174  1  0.36826178  0.21753368  0.07086914  1
  O  O175  1  0.36751804  0.21950002  0.41001683  1
  O  O176  1  0.36870879  0.22108105  0.74531687  1
  O  O177  1  0.36544744  0.72491789  0.07386039  1
  O  O178  1  0.36616282  0.71611247  0.40957068  1
  O  O179  1  0.36967144  0.71901348  0.74493479  1
  O  O180  1  0.87088274  0.21667038  0.07428398  1
  O  O181  1  0.86718720  0.22124979  0.40916049  1
  O  O182  1  0.87125566  0.21972056  0.73701385  1
  O  O183  1  0.87241463  0.71880183  0.07143680  1
  O  O184  1  0.85607646  0.72525580  0.41923758  1
  O  O185  1  0.86937882  0.71247783  0.74668468  1
  O  O186  1  0.27464813  0.13229366  0.08233008  1
  O  O187  1  0.27715857  0.13317621  0.42463704  1
  O  O188  1  0.28007977  0.13165588  0.75827077  1
  O  O189  1  0.26781728  0.63761284  0.07668723  1
  O  O190  1  0.28797152  0.62593736  0.43704135  1
  O  O191  1  0.28423986  0.63077933  0.76378571  1
  O  O192  1  0.77993288  0.12692142  0.08444888  1
  O  O193  1  0.78050268  0.13098233  0.42504137  1
  O  O194  1  0.78074351  0.13360966  0.75148373  1
  O  O195  1  0.78387451  0.62955439  0.08837950  1
  O  O196  1  0.77606542  0.62603909  0.42836859  1
  O  O197  1  0.78068592  0.62318314  0.76125968  1
  O  O198  1  0.13607040  0.27227748  0.24953980  1
  O  O199  1  0.12879598  0.27945406  0.59172927  1
  O  O200  1  0.13279367  0.28085086  0.92421091  1
  O  O201  1  0.12758827  0.78111305  0.26463990  1
  O  O202  1  0.13035501  0.78192776  0.58773737  1
  O  O203  1  0.13784177  0.77804944  0.91927977  1
  O  O204  1  0.61885537  0.28781272  0.26982204  1
  O  O205  1  0.62871726  0.28306830  0.59503803  1
  O  O206  1  0.63953036  0.26099882  0.90423499  1
  O  O207  1  0.62561527  0.78747981  0.26248441  1
  O  O208  1  0.63240160  0.78149585  0.59123344  1
  O  O209  1  0.62662404  0.78420811  0.92488525  1
  O  O210  1  0.21978129  0.36758680  0.23906949  1
  O  O211  1  0.21816628  0.36841540  0.57958609  1
  O  O212  1  0.22110130  0.36928779  0.90948705  1
  O  O213  1  0.21495052  0.86777405  0.24486821  1
  O  O214  1  0.21897578  0.86857292  0.57106881  1
  O  O215  1  0.22514234  0.87053917  0.90940326  1
  O  O216  1  0.71183124  0.36179730  0.24165785  1
  O  O217  1  0.71881532  0.36705607  0.57655399  1
  O  O218  1  0.72180266  0.36453630  0.90328640  1
  O  O219  1  0.71400236  0.86909013  0.23777892  1
  O  O220  1  0.72257272  0.86890392  0.57739061  1
  O  O221  1  0.71211913  0.86482666  0.89465152  1
  O  O222  1  0.41257318  0.13020987  0.14675695  1
  O  O223  1  0.41498013  0.13110632  0.48381653  1
  O  O224  1  0.41821100  0.12924897  0.81600575  1
  O  O225  1  0.40288912  0.63792149  0.15205546  1
  O  O226  1  0.42694091  0.63197037  0.48620144  1
  O  O227  1  0.42327182  0.62913186  0.81732459  1
  O  O228  1  0.91778914  0.13222168  0.15310033  1
  O  O229  1  0.91800936  0.13516373  0.48522837  1
  O  O230  1  0.91907431  0.13321198  0.81395236  1
  O  O231  1  0.92179055  0.63268862  0.14810078  1
  O  O232  1  0.91315270  0.64135919  0.49693200  1
  O  O233  1  0.91797202  0.62588170  0.82285841  1
  O  O234  1  0.36522668  0.07958773  0.01122330  1
  O  O235  1  0.36220618  0.08147417  0.34715612  1
  O  O236  1  0.36479386  0.08347728  0.68001157  1
  O  O237  1  0.36667707  0.58569890  0.01712954  1
  O  O238  1  0.36757096  0.57803864  0.35244673  1
  O  O239  1  0.36628136  0.58094096  0.68230057  1
  O  O240  1  0.87491386  0.07846140  0.01800643  1
  O  O241  1  0.86799768  0.08297897  0.34894035  1
  O  O242  1  0.87010397  0.08180431  0.67812823  1
  O  O243  1  0.86957069  0.58205317  0.01102642  1
  O  O244  1  0.87346896  0.59000282  0.36097042  1
  O  O245  1  0.86925398  0.57486267  0.68616088  1
  O  O246  1  0.08243148  0.35797750  0.17407740  1
  O  O247  1  0.08033788  0.36761293  0.51655194  1
  O  O248  1  0.08297594  0.36587816  0.84714380  1
  O  O249  1  0.07698193  0.86416951  0.18431039  1
  O  O250  1  0.08066442  0.87164053  0.51345560  1
  O  O251  1  0.08705580  0.87198160  0.85153398  1
  O  O252  1  0.57442846  0.36895346  0.18598137  1
  O  O253  1  0.58111160  0.36557650  0.51308361  1
  O  O254  1  0.58290280  0.36523301  0.85477716  1
  O  O255  1  0.57597507  0.86867288  0.18035624  1
  O  O256  1  0.58496565  0.86888896  0.51535550  1
  O  O257  1  0.57404292  0.87177222  0.85038103  1
  O  O258  1  0.12726262  0.40995780  0.30990497  1
  O  O259  1  0.12906841  0.41733681  0.65275812  1
  O  O260  1  0.13251769  0.41925683  0.98354893  1
  O  O261  1  0.12841615  0.91927177  0.31998254  1
  O  O262  1  0.13408739  0.92013954  0.64895776  1
  O  O263  1  0.13880867  0.91481638  0.98726733  1
  O  O264  1  0.63122275  0.42717321  0.31972910  1
  O  O265  1  0.62828071  0.42200567  0.64775969  1
  O  O266  1  0.64362554  0.38976673  0.98968699  1
  O  O267  1  0.63061886  0.92656743  0.31585435  1
  O  O268  1  0.63216982  0.91895876  0.65106144  1
  O  O269  1  0.64072024  0.92194508  0.98484671  1
  O  O270  1  0.03107155  0.19354491  0.09899483  1
  O  O271  1  0.03131963  0.20515791  0.43752410  1
  O  O272  1  0.03327684  0.19818030  0.76904206  1
  O  O273  1  0.03461327  0.70114346  0.10551218  1
  O  O274  1  0.01921047  0.70413043  0.43770534  1
  O  O275  1  0.03863476  0.69311967  0.77355525  1
  O  O276  1  0.53497091  0.19501157  0.09779674  1
  O  O277  1  0.52992810  0.20156676  0.44421191  1
  O  O278  1  0.52626102  0.19601799  0.76576591  1
  O  O279  1  0.51620329  0.71411058  0.10178552  1
  O  O280  1  0.54699948  0.67807486  0.44164227  1
  O  O281  1  0.52989856  0.69787929  0.77037509  1
  O  O282  1  0.29848966  0.47265901  0.06568850  1
  O  O283  1  0.30498311  0.45590337  0.39800188  1
  O  O284  1  0.29778888  0.46879901  0.73064757  1
  O  O285  1  0.30092301  0.97266921  0.06320390  1
  O  O286  1  0.29016265  0.97411636  0.39528716  1
  O  O287  1  0.29927457  0.96959136  0.72783454  1
  O  O288  1  0.81991728  0.45837691  0.05865770  1
  O  O289  1  0.79858521  0.46995358  0.39984970  1
  O  O290  1  0.79365040  0.46196170  0.72758243  1
  O  O291  1  0.79626023  0.97147312  0.06714775  1
  O  O292  1  0.79652939  0.97075359  0.39343775  1
  O  O293  1  0.79557913  0.97529772  0.72099320  1
  O  O294  1  0.45108067  0.31141089  0.22745770  1
  O  O295  1  0.46728136  0.30085669  0.56664004  1
  O  O296  1  0.47042410  0.29616507  0.89855914  1
  O  O297  1  0.45479725  0.81230783  0.22124237  1
  O  O298  1  0.46887749  0.80280463  0.56921067  1
  O  O299  1  0.46816501  0.79754107  0.90050028  1
  O  O300  1  0.97697917  0.29354930  0.22929771  1
  O  O301  1  0.96818089  0.29882959  0.56153910  1
  O  O302  1  0.97038292  0.29675188  0.89134405  1
  O  O303  1  0.96482728  0.79512838  0.22866934  1
  O  O304  1  0.97202615  0.80429580  0.55689557  1
  O  O305  1  0.98093876  0.79791850  0.90404158  1
  O  O306  1  0.19830540  0.03110872  0.26837455  1
  O  O307  1  0.20210657  0.03200997  0.60525301  1
  O  O308  1  0.19622869  0.03081168  0.93351913  1
  O  O309  1  0.19817895  0.52818629  0.26695257  1
  O  O310  1  0.19742945  0.53267760  0.60969730  1
  O  O311  1  0.19956246  0.52707291  0.93540554  1
  O  O312  1  0.70856627  0.02868126  0.26761895  1
  O  O313  1  0.70002492  0.03088256  0.60185768  1
  O  O314  1  0.69403928  0.03377062  0.93820155  1
  O  O315  1  0.70778603  0.53183402  0.27498959  1
  O  O316  1  0.70167695  0.52736508  0.60141994  1
  O  O317  1  0.69905691  0.52624677  0.92994126  1
  O  O318  1  0.08653133  0.08469301  0.03063276  1
  O  O319  1  0.09529097  0.09841236  0.38125307  1
  O  O320  1  0.08262896  0.08469402  0.69979842  1
  O  O321  1  0.08610422  0.59066912  0.03451887  1
  O  O322  1  0.06550889  0.58592714  0.37534784  1
  O  O323  1  0.08676174  0.58662348  0.69573798  1
  O  O324  1  0.60184809  0.09269412  0.03948306  1
  O  O325  1  0.58486694  0.08948722  0.38003284  1
  O  O326  1  0.58415293  0.08541284  0.70182146  1
  O  O327  1  0.57801096  0.60532749  0.05603725  1
  O  O328  1  0.59941115  0.57774207  0.36378946  1
  O  O329  1  0.58186074  0.58633450  0.70219029  1
  O  O330  1  0.40829790  0.41348078  0.12871914  1
  O  O331  1  0.41685755  0.41082411  0.47493504  1
  O  O332  1  0.40897829  0.41332872  0.79349382  1
  O  O333  1  0.40554447  0.90768665  0.12244174  1
  O  O334  1  0.40893009  0.92800531  0.45701791  1
  O  O335  1  0.40765061  0.91204856  0.79333269  1
  O  O336  1  0.93086957  0.41408723  0.13618513  1
  O  O337  1  0.91197603  0.41584485  0.46057274  1
  O  O338  1  0.90726803  0.41252341  0.79682555  1
  O  O339  1  0.90578665  0.91239086  0.12408548  1
  O  O340  1  0.90493108  0.91253870  0.45824302  1
  O  O341  1  0.91559842  0.93007513  0.78012376  1
  O  O342  1  0.40768860  0.41964803  0.30761381  1
  O  O343  1  0.41288824  0.41199689  0.63442856  1
  O  O344  1  0.40905177  0.40396416  0.96065283  1
  O  O345  1  0.40412913  0.91709402  0.29813527  1
  O  O346  1  0.41533319  0.91369053  0.63447424  1
  O  O347  1  0.41300769  0.90934993  0.96341757  1
  O  O348  1  0.93587287  0.41335285  0.29500921  1
  O  O349  1  0.91258383  0.40878908  0.62663184  1
  O  O350  1  0.91368768  0.40765282  0.95303471  1
  O  O351  1  0.90395122  0.90254063  0.29001466  1
  O  O352  1  0.92356607  0.92267559  0.62007112  1
  O  O353  1  0.93369660  0.91509583  0.96446762  1
  O  O354  1  0.09048508  0.08833884  0.20097550  1
  O  O355  1  0.08949516  0.08636227  0.54303233  1
  O  O356  1  0.08650909  0.08614002  0.86577064  1
  O  O357  1  0.09075516  0.58889655  0.20959406  1
  O  O358  1  0.08219472  0.58475673  0.54197994  1
  O  O359  1  0.09194415  0.59117720  0.87832713  1
  O  O360  1  0.60033150  0.08899121  0.20931999  1
  O  O361  1  0.58546096  0.08112369  0.53566139  1
  O  O362  1  0.59072377  0.08837567  0.86309328  1
  O  O363  1  0.58949555  0.57548565  0.20965792  1
  O  O364  1  0.59043284  0.57973544  0.53553038  1
  O  O365  1  0.58552627  0.58209774  0.87175284  1
  O  O366  1  0.13890397  0.22015259  0.05570931  1
  O  O367  1  0.13934933  0.23156560  0.39422379  1
  O  O368  1  0.13900084  0.21790837  0.72138806  1
  O  O369  1  0.13247986  0.72592221  0.05125773  1
  O  O370  1  0.13114520  0.71564392  0.39575265  1
  O  O371  1  0.14279367  0.72157256  0.72683031  1
  O  O372  1  0.63840906  0.22858770  0.05095878  1
  O  O373  1  0.63556161  0.22155319  0.39673521  1
  O  O374  1  0.63670201  0.21974534  0.72456852  1
  O  O375  1  0.62979050  0.73388637  0.06269614  1
  O  O376  1  0.64170796  0.71642814  0.39034369  1
  O  O377  1  0.64035295  0.72022043  0.72859340  1
  O  O378  1  0.27339957  0.36155264  0.10486965  1
  O  O379  1  0.28266428  0.35602304  0.45080975  1
  O  O380  1  0.27552754  0.36025472  0.77429863  1
  O  O381  1  0.27015956  0.86518888  0.10533714  1
  O  O382  1  0.27966866  0.86252517  0.43803280  1
  O  O383  1  0.27357387  0.86062627  0.77009489  1
  O  O384  1  0.79770143  0.35958286  0.11179699  1
  O  O385  1  0.77930581  0.36048100  0.44263959  1
  O  O386  1  0.77433214  0.35487395  0.77299306  1
  O  O387  1  0.77462282  0.86471439  0.11507143  1
  O  O388  1  0.77017668  0.86292862  0.43693719  1
  O  O389  1  0.78957540  0.87074369  0.77348760  1
  O  O390  1  0.35453935  0.28342106  0.28136930  1
  O  O391  1  0.36034524  0.27741162  0.61173615  1
  O  O392  1  0.35815442  0.26892840  0.93543801  1
  O  O393  1  0.36660596  0.78045563  0.28140616  1
  O  O394  1  0.35894067  0.77988417  0.61170190  1
  O  O395  1  0.35812037  0.77565123  0.94168966  1
  O  O396  1  0.87055113  0.28499888  0.27928139  1
  O  O397  1  0.85914504  0.27531646  0.60445046  1
  O  O398  1  0.86271511  0.27437074  0.93629643  1
  O  O399  1  0.85692978  0.76849251  0.27245974  1
  O  O400  1  0.86939201  0.79404467  0.61097358  1
  O  O401  1  0.86635039  0.78734197  0.94240400  1
  O  O402  1  0.22654856  0.13759193  0.22446135  1
  O  O403  1  0.22149924  0.13922327  0.55892011  1
  O  O404  1  0.22122827  0.13788112  0.88882516  1
  O  O405  1  0.22449512  0.63792419  0.22534394  1
  O  O406  1  0.21496895  0.63742786  0.56053216  1
  O  O407  1  0.22677053  0.63782002  0.89640382  1
  O  O408  1  0.73468873  0.13934177  0.22869714  1
  O  O409  1  0.71753351  0.13850342  0.55572867  1
  O  O410  1  0.72874663  0.13605951  0.89313974  1
  O  O411  1  0.71782379  0.63679752  0.22427072  1
  O  O412  1  0.72405305  0.64001608  0.56284651  1
  O  O413  1  0.71551841  0.63221473  0.87990737  1
  O  O414  1  0.48545085  0.32417760  0.02976365  1
  O  O415  1  0.48780891  0.33379801  0.36229900  1
  O  O416  1  0.49104647  0.33222412  0.70046542  1
  O  O417  1  0.48646219  0.83036747  0.03347288  1
  O  O418  1  0.49887638  0.84599129  0.35649907  1
  O  O419  1  0.48961738  0.83446213  0.70261534  1
  O  O420  1  0.99189415  0.32953374  0.02420559  1
  O  O421  1  1.00165791  0.33097836  0.36483163  1
  O  O422  1  0.98906500  0.32888451  0.69465106  1
  O  O423  1  0.99505292  0.83328601  0.03685376  1
  O  O424  1  0.98542245  0.82901196  0.36129411  1
  O  O425  1  1.00395781  0.84890335  0.69166800  1
  O  O426  1  0.16929046  0.00834264  0.13557839  1
  O  O427  1  0.16595487  0.00837697  0.47153298  1
  O  O428  1  0.16549520  0.00764245  0.80007765  1
  O  O429  1  0.16373959  0.51110191  0.13417263  1
  O  O430  1  0.16135641  0.50472485  0.47545948  1
  O  O431  1  0.16519282  0.51185461  0.80350918  1
  O  O432  1  0.67562373  0.01399626  0.13410544  1
  O  O433  1  0.66551026  0.00714714  0.46749271  1
  O  O434  1  0.67102240  0.00622953  0.80457843  1
  O  O435  1  0.66956479  0.50420647  0.13913693  1
  O  O436  1  0.67567365  0.51069778  0.46896341  1
  O  O437  1  0.65496985  0.50148481  0.79553375  1
  O  O438  1  0.01249390  0.16692463  0.30438483  1
  O  O439  1  0.00692176  0.16653077  0.63481924  1
  O  O440  1  0.00911644  0.16651710  0.96657112  1
  O  O441  1  0.00197959  0.66806810  0.30358925  1
  O  O442  1  0.00962558  0.67500477  0.64159067  1
  O  O443  1  0.00171164  0.66499642  0.96944011  1
  O  O444  1  0.50404004  0.16609685  0.31022021  1
  O  O445  1  0.50740823  0.16547415  0.63393451  1
  O  O446  1  0.51221176  0.15908673  0.96460125  1
  O  O447  1  0.50851011  0.65580766  0.30812431  1
  O  O448  1  0.50992019  0.66942267  0.63722754  1
  O  O449  1  0.50586621  0.66947733  0.96930735  1
  O  O450  1  0.32935503  0.48986831  0.19820843  1
  O  O451  1  0.33215040  0.48964637  0.53258714  1
  O  O452  1  0.33073774  0.48972280  0.86407804  1
  O  O453  1  0.33283945  0.99164874  0.19529086  1
  O  O454  1  0.32809100  0.99225055  0.52928612  1
  O  O455  1  0.32781734  0.99004926  0.86033920  1
  O  O456  1  0.84681985  0.49410409  0.19308909  1
  O  O457  1  0.83762784  0.49008427  0.53416967  1
  O  O458  1  0.82505855  0.48696929  0.86127929  1
  O  O459  1  0.83707577  0.99395941  0.20079421  1
  O  O460  1  0.82787666  0.99229535  0.52613920  1
  O  O461  1  0.84246193  1.00333196  0.85688753  1
