# generated using pymatgen
data_Na31Fe20(SO4)36
_symmetry_space_group_name_H-M   'P 1'
_cell_length_a   18.07175341
_cell_length_b   18.06766170
_cell_length_c   19.69549291
_cell_angle_alpha   107.56141169
_cell_angle_beta   107.58433408
_cell_angle_gamma   90.71971327
_symmetry_Int_Tables_number   1
_chemical_formula_structural   Na31Fe20(SO4)36
_chemical_formula_sum   'Na62 Fe40 S72 O288'
_cell_volume   5806.47430237
_cell_formula_units_Z   2
loop_
 _symmetry_equiv_pos_site_id
 _symmetry_equiv_pos_as_xyz
  1  'x, y, z'
loop_
 _atom_site_type_symbol
 _atom_site_label
 _atom_site_symmetry_multiplicity
 _atom_site_fract_x
 _atom_site_fract_y
 _atom_site_fract_z
 _atom_site_occupancy
  Na  Na0  1  0.13375905  0.37180933  0.08470417  1
  Na  Na1  1  0.13812736  0.37352228  0.42771705  1
  Na  Na2  1  0.12982444  0.35759437  0.73572529  1
  Na  Na3  1  0.13591317  0.84531480  0.07194253  1
  Na  Na4  1  0.11841988  0.87536249  0.40966400  1
  Na  Na5  1  0.13636280  0.86299927  0.75330938  1
  Na  Na6  1  0.63261135  0.35858598  0.07811999  1
  Na  Na7  1  0.63789461  0.36990241  0.42287350  1
  Na  Na8  1  0.63942705  0.36317758  0.76413248  1
  Na  Na9  1  0.62988666  0.86130015  0.07606652  1
  Na  Na10  1  0.64017931  0.87054213  0.41964999  1
  Na  Na11  1  0.63394106  0.86249704  0.74441239  1
  Na  Na12  1  0.36680157  0.13491265  0.25128525  1
  Na  Na13  1  0.37117035  0.14799218  0.59787622  1
  Na  Na14  1  0.36047703  0.13254442  0.90971446  1
  Na  Na15  1  0.37045646  0.63627442  0.25383965  1
  Na  Na16  1  0.36141432  0.63171293  0.58527238  1
  Na  Na17  1  0.35104041  0.64740308  0.91645881  1
  Na  Na18  1  0.87558242  0.13064572  0.25291859  1
  Na  Na19  1  0.88118840  0.12446132  0.57602113  1
  Na  Na20  1  0.86314146  0.13962562  0.91232651  1
  Na  Na21  1  0.87281625  0.64012902  0.25614730  1
  Na  Na22  1  0.85526695  0.62902295  0.57507936  1
  Na  Na23  1  0.85894273  0.63638222  0.92384633  1
  Na  Na24  1  0.49227741  0.00761630  0.08171629  1
  Na  Na25  1  0.99507238  0.01310496  0.73259021  1
  Na  Na26  1  0.98135760  0.54944018  0.11718856  1
  Na  Na27  1  0.99150361  0.50540076  0.75336358  1
  Na  Na28  1  1.01652066  -0.04563147  0.15379407  1
  Na  Na29  1  0.45715202  0.50025627  0.73520982  1
  Na  Na30  1  0.99102505  0.52440699  0.39194024  1
  Na  Na31  1  0.50233062  0.00682248  0.42117514  1
  Na  Na32  1  0.49084162  0.51126176  0.08348788  1
  Na  Na33  1  -0.02920290  0.50430384  0.92880659  1
  Na  Na34  1  0.55059572  0.49250511  0.28180415  1
  Na  Na35  1  0.01607710  0.48637637  0.57818954  1
  Na  Na36  1  0.53873903  0.98917481  0.26101345  1
  Na  Na37  1  0.50143432  0.99259875  0.59808340  1
  Na  Na38  1  0.50118300  0.49615860  0.57135947  1
  Na  Na39  1  0.50988456  0.46312330  0.90326876  1
  Na  Na40  1  0.00528502  0.98839698  0.92550504  1
  Na  Na41  1  0.50982813  0.99745528  0.89854991  1
  Na  Na42  1  0.23495769  0.74434287  0.33873013  1
  Na  Na43  1  0.23765055  0.73889601  0.68151660  1
  Na  Na44  1  0.75517565  0.74952598  0.33328702  1
  Na  Na45  1  0.25404643  0.25302283  -0.00148513  1
  Na  Na46  1  0.76329354  0.27111696  -0.02048900  1
  Na  Na47  1  0.74578202  0.23684968  0.33711018  1
  Na  Na48  1  0.75640185  0.75847722  -0.00878194  1
  Na  Na49  1  0.25707604  0.26211062  0.66157742  1
  Na  Na50  1  0.24758171  0.25190402  0.33681933  1
  Na  Na51  1  0.74603431  0.24307964  0.68003142  1
  Na  Na52  1  0.24125267  0.74455661  0.50527493  1
  Na  Na53  1  0.75508150  0.25495334  0.16088798  1
  Na  Na54  1  0.76136416  0.75964212  0.81960583  1
  Na  Na55  1  0.77004290  0.76052413  0.15809616  1
  Na  Na56  1  0.23968162  0.74176948  0.17018189  1
  Na  Na57  1  0.24915489  0.24748044  0.16713734  1
  Na  Na58  1  0.26387110  0.25958534  0.82419915  1
  Na  Na59  1  0.74209467  0.23645413  0.50603030  1
  Na  Na60  1  0.73644953  0.73482205  0.50950242  1
  Na  Na61  1  0.25562462  0.26329239  0.50426766  1
  Fe  Fe62  1  0.46624212  0.80632491  0.11595510  1
  Fe  Fe63  1  0.97075100  0.29637298  0.45565047  1
  Fe  Fe64  1  0.46619526  0.30664057  0.12177681  1
  Fe  Fe65  1  0.46298084  0.30921309  0.45352550  1
  Fe  Fe66  1  0.96491791  0.81217564  0.45251288  1
  Fe  Fe67  1  0.96743397  0.30863144  0.78647262  1
  Fe  Fe68  1  0.46368683  0.80449591  0.78149526  1
  Fe  Fe69  1  0.46426487  0.80841026  0.45104542  1
  Fe  Fe70  1  0.96304987  0.80548632  0.78500600  1
  Fe  Fe71  1  0.96434763  0.31696683  0.12268440  1
  Fe  Fe72  1  0.69240245  0.52607275  0.03934417  1
  Fe  Fe73  1  0.18846616  0.03804959  0.70828729  1
  Fe  Fe74  1  0.19227551  0.03395916  0.38122720  1
  Fe  Fe75  1  0.19691660  0.02943657  0.04628220  1
  Fe  Fe76  1  0.19498087  0.53552509  0.71393109  1
  Fe  Fe77  1  0.69391554  0.53310821  0.71665286  1
  Fe  Fe78  1  0.19132707  0.53478999  0.37610730  1
  Fe  Fe79  1  0.68967742  0.03860106  0.04678632  1
  Fe  Fe80  1  0.19200243  0.53673777  0.04520608  1
  Fe  Fe81  1  0.69551128  0.03735213  0.71778481  1
  Fe  Fe82  1  0.53837265  0.69167425  0.21543761  1
  Fe  Fe83  1  0.03503370  0.69234264  0.88569637  1
  Fe  Fe84  1  0.53129844  0.19751557  0.87644178  1
  Fe  Fe85  1  0.03592243  0.19191353  0.21036044  1
  Fe  Fe86  1  0.53461483  0.18962993  0.21632842  1
  Fe  Fe87  1  0.03808634  0.19329412  0.88194072  1
  Fe  Fe88  1  0.53534074  0.19378304  0.55209128  1
  Fe  Fe89  1  0.53123351  0.69175548  0.87923755  1
  Fe  Fe90  1  0.53729873  0.68774787  0.54501699  1
  Fe  Fe91  1  0.03238336  0.69665550  0.54813653  1
  Fe  Fe92  1  0.30718951  0.95878124  0.94745064  1
  Fe  Fe93  1  0.30837627  0.96561882  0.61869952  1
  Fe  Fe94  1  0.80085664  0.46629544  0.29104453  1
  Fe  Fe95  1  0.80192593  0.97024730  0.29518086  1
  Fe  Fe96  1  0.80911479  0.96789183  0.95633848  1
  Fe  Fe97  1  0.31159395  0.96668927  0.28368371  1
  Fe  Fe98  1  0.30614737  0.46756941  0.95142730  1
  Fe  Fe99  1  0.31449142  0.46554987  0.28846737  1
  Fe  Fe100  1  0.80498390  0.46557976  0.61599715  1
  Fe  Fe101  1  0.80328890  0.96521443  0.61597680  1
  S  S102  1  0.36020800  0.13710823  0.08207322  1
  S  S103  1  0.35983485  0.13890749  0.41668811  1
  S  S104  1  0.35937393  0.13789241  0.75065413  1
  S  S105  1  0.36219254  0.64157415  0.08481257  1
  S  S106  1  0.36010740  0.64237229  0.41675319  1
  S  S107  1  0.35792351  0.64341263  0.74915155  1
  S  S108  1  0.86012256  0.14377616  0.08185966  1
  S  S109  1  0.85621313  0.14282242  0.41096640  1
  S  S110  1  0.86436326  0.13828970  0.74997346  1
  S  S111  1  0.84562214  0.63767749  0.07830817  1
  S  S112  1  0.85974777  0.64193172  0.41796728  1
  S  S113  1  0.86058151  0.63913517  0.75185078  1
  S  S114  1  0.14300348  0.35890275  0.24865672  1
  S  S115  1  0.13802632  0.36361950  0.58439008  1
  S  S116  1  0.14408819  0.35927749  0.91618285  1
  S  S117  1  0.15111794  0.86046643  0.24886958  1
  S  S118  1  0.14067541  0.86158586  0.58590471  1
  S  S119  1  0.13855672  0.85822345  0.91598764  1
  S  S120  1  0.64259198  0.35048064  0.25022125  1
  S  S121  1  0.64059571  0.35985372  0.58307182  1
  S  S122  1  0.63744245  0.35712037  0.91888262  1
  S  S123  1  0.64116641  0.85508579  0.24774508  1
  S  S124  1  0.63726348  0.86175185  0.58383321  1
  S  S125  1  0.63712141  0.86097489  0.91307019  1
  S  S126  1  0.07155523  0.16858733  0.04212648  1
  S  S127  1  0.07630450  0.17610788  0.37447777  1
  S  S128  1  0.06896506  0.17289557  0.71380197  1
  S  S129  1  0.06190867  0.65772174  0.04106269  1
  S  S130  1  0.06847690  0.67700835  0.37777500  1
  S  S131  1  0.06314992  0.66807420  0.70820929  1
  S  S132  1  0.56171505  0.16681950  0.04040459  1
  S  S133  1  0.55992125  0.16903369  0.37729379  1
  S  S134  1  0.57089852  0.16751690  0.70939943  1
  S  S135  1  0.56728306  0.66680479  0.04035527  1
  S  S136  1  0.56870240  0.67621553  0.38034816  1
  S  S137  1  0.56643445  0.66858052  0.70928475  1
  S  S138  1  0.33581310  0.43455477  0.12597672  1
  S  S139  1  0.33097618  0.43636739  0.45524582  1
  S  S140  1  0.32845714  0.43864891  0.79178146  1
  S  S141  1  0.33668110  0.93370108  0.12480191  1
  S  S142  1  0.33657826  0.93644587  0.45970415  1
  S  S143  1  0.32984482  0.93033336  0.78914498  1
  S  S144  1  0.82320195  0.43146250  0.12597514  1
  S  S145  1  0.83440561  0.42442469  0.45660369  1
  S  S146  1  0.83230877  0.43587466  0.78862057  1
  S  S147  1  0.81696451  0.93276036  0.12077358  1
  S  S148  1  0.82718420  0.93168960  0.45648936  1
  S  S149  1  0.83124643  0.93477569  0.79248818  1
  S  S150  1  0.43490417  0.32887249  0.28996928  1
  S  S151  1  0.44250168  0.33421551  0.62248685  1
  S  S152  1  0.43083156  0.32982454  0.96091104  1
  S  S153  1  0.43767211  0.83235861  0.28969375  1
  S  S154  1  0.43127168  0.82683659  0.62006318  1
  S  S155  1  0.43453720  0.83368850  0.95638716  1
  S  S156  1  0.93306004  0.32835750  0.29083872  1
  S  S157  1  0.92901401  0.33258732  0.62398338  1
  S  S158  1  0.94033202  0.33014003  0.95916037  1
  S  S159  1  0.92356399  0.83678312  0.29219992  1
  S  S160  1  0.92966093  0.82866643  0.62367839  1
  S  S161  1  0.93377361  0.83245787  0.95798217  1
  S  S162  1  0.17501002  0.06879022  0.20838471  1
  S  S163  1  0.17639476  0.07157381  0.54736839  1
  S  S164  1  0.16973279  0.06434065  0.87551381  1
  S  S165  1  0.17681123  0.56581931  0.21212512  1
  S  S166  1  0.16299073  0.57179070  0.53900870  1
  S  S167  1  0.16703277  0.56561230  0.87311326  1
  S  S168  1  0.66594033  0.06098257  0.20508403  1
  S  S169  1  0.66726545  0.06521396  0.54356086  1
  S  S170  1  0.67197983  0.07050203  0.87941537  1
  S  S171  1  0.66859508  0.56273580  0.20606604  1
  S  S172  1  0.66793235  0.56358974  0.54476264  1
  S  S173  1  0.65850980  0.56502536  0.87295102  1
  O  O174  1  0.36882777  0.21738684  0.07681065  1
  O  O175  1  0.36728735  0.21732599  0.40668878  1
  O  O176  1  0.36066403  0.21426462  0.73934191  1
  O  O177  1  0.37336654  0.71981012  0.07715856  1
  O  O178  1  0.36733118  0.72086446  0.40609510  1
  O  O179  1  0.36776971  0.72321519  0.74097059  1
  O  O180  1  0.87176682  0.22309540  0.07490801  1
  O  O181  1  0.87843956  0.21627367  0.39460922  1
  O  O182  1  0.87422384  0.21714725  0.74238487  1
  O  O183  1  0.84788594  0.71659945  0.07195689  1
  O  O184  1  0.87377193  0.71947805  0.40806996  1
  O  O185  1  0.86803075  0.72009803  0.74855317  1
  O  O186  1  0.28149698  0.12803768  0.09088414  1
  O  O187  1  0.28100510  0.13051231  0.42446143  1
  O  O188  1  0.28308227  0.12314830  0.76435735  1
  O  O189  1  0.28347382  0.63203026  0.09274193  1
  O  O190  1  0.27992954  0.63296164  0.42284640  1
  O  O191  1  0.27651523  0.63479620  0.75101354  1
  O  O192  1  0.78061199  0.13555486  0.08912233  1
  O  O193  1  0.77626546  0.14780189  0.41403597  1
  O  O194  1  0.78603567  0.12933488  0.75830526  1
  O  O195  1  0.76009683  0.62197235  0.07846020  1
  O  O196  1  0.78350637  0.63515191  0.42766690  1
  O  O197  1  0.78366155  0.62869013  0.76383799  1
  O  O198  1  0.13422765  0.27794563  0.25290673  1
  O  O199  1  0.13084069  0.29086865  0.60121653  1
  O  O200  1  0.13638231  0.28045285  0.92527894  1
  O  O201  1  0.14163741  0.78237136  0.25416531  1
  O  O202  1  0.13050892  0.78358556  0.59691532  1
  O  O203  1  0.12796533  0.78118337  0.92597256  1
  O  O204  1  0.63331892  0.26796486  0.25148666  1
  O  O205  1  0.63402073  0.27841845  0.58655499  1
  O  O206  1  0.62343148  0.28281828  0.93625537  1
  O  O207  1  0.63605909  0.77330186  0.25077629  1
  O  O208  1  0.62694315  0.78269988  0.59018248  1
  O  O209  1  0.62726213  0.78314728  0.92330955  1
  O  O210  1  0.22158214  0.36779019  0.23925890  1
  O  O211  1  0.21150620  0.37502368  0.57003798  1
  O  O212  1  0.22359700  0.36826425  0.90855255  1
  O  O213  1  0.23468891  0.87264415  0.24752128  1
  O  O214  1  0.22041950  0.86814381  0.57859341  1
  O  O215  1  0.21591539  0.86856254  0.90673357  1
  O  O216  1  0.72175286  0.36118074  0.24342020  1
  O  O217  1  0.71598518  0.36928598  0.56801071  1
  O  O218  1  0.71669673  0.36331073  0.91657964  1
  O  O219  1  0.72163171  0.86989597  0.24324638  1
  O  O220  1  0.71504450  0.86977078  0.57314594  1
  O  O221  1  0.71757391  0.86976611  0.90801266  1
  O  O222  1  0.41967573  0.12669736  0.14897712  1
  O  O223  1  0.41931894  0.12960428  0.48362566  1
  O  O224  1  0.42100382  0.13418944  0.81987394  1
  O  O225  1  0.42150219  0.63210096  0.15290949  1
  O  O226  1  0.41742102  0.63766343  0.48691775  1
  O  O227  1  0.41255025  0.64036968  0.82232392  1
  O  O228  1  0.91837374  0.13535905  0.15019076  1
  O  O229  1  0.91215349  0.13327231  0.47673383  1
  O  O230  1  0.92401805  0.12851281  0.81730380  1
  O  O231  1  0.89621977  0.63267053  0.15026810  1
  O  O232  1  0.92189055  0.63270986  0.48476765  1
  O  O233  1  0.92249841  0.62687854  0.81650556  1
  O  O234  1  0.36742155  0.07923723  0.01306746  1
  O  O235  1  0.36893304  0.07986829  0.34838440  1
  O  O236  1  0.36976326  0.07726292  0.68464924  1
  O  O237  1  0.37067035  0.58143417  0.01728865  1
  O  O238  1  0.37078512  0.58305312  0.35061384  1
  O  O239  1  0.37311411  0.58500446  0.68643155  1
  O  O240  1  0.86728113  0.08454433  0.01353454  1
  O  O241  1  0.85623555  0.07814990  0.34013322  1
  O  O242  1  0.87281933  0.07834833  0.68198637  1
  O  O243  1  0.86039795  0.57946435  0.01461976  1
  O  O244  1  0.86738485  0.58065862  0.34982730  1
  O  O245  1  0.86629386  0.58337241  0.68097194  1
  O  O246  1  0.08333628  0.36794396  0.18170552  1
  O  O247  1  0.07238270  0.36812620  0.51573556  1
  O  O248  1  0.08540609  0.36721446  0.84829796  1
  O  O249  1  0.09896830  0.87074954  0.18016611  1
  O  O250  1  0.08303813  0.86774523  0.51704044  1
  O  O251  1  0.07765001  0.86752497  0.84868906  1
  O  O252  1  0.58409140  0.36039806  0.18170203  1
  O  O253  1  0.57722333  0.37272502  0.52001664  1
  O  O254  1  0.57840466  0.36351601  0.85208414  1
  O  O255  1  0.58366375  0.86161349  0.17700369  1
  O  O256  1  0.57662799  0.87412840  0.51847125  1
  O  O257  1  0.57973742  0.86677252  0.84257707  1
  O  O258  1  0.13658807  0.41532464  0.31854643  1
  O  O259  1  0.12617138  0.42907786  0.64828491  1
  O  O260  1  0.13805354  0.41784887  0.98520466  1
  O  O261  1  0.14220222  0.92004169  0.31746647  1
  O  O262  1  0.13318591  0.92157565  0.65377874  1
  O  O263  1  0.13044642  0.91940719  0.98402130  1
  O  O264  1  0.63305876  0.40509834  0.31787013  1
  O  O265  1  0.63832300  0.41519347  0.65507880  1
  O  O266  1  0.62620187  0.42125170  0.98683560  1
  O  O267  1  0.62711760  0.90990187  0.31288140  1
  O  O268  1  0.63210934  0.92087654  0.65358538  1
  O  O269  1  0.62500679  0.92223471  0.97763770  1
  O  O270  1  0.03535237  0.19734515  0.10281034  1
  O  O271  1  0.03988644  0.20590135  0.43386420  1
  O  O272  1  0.03566225  0.20554987  0.77877430  1
  O  O273  1  0.02516989  0.66847582  0.09841885  1
  O  O274  1  0.03575008  0.70628803  0.44300361  1
  O  O275  1  0.02772691  0.69881154  0.76994591  1
  O  O276  1  0.52529580  0.19434634  0.10175444  1
  O  O277  1  0.52553444  0.20628497  0.43884305  1
  O  O278  1  0.53966267  0.19308629  0.77207832  1
  O  O279  1  0.53140704  0.69357474  0.10231003  1
  O  O280  1  0.52840409  0.70901107  0.43922161  1
  O  O281  1  0.52820912  0.69776151  0.76958038  1
  O  O282  1  0.30495543  0.47008017  0.06454937  1
  O  O283  1  0.29749156  0.46771620  0.38964375  1
  O  O284  1  0.29403650  0.47484440  0.73290488  1
  O  O285  1  0.30439173  0.96638453  0.06054571  1
  O  O286  1  0.30643576  0.97204348  0.39877799  1
  O  O287  1  0.30144965  0.96545373  0.72800556  1
  O  O288  1  0.78929798  0.46917560  0.06758887  1
  O  O289  1  0.81426922  0.46096197  0.39700472  1
  O  O290  1  0.80106643  0.46711421  0.72273697  1
  O  O291  1  0.78776530  0.97593898  0.06316849  1
  O  O292  1  0.80031117  0.97011569  0.39717379  1
  O  O293  1  0.80082420  0.96894132  0.72973034  1
  O  O294  1  0.47080331  0.29449590  0.22832567  1
  O  O295  1  0.47005656  0.28936439  0.55550751  1
  O  O296  1  0.46243856  0.29918467  0.89897208  1
  O  O297  1  0.47516444  0.80151743  0.22945157  1
  O  O298  1  0.46828404  0.79694980  0.55962045  1
  O  O299  1  0.47081879  0.80279826  0.89541218  1
  O  O300  1  0.97329271  0.30365409  0.23132185  1
  O  O301  1  0.95904179  0.30306081  0.56040909  1
  O  O302  1  0.97806383  0.29729062  0.89796707  1
  O  O303  1  0.95570420  0.82124533  0.23165244  1
  O  O304  1  0.96866272  0.80244770  0.56417716  1
  O  O305  1  0.96762621  0.79829575  0.89442426  1
  O  O306  1  0.20576900  0.03517449  0.27097570  1
  O  O307  1  0.21081911  0.03032186  0.60672091  1
  O  O308  1  0.20142161  0.02764558  0.93635824  1
  O  O309  1  0.21146122  0.52645215  0.27151122  1
  O  O310  1  0.18477798  0.54107168  0.60213014  1
  O  O311  1  0.20008212  0.53070400  0.93581294  1
  O  O312  1  0.69550982  0.02184007  0.26262761  1
  O  O313  1  0.70125508  0.03304796  0.60838503  1
  O  O314  1  0.70275792  0.03164929  0.93943563  1
  O  O315  1  0.69235597  0.51962780  0.26066648  1
  O  O316  1  0.70165887  0.53291525  0.61158161  1
  O  O317  1  0.67573812  0.52593858  0.93159054  1
  O  O318  1  0.09251794  0.08776673  0.03678823  1
  O  O319  1  0.09800429  0.09717326  0.37168131  1
  O  O320  1  0.08864133  0.09220303  0.71560524  1
  O  O321  1  0.08451773  0.57444549  0.02091745  1
  O  O322  1  0.09395828  0.59766887  0.37789750  1
  O  O323  1  0.08034528  0.58602707  0.70410262  1
  O  O324  1  0.57618699  0.08267333  0.03196919  1
  O  O325  1  0.56951303  0.08772487  0.37489078  1
  O  O326  1  0.59122524  0.08492584  0.69976415  1
  O  O327  1  0.58486566  0.58383515  0.03291011  1
  O  O328  1  0.58851022  0.59910734  0.38196102  1
  O  O329  1  0.58390730  0.58664695  0.70317802  1
  O  O330  1  0.41800017  0.41790096  0.13084955  1
  O  O331  1  0.40969832  0.41139247  0.45296154  1
  O  O332  1  0.40916380  0.42498526  0.79412191  1
  O  O333  1  0.42001417  0.91913041  0.12952218  1
  O  O334  1  0.41952415  0.91950266  0.46350185  1
  O  O335  1  0.41134330  0.91049684  0.79506103  1
  O  O336  1  0.90441625  0.41635705  0.12610867  1
  O  O337  1  0.91625956  0.40239128  0.46890125  1
  O  O338  1  0.91517797  0.41672763  0.79299435  1
  O  O339  1  0.89408464  0.91300128  0.12062213  1
  O  O340  1  0.90804077  0.91254141  0.46683391  1
  O  O341  1  0.91332220  0.91676026  0.79750869  1
  O  O342  1  0.41918042  0.40945898  0.29023229  1
  O  O343  1  0.43167905  0.41306951  0.61617988  1
  O  O344  1  0.41507275  0.41336950  0.96776368  1
  O  O345  1  0.42215011  0.91501917  0.29408048  1
  O  O346  1  0.41245453  0.90770287  0.62272558  1
  O  O347  1  0.42093671  0.91754245  0.96178079  1
  O  O348  1  0.91248831  0.40925049  0.29811041  1
  O  O349  1  0.91487491  0.41720039  0.63362940  1
  O  O350  1  0.92762125  0.41099149  0.96530971  1
  O  O351  1  0.89503873  0.91752170  0.30602743  1
  O  O352  1  0.90914693  0.90981536  0.63027988  1
  O  O353  1  0.91109615  0.91185406  0.95420366  1
  O  O354  1  0.09279193  0.08490063  0.20060074  1
  O  O355  1  0.10017077  0.09058155  0.54944175  1
  O  O356  1  0.08704210  0.07920081  0.87053153  1
  O  O357  1  0.09831564  0.58096058  0.21186759  1
  O  O358  1  0.07781324  0.58623056  0.52295114  1
  O  O359  1  0.08492385  0.58242927  0.86985200  1
  O  O360  1  0.58442514  0.08027014  0.20572726  1
  O  O361  1  0.58691702  0.08760178  0.54493777  1
  O  O362  1  0.59177340  0.08945744  0.87845235  1
  O  O363  1  0.58570803  0.58132618  0.20091396  1
  O  O364  1  0.58722975  0.58431457  0.54580284  1
  O  O365  1  0.57431163  0.58156230  0.85700473  1
  O  O366  1  0.14144548  0.22262275  0.05713490  1
  O  O367  1  0.14600925  0.23088004  0.38873177  1
  O  O368  1  0.14184740  0.22305685  0.73024405  1
  O  O369  1  0.13213946  0.71311552  0.06124132  1
  O  O370  1  0.13864418  0.73215951  0.39460704  1
  O  O371  1  0.13315040  0.71977715  0.72230271  1
  O  O372  1  0.63487960  0.21619221  0.05940144  1
  O  O373  1  0.63300035  0.21720461  0.39123773  1
  O  O374  1  0.63919218  0.21966075  0.71918101  1
  O  O375  1  0.63708407  0.71981689  0.05595336  1
  O  O376  1  0.63761825  0.73179790  0.39647181  1
  O  O377  1  0.63696782  0.72159319  0.72712338  1
  O  O378  1  0.28503184  0.36217986  0.11017830  1
  O  O379  1  0.27774775  0.36686291  0.44284188  1
  O  O380  1  0.27920528  0.36515838  0.77736053  1
  O  O381  1  0.28815585  0.86318303  0.11382998  1
  O  O382  1  0.28666479  0.86512030  0.44645094  1
  O  O383  1  0.27659416  0.86170622  0.77629441  1
  O  O384  1  0.77416965  0.35681962  0.10784415  1
  O  O385  1  0.77855813  0.35555478  0.43931009  1
  O  O386  1  0.78186203  0.36511844  0.77499423  1
  O  O387  1  0.76050689  0.86254961  0.09858411  1
  O  O388  1  0.77300044  0.86091446  0.43799839  1
  O  O389  1  0.77925300  0.86516137  0.77905616  1
  O  O390  1  0.36224186  0.27843113  0.27393076  1
  O  O391  1  0.36717818  0.28948974  0.61064228  1
  O  O392  1  0.35813508  0.28105069  0.94902883  1
  O  O393  1  0.36661794  0.78081807  0.27359304  1
  O  O394  1  0.36061205  0.77473108  0.60513398  1
  O  O395  1  0.36321879  0.78624101  0.94351398  1
  O  O396  1  0.86289626  0.27246144  0.26864218  1
  O  O397  1  0.85719412  0.28423787  0.61306120  1
  O  O398  1  0.86914838  0.27784728  0.94114213  1
  O  O399  1  0.85610901  0.77898410  0.27861561  1
  O  O400  1  0.86094253  0.77390111  0.60672503  1
  O  O401  1  0.86207427  0.78037036  0.94235429  1
  O  O402  1  0.22591979  0.14121076  0.22378602  1
  O  O403  1  0.23345876  0.14036224  0.56403018  1
  O  O404  1  0.21981413  0.13741961  0.89348382  1
  O  O405  1  0.23048675  0.63741684  0.23027419  1
  O  O406  1  0.21377625  0.64499966  0.55636632  1
  O  O407  1  0.21657797  0.63550195  0.88508732  1
  O  O408  1  0.71722805  0.13147618  0.21864894  1
  O  O409  1  0.71972766  0.13522195  0.55683849  1
  O  O410  1  0.72489105  0.14037862  0.89544064  1
  O  O411  1  0.72148663  0.63381932  0.22600087  1
  O  O412  1  0.71830301  0.63455155  0.55793705  1
  O  O413  1  0.71143152  0.63705150  0.89500699  1
  O  O414  1  0.49103106  0.33250175  0.03409322  1
  O  O415  1  0.49299558  0.33086529  0.36227692  1
  O  O416  1  0.50238530  0.33659129  0.69203472  1
  O  O417  1  0.49522468  0.83691831  0.02937275  1
  O  O418  1  0.49576040  0.83650438  0.36363692  1
  O  O419  1  0.49074987  0.83048028  0.69294912  1
  O  O420  1  0.99805996  0.32731673  0.03194576  1
  O  O421  1  0.99042530  0.32827507  0.36363255  1
  O  O422  1  0.99086358  0.33381785  0.69559799  1
  O  O423  1  0.99391851  0.84161183  0.02946586  1
  O  O424  1  0.98477495  0.83933820  0.36502223  1
  O  O425  1  0.98996961  0.83230992  0.69696511  1
  O  O426  1  0.17559936  0.00819885  0.13753245  1
  O  O427  1  0.17565707  0.01219527  0.47420475  1
  O  O428  1  0.16898220  0.00677990  0.80299887  1
  O  O429  1  0.17662055  0.50944444  0.13800102  1
  O  O430  1  0.16883401  0.51217713  0.46942759  1
  O  O431  1  0.16118998  0.50352794  0.80064256  1
  O  O432  1  0.65449193  0.00433978  0.12812240  1
  O  O433  1  0.65621395  0.00342940  0.47263422  1
  O  O434  1  0.66838538  0.01082081  0.80649367  1
  O  O435  1  0.66298703  0.50817681  0.12881964  1
  O  O436  1  0.66267846  0.50113276  0.47633675  1
  O  O437  1  0.66577855  0.50735138  0.80325843  1
  O  O438  1  0.01668243  0.17016621  0.29988880  1
  O  O439  1  0.00915355  0.16892940  0.64463431  1
  O  O440  1  0.01147577  0.16386445  0.96897715  1
  O  O441  1  0.00765131  0.67083755  0.30834877  1
  O  O442  1  0.00320054  0.66394960  0.63493223  1
  O  O443  1  0.00357330  0.66173555  0.96822635  1
  O  O444  1  0.50220904  0.16836569  0.30338929  1
  O  O445  1  0.50674825  0.16325853  0.63785498  1
  O  O446  1  0.50372560  0.16731905  0.96854907  1
  O  O447  1  0.51044543  0.67182091  0.30545241  1
  O  O448  1  0.50718536  0.66704034  0.63670062  1
  O  O449  1  0.50622726  0.66651290  0.96937146  1
  O  O450  1  0.33773281  0.49311362  0.19849530  1
  O  O451  1  0.34066385  0.49926602  0.52489562  1
  O  O452  1  0.33108593  0.49571798  0.86706154  1
  O  O453  1  0.33995937  0.99676193  0.19569872  1
  O  O454  1  0.34274637  0.99592331  0.53350482  1
  O  O455  1  0.33492120  0.99159059  0.86252482  1
  O  O456  1  0.82655548  0.48633189  0.20077735  1
  O  O457  1  0.83427056  0.48595345  0.52805936  1
  O  O458  1  0.83745630  0.49899228  0.85752934  1
  O  O459  1  0.81701514  0.98723620  0.19554885  1
  O  O460  1  0.82496232  0.99066360  0.52823357  1
  O  O461  1  0.83519564  0.99637620  0.86462374  1
