# generated using pymatgen
data_Na31Fe20(SO4)36
_symmetry_space_group_name_H-M   'P 1'
_cell_length_a   18.08182207
_cell_length_b   18.08775282
_cell_length_c   19.71490066
_cell_angle_alpha   107.58220247
_cell_angle_beta   107.57520608
_cell_angle_gamma   90.74923916
_symmetry_Int_Tables_number   1
_chemical_formula_structural   Na31Fe20(SO4)36
_chemical_formula_sum   'Na62 Fe40 S72 O288'
_cell_volume   5821.09454819
_cell_formula_units_Z   2
loop_
 _symmetry_equiv_pos_site_id
 _symmetry_equiv_pos_as_xyz
  1  'x, y, z'
loop_
 _atom_site_type_symbol
 _atom_site_label
 _atom_site_symmetry_multiplicity
 _atom_site_fract_x
 _atom_site_fract_y
 _atom_site_fract_z
 _atom_site_occupancy
  Na  Na0  1  0.13136156  0.36633883  0.08004824  1
  Na  Na1  1  0.13119210  0.36354870  0.41423097  1
  Na  Na2  1  0.12996130  0.36892973  0.75108628  1
  Na  Na3  1  0.13265907  0.86404982  0.08449882  1
  Na  Na4  1  0.12749974  0.85390426  0.39952188  1
  Na  Na5  1  0.13823478  0.87037585  0.75255600  1
  Na  Na6  1  0.62356469  0.35045972  0.06357538  1
  Na  Na7  1  0.62975250  0.37723336  0.41635962  1
  Na  Na8  1  0.63292809  0.33843776  0.74669570  1
  Na  Na9  1  0.63790837  0.85831926  0.07662750  1
  Na  Na10  1  0.63672686  0.86748801  0.42041331  1
  Na  Na11  1  0.64493164  0.86852099  0.75996769  1
  Na  Na12  1  0.37923170  0.13463832  0.25883814  1
  Na  Na13  1  0.37745310  0.14477566  0.60078389  1
  Na  Na14  1  0.36501041  0.13058120  0.90473392  1
  Na  Na15  1  0.36409032  0.63170682  0.24833068  1
  Na  Na16  1  0.37080353  0.62943532  0.58351464  1
  Na  Na17  1  0.36933091  0.63488844  0.91995548  1
  Na  Na18  1  0.86715223  0.13339971  0.24627654  1
  Na  Na19  1  0.86499784  0.12755765  0.58051949  1
  Na  Na20  1  0.84704969  0.13868958  0.90505750  1
  Na  Na21  1  0.86238630  0.64318286  0.25112179  1
  Na  Na22  1  0.84621634  0.63195815  0.57169731  1
  Na  Na23  1  0.86269456  0.62948905  0.91356225  1
  Na  Na24  1  0.49210747  0.00851664  0.09353734  1
  Na  Na25  1  0.50016011  0.02093782  0.39411186  1
  Na  Na26  1  0.98212804  0.50893794  0.42832617  1
  Na  Na27  1  0.99899286  0.00840188  0.76380509  1
  Na  Na28  1  0.99535459  0.54010961  0.08158509  1
  Na  Na29  1  0.50319604  0.07409653  0.77021151  1
  Na  Na30  1  0.49402759  0.49780308  0.10674118  1
  Na  Na31  1  0.99108789  0.01231411  0.41788564  1
  Na  Na32  1  0.51773246  0.47186694  0.74924293  1
  Na  Na33  1  0.01263890  0.98747031  0.23080490  1
  Na  Na34  1  0.51622940  0.99390789  0.91667939  1
  Na  Na35  1  0.51884253  0.46264465  0.52260400  1
  Na  Na36  1  0.05897467  1.00229138  0.60822535  1
  Na  Na37  1  0.50891970  0.99012149  0.57438665  1
  Na  Na38  1  -0.04453571  1.01752195  0.97118127  1
  Na  Na39  1  -0.05062217  0.51628992  0.64796578  1
  Na  Na40  1  0.49880399  0.44670533  0.90441126  1
  Na  Na41  1  -0.01260996  0.51812552  0.24370734  1
  Na  Na42  1  0.25405368  0.25089497  -0.00701615  1
  Na  Na43  1  0.24954605  0.75221112  0.31381780  1
  Na  Na44  1  0.74553716  0.25620390  -0.01821312  1
  Na  Na45  1  0.26312895  0.25752302  0.66098238  1
  Na  Na46  1  0.27078942  0.26317456  0.32886728  1
  Na  Na47  1  0.75594194  0.26062153  0.33315351  1
  Na  Na48  1  0.75085632  0.25254964  0.66549768  1
  Na  Na49  1  0.73929752  0.73616940  0.34086261  1
  Na  Na50  1  0.24111986  0.74228487  0.01309222  1
  Na  Na51  1  0.25831569  0.75561769  0.66227447  1
  Na  Na52  1  0.76272150  0.76339164  0.83177120  1
  Na  Na53  1  0.73123774  0.73264905  0.51153262  1
  Na  Na54  1  0.26011351  0.25647086  0.16274902  1
  Na  Na55  1  0.25878163  0.25093093  0.82197516  1
  Na  Na56  1  0.25059869  0.75475631  0.49130008  1
  Na  Na57  1  0.26518929  0.25629634  0.49167592  1
  Na  Na58  1  0.24727489  0.74907604  0.83786613  1
  Na  Na59  1  0.75953851  0.75681026  0.15453229  1
  Na  Na60  1  0.74754656  0.25194159  0.15823315  1
  Na  Na61  1  0.76197292  0.27258949  0.50306746  1
  Fe  Fe62  1  0.46324195  0.80622514  0.45124241  1
  Fe  Fe63  1  0.46728622  0.80386038  0.78572927  1
  Fe  Fe64  1  0.96937396  0.80843857  0.45330382  1
  Fe  Fe65  1  0.96834091  0.30939840  0.45848770  1
  Fe  Fe66  1  0.96103436  0.81056614  0.78852559  1
  Fe  Fe67  1  0.95873613  0.31500855  0.78829772  1
  Fe  Fe68  1  0.96496159  0.31099159  0.12140336  1
  Fe  Fe69  1  0.96562243  0.79744582  0.11662660  1
  Fe  Fe70  1  0.46802042  0.30550717  0.12160907  1
  Fe  Fe71  1  0.46439581  0.81033342  0.12195758  1
  Fe  Fe72  1  0.19241748  0.03452929  0.37922193  1
  Fe  Fe73  1  0.69648494  0.03291145  0.71757007  1
  Fe  Fe74  1  0.18902306  0.03445862  0.04519641  1
  Fe  Fe75  1  0.70215687  0.02797972  0.04268517  1
  Fe  Fe76  1  0.69764856  0.03406351  0.37911097  1
  Fe  Fe77  1  0.68727857  0.53690527  0.04431004  1
  Fe  Fe78  1  0.18806927  0.53584020  0.71118624  1
  Fe  Fe79  1  0.18724073  0.53513478  0.37911291  1
  Fe  Fe80  1  0.19176580  0.53748217  0.05053871  1
  Fe  Fe81  1  0.69716451  0.53212898  0.71030267  1
  Fe  Fe82  1  0.53500964  0.68689994  0.87899768  1
  Fe  Fe83  1  0.53958724  0.19476280  0.21485924  1
  Fe  Fe84  1  0.52919292  0.20269544  0.54306685  1
  Fe  Fe85  1  0.03906044  0.19181353  0.55347498  1
  Fe  Fe86  1  0.03586370  0.69516971  0.54955532  1
  Fe  Fe87  1  0.53481770  0.69429010  0.21672162  1
  Fe  Fe88  1  0.03076643  0.68788111  0.87691835  1
  Fe  Fe89  1  0.03486075  0.19255750  0.21339893  1
  Fe  Fe90  1  0.53554958  0.68729068  0.54333675  1
  Fe  Fe91  1  0.03446954  0.19853557  0.88254044  1
  Fe  Fe92  1  0.30433505  0.96183291  0.28050086  1
  Fe  Fe93  1  0.80470783  0.46412626  0.95116169  1
  Fe  Fe94  1  0.30455074  0.46790267  0.95310356  1
  Fe  Fe95  1  0.79814675  0.47204228  0.29066910  1
  Fe  Fe96  1  0.80806564  0.96411191  0.28190389  1
  Fe  Fe97  1  0.31190898  0.46313600  0.62189095  1
  Fe  Fe98  1  0.30419020  0.96761964  0.95121589  1
  Fe  Fe99  1  0.80821042  0.96280512  0.61872660  1
  Fe  Fe100  1  0.30481773  0.97006880  0.62569543  1
  Fe  Fe101  1  0.31152389  0.46430796  0.29118507  1
  S  S102  1  0.36041897  0.13872174  0.08519951  1
  S  S103  1  0.35982422  0.13405846  0.41392710  1
  S  S104  1  0.35574003  0.14089428  0.74739448  1
  S  S105  1  0.35952420  0.64063169  0.08579481  1
  S  S106  1  0.35504618  0.64170842  0.41620316  1
  S  S107  1  0.35843816  0.64112195  0.74902968  1
  S  S108  1  0.86171278  0.14730743  0.08491567  1
  S  S109  1  0.86346900  0.13949423  0.41753803  1
  S  S110  1  0.86108699  0.13956878  0.75104449  1
  S  S111  1  0.85673216  0.63540468  0.08516322  1
  S  S112  1  0.86171448  0.64503882  0.41765140  1
  S  S113  1  0.85580459  0.64575586  0.74988226  1
  S  S114  1  0.14075212  0.35685241  0.25217256  1
  S  S115  1  0.14371693  0.35715602  0.58546819  1
  S  S116  1  0.13854205  0.36355902  0.91541053  1
  S  S117  1  0.13710601  0.86263589  0.24811409  1
  S  S118  1  0.14378523  0.85664432  0.58274748  1
  S  S119  1  0.14037302  0.85818954  0.91499471  1
  S  S120  1  0.64271777  0.35725664  0.24554272  1
  S  S121  1  0.64666805  0.35925471  0.59134335  1
  S  S122  1  0.63837575  0.36434879  0.91655144  1
  S  S123  1  0.64131815  0.85914654  0.24986694  1
  S  S124  1  0.63843052  0.86057397  0.58184682  1
  S  S125  1  0.63662962  0.85511304  0.91736674  1
  S  S126  1  0.06779581  0.17417336  0.04428163  1
  S  S127  1  0.06756403  0.16884539  0.37648481  1
  S  S128  1  0.06203827  0.17324676  0.71594947  1
  S  S129  1  0.06690943  0.66942038  0.03943759  1
  S  S130  1  0.06249190  0.66590592  0.37534697  1
  S  S131  1  0.06517518  0.67216680  0.70938810  1
  S  S132  1  0.56240169  0.15986592  0.04027125  1
  S  S133  1  0.57761681  0.17019886  0.37659809  1
  S  S134  1  0.57718352  0.16097513  0.69856910  1
  S  S135  1  0.56366067  0.66977590  0.04417149  1
  S  S136  1  0.56479647  0.67354791  0.37831602  1
  S  S137  1  0.57136668  0.67107218  0.71137198  1
  S  S138  1  0.32694271  0.43123032  0.12458244  1
  S  S139  1  0.32244138  0.43267805  0.45396138  1
  S  S140  1  0.32967386  0.43864137  0.78829760  1
  S  S141  1  0.32987316  0.93442937  0.12190370  1
  S  S142  1  0.32386737  0.92834568  0.45595978  1
  S  S143  1  0.33271094  0.92635202  0.79306858  1
  S  S144  1  0.82511561  0.43227456  0.12472322  1
  S  S145  1  0.84198057  0.43631363  0.46226068  1
  S  S146  1  0.82376869  0.43425701  0.78944729  1
  S  S147  1  0.83342929  0.93134477  0.12645453  1
  S  S148  1  0.83405026  0.93184328  0.45672156  1
  S  S149  1  0.83719827  0.93976063  0.79251338  1
  S  S150  1  0.43525859  0.32784517  0.28911291  1
  S  S151  1  0.43425086  0.32959465  0.62079817  1
  S  S152  1  0.42407866  0.33599122  0.96047159  1
  S  S153  1  0.43222780  0.83134024  0.29197271  1
  S  S154  1  0.43090544  0.82816158  0.62154509  1
  S  S155  1  0.43009760  0.83257093  0.96027160  1
  S  S156  1  0.93401198  0.33370099  0.29237077  1
  S  S157  1  0.93233515  0.31983888  0.62093628  1
  S  S158  1  0.93187309  0.33296188  0.96235241  1
  S  S159  1  0.93171296  0.83357701  0.29121392  1
  S  S160  1  0.93470593  0.83131450  0.62379391  1
  S  S161  1  0.93564307  0.82063274  0.95436585  1
  S  S162  1  0.17173340  0.07172646  0.20964253  1
  S  S163  1  0.16919772  0.06434256  0.53883577  1
  S  S164  1  0.16808440  0.06771026  0.87842852  1
  S  S165  1  0.16681953  0.55733068  0.21016415  1
  S  S166  1  0.17016663  0.56632817  0.54354892  1
  S  S167  1  0.17489138  0.57135807  0.87685587  1
  S  S168  1  0.67775576  0.06872689  0.20942004  1
  S  S169  1  0.66945094  0.06462225  0.53874641  1
  S  S170  1  0.67140798  0.05941363  0.87973293  1
  S  S171  1  0.66977856  0.56938202  0.20794666  1
  S  S172  1  0.66524476  0.56623543  0.54411939  1
  S  S173  1  0.66992354  0.57032282  0.87333927  1
  O  O174  1  0.36838320  0.21897532  0.07956566  1
  O  O175  1  0.36488401  0.20810779  0.39959210  1
  O  O176  1  0.36305252  0.21202932  0.72696461  1
  O  O177  1  0.36932325  0.72047390  0.08002368  1
  O  O178  1  0.36142142  0.72136555  0.40804359  1
  O  O179  1  0.37005186  0.71900210  0.73893901  1
  O  O180  1  0.86587454  0.23121242  0.08644271  1
  O  O181  1  0.87263394  0.21922171  0.41111382  1
  O  O182  1  0.86609423  0.21884680  0.74358289  1
  O  O183  1  0.86789368  0.71644334  0.08393921  1
  O  O184  1  0.87620852  0.72247143  0.40695356  1
  O  O185  1  0.86337842  0.73009569  0.75546257  1
  O  O186  1  0.28224822  0.12964394  0.09484195  1
  O  O187  1  0.28160682  0.12284364  0.42434058  1
  O  O188  1  0.27775256  0.12715351  0.75304519  1
  O  O189  1  0.28112709  0.63075145  0.09389589  1
  O  O190  1  0.27619333  0.63129297  0.42461230  1
  O  O191  1  0.27848739  0.63537328  0.75568297  1
  O  O192  1  0.78374644  0.13118872  0.09273417  1
  O  O193  1  0.78591870  0.13104472  0.42803777  1
  O  O194  1  0.78625394  0.12590513  0.76406607  1
  O  O195  1  0.77519749  0.62689987  0.08929193  1
  O  O196  1  0.78552728  0.64168689  0.42850385  1
  O  O197  1  0.77581314  0.63122982  0.75707561  1
  O  O198  1  0.12973293  0.27885379  0.26232641  1
  O  O199  1  0.13562295  0.27891064  0.59569896  1
  O  O200  1  0.13096302  0.28457553  0.92508340  1
  O  O201  1  0.12956753  0.79005649  0.26406517  1
  O  O202  1  0.13589064  0.77521283  0.58690621  1
  O  O203  1  0.13678300  0.77770293  0.92045280  1
  O  O204  1  0.63808743  0.27372209  0.24688147  1
  O  O205  1  0.62350730  0.28431754  0.60269583  1
  O  O206  1  0.62381759  0.29100732  0.92927797  1
  O  O207  1  0.63203635  0.78072124  0.25924177  1
  O  O208  1  0.62797331  0.77965971  0.58278261  1
  O  O209  1  0.61783160  0.78015959  0.92944699  1
  O  O210  1  0.22198829  0.36283976  0.24819176  1
  O  O211  1  0.22406024  0.36650844  0.58021294  1
  O  O212  1  0.21616552  0.37109748  0.90351412  1
  O  O213  1  0.21575429  0.87378297  0.23934780  1
  O  O214  1  0.22367119  0.86702356  0.57687475  1
  O  O215  1  0.21828687  0.87223548  0.90535844  1
  O  O216  1  0.72260916  0.36899540  0.23821484  1
  O  O217  1  0.72875548  0.35944781  0.59576650  1
  O  O218  1  0.72194363  0.37236119  0.91739060  1
  O  O219  1  0.72012246  0.86804407  0.24155341  1
  O  O220  1  0.71463942  0.86990916  0.56777876  1
  O  O221  1  0.71180017  0.85745418  0.90587559  1
  O  O222  1  0.42113042  0.12790627  0.15117885  1
  O  O223  1  0.42016365  0.12970883  0.48295876  1
  O  O224  1  0.41677044  0.14163222  0.81692279  1
  O  O225  1  0.41945011  0.62967083  0.15209152  1
  O  O226  1  0.41437790  0.63587703  0.48466271  1
  O  O227  1  0.41572879  0.63515879  0.81876442  1
  O  O228  1  0.92149644  0.13841114  0.15313523  1
  O  O229  1  0.92422562  0.12774091  0.48291741  1
  O  O230  1  0.92523320  0.13176555  0.81660149  1
  O  O231  1  0.91267117  0.61966631  0.14944811  1
  O  O232  1  0.92314048  0.63439437  0.48385485  1
  O  O233  1  0.91436451  0.63071006  0.81452547  1
  O  O234  1  0.36715263  0.08132714  0.01572968  1
  O  O235  1  0.37015134  0.06970580  0.34898598  1
  O  O236  1  0.37048809  0.07448360  0.68325628  1
  O  O237  1  0.36657242  0.58306601  0.01639816  1
  O  O238  1  0.36290467  0.58375728  0.34803975  1
  O  O239  1  0.36651223  0.58092425  0.68215283  1
  O  O240  1  0.87275990  0.09753402  0.01627613  1
  O  O241  1  0.86965616  0.08167044  0.34804710  1
  O  O242  1  0.86752053  0.08138972  0.68129907  1
  O  O243  1  0.86385568  0.57974967  0.01410370  1
  O  O244  1  0.86705569  0.58414255  0.34875873  1
  O  O245  1  0.86239117  0.59664099  0.67871875  1
  O  O246  1  0.08536079  0.36300485  0.18169260  1
  O  O247  1  0.08736512  0.36103020  0.51457185  1
  O  O248  1  0.07768645  0.37136307  0.84934048  1
  O  O249  1  0.07765419  0.86751051  0.17848756  1
  O  O250  1  0.08637817  0.86525222  0.51323339  1
  O  O251  1  0.07981480  0.86563024  0.84790454  1
  O  O252  1  0.58470615  0.36287172  0.17501248  1
  O  O253  1  0.59640595  0.36653433  0.52048992  1
  O  O254  1  0.58621858  0.37555486  0.84787509  1
  O  O255  1  0.58212618  0.86526852  0.18116197  1
  O  O256  1  0.57584594  0.87664096  0.51925093  1
  O  O257  1  0.57492185  0.86592571  0.85039772  1
  O  O258  1  0.12944023  0.41701440  0.31748499  1
  O  O259  1  0.13237842  0.41689076  0.65099000  1
  O  O260  1  0.13496084  0.42209723  0.98522222  1
  O  O261  1  0.12627119  0.92885683  0.31185608  1
  O  O262  1  0.13298249  0.91219402  0.64938635  1
  O  O263  1  0.13387541  0.91473831  0.98498615  1
  O  O264  1  0.63380274  0.41027355  0.31279683  1
  O  O265  1  0.63455192  0.42330640  0.65704822  1
  O  O266  1  0.62725149  0.42904438  0.98281440  1
  O  O267  1  0.63475906  0.91883409  0.31795857  1
  O  O268  1  0.63637941  0.91614498  0.65391376  1
  O  O269  1  0.63089954  0.91873450  0.98492888  1
  O  O270  1  0.03198737  0.20477076  0.10576455  1
  O  O271  1  0.03320986  0.19862853  0.43877331  1
  O  O272  1  0.02464611  0.21412656  0.77439320  1
  O  O273  1  0.02898481  0.69736909  0.09806259  1
  O  O274  1  0.03516024  0.70208705  0.44238248  1
  O  O275  1  0.02698218  0.70169837  0.76870898  1
  O  O276  1  0.52979055  0.19469287  0.10500423  1
  O  O277  1  0.54105168  0.18962369  0.43618381  1
  O  O278  1  0.55023521  0.19076504  0.76247275  1
  O  O279  1  0.52568494  0.70099963  0.10430120  1
  O  O280  1  0.52391441  0.70841149  0.43741741  1
  O  O281  1  0.52961812  0.69613545  0.76961901  1
  O  O282  1  0.29656666  0.46868335  0.06417101  1
  O  O283  1  0.28849036  0.47234177  0.39511023  1
  O  O284  1  0.29191328  0.47662679  0.72902569  1
  O  O285  1  0.29879009  0.97058667  0.06067354  1
  O  O286  1  0.29583067  0.96296794  0.39370852  1
  O  O287  1  0.30858621  0.95522128  0.72893641  1
  O  O288  1  0.79798753  0.47022127  0.06525463  1
  O  O289  1  0.81918064  0.46543423  0.39686066  1
  O  O290  1  0.79522670  0.47819116  0.73515725  1
  O  O291  1  0.80423741  0.96784222  0.06781386  1
  O  O292  1  0.80447058  0.97020572  0.39687315  1
  O  O293  1  0.79996723  0.96615156  0.72393863  1
  O  O294  1  0.47232486  0.29745273  0.22657752  1
  O  O295  1  0.46129443  0.30023043  0.55451152  1
  O  O296  1  0.45236203  0.32011898  0.89745087  1
  O  O297  1  0.46891854  0.80062777  0.23096377  1
  O  O298  1  0.46879759  0.79658443  0.56173411  1
  O  O299  1  0.46073559  0.79967374  0.89653806  1
  O  O300  1  0.97166859  0.30388963  0.23221389  1
  O  O301  1  0.97530374  0.28937012  0.56336607  1
  O  O302  1  0.96722046  0.30344524  0.90014171  1
  O  O303  1  0.96520436  0.81216877  0.23006052  1
  O  O304  1  0.97435921  0.80367596  0.56430966  1
  O  O305  1  0.97861295  0.79175836  0.89639416  1
  O  O306  1  0.20458518  0.03542093  0.27018456  1
  O  O307  1  0.19667922  0.02664818  0.59709553  1
  O  O308  1  0.20048345  0.03576500  0.94421352  1
  O  O309  1  0.20371586  0.52070484  0.27086334  1
  O  O310  1  0.19907662  0.52845506  0.60365675  1
  O  O311  1  0.20282730  0.53388984  0.93753235  1
  O  O312  1  0.70616122  0.03091577  0.27020991  1
  O  O313  1  0.70025355  0.02975665  0.60073644  1
  O  O314  1  0.70884837  0.02537052  0.93962409  1
  O  O315  1  0.69897522  0.53443534  0.26784554  1
  O  O316  1  0.68618645  0.53670414  0.61089017  1
  O  O317  1  0.70032871  0.53325480  0.93345168  1
  O  O318  1  0.08433307  0.09246613  0.03953732  1
  O  O319  1  0.08056996  0.08495188  0.36766755  1
  O  O320  1  0.07317042  0.09444425  0.72087261  1
  O  O321  1  0.09055799  0.59017883  0.04116239  1
  O  O322  1  0.08088328  0.58400062  0.37510644  1
  O  O323  1  0.08364016  0.59082209  0.70581617  1
  O  O324  1  0.58701207  0.08122003  0.04409323  1
  O  O325  1  0.59645736  0.08712855  0.36425918  1
  O  O326  1  0.58814202  0.07419377  0.68764092  1
  O  O327  1  0.57756451  0.58737268  0.03826250  1
  O  O328  1  0.58403382  0.59808570  0.37913062  1
  O  O329  1  0.59533266  0.59176807  0.70975545  1
  O  O330  1  0.40741035  0.41164740  0.12840903  1
  O  O331  1  0.39833140  0.41123183  0.44994751  1
  O  O332  1  0.40937293  0.42743790  0.78718671  1
  O  O333  1  0.41134999  0.91700312  0.12494728  1
  O  O334  1  0.40606004  0.90986340  0.46262671  1
  O  O335  1  0.41612332  0.90937199  0.80848644  1
  O  O336  1  0.90800659  0.41516310  0.13234128  1
  O  O337  1  0.92449340  0.41343632  0.47028796  1
  O  O338  1  0.90193675  0.41145529  0.78674214  1
  O  O339  1  0.91164098  0.90508769  0.12717347  1
  O  O340  1  0.91713492  0.91804991  0.46346324  1
  O  O341  1  0.91616256  0.91663060  0.78815340  1
  O  O342  1  0.40410496  0.40230520  0.28316454  1
  O  O343  1  0.41337364  0.41227590  0.62728690  1
  O  O344  1  0.40929073  0.42219463  0.98253989  1
  O  O345  1  0.41165325  0.91148868  0.29351359  1
  O  O346  1  0.41164355  0.90797968  0.62235150  1
  O  O347  1  0.41500971  0.91572566  0.96698900  1
  O  O348  1  0.91784980  0.41572982  0.29816059  1
  O  O349  1  0.90478258  0.39294480  0.61453420  1
  O  O350  1  0.91357592  0.41421257  0.96917849  1
  O  O351  1  0.91549300  0.91801401  0.30691510  1
  O  O352  1  0.91962318  0.91447580  0.63126681  1
  O  O353  1  0.91309812  0.89696395  0.95273703  1
  O  O354  1  0.09035533  0.08739734  0.20833216  1
  O  O355  1  0.08662766  0.08362661  0.53681984  1
  O  O356  1  0.09067654  0.09529622  0.88097803  1
  O  O357  1  0.08520935  0.56609101  0.20697743  1
  O  O358  1  0.09009034  0.58789618  0.54040697  1
  O  O359  1  0.09628828  0.59395819  0.87329236  1
  O  O360  1  0.59618323  0.08641256  0.20260268  1
  O  O361  1  0.58559587  0.07620703  0.52791826  1
  O  O362  1  0.58824528  0.06384834  0.87356844  1
  O  O363  1  0.58879837  0.59123461  0.20419788  1
  O  O364  1  0.58091538  0.58372593  0.53181705  1
  O  O365  1  0.58546914  0.58101774  0.86589217  1
  O  O366  1  0.13990203  0.22493842  0.05998345  1
  O  O367  1  0.14084079  0.21734306  0.39243752  1
  O  O368  1  0.13475214  0.22133209  0.72873832  1
  O  O369  1  0.13526466  0.72305933  0.05189358  1
  O  O370  1  0.13380250  0.71410464  0.38463694  1
  O  O371  1  0.13649736  0.72426834  0.72578457  1
  O  O372  1  0.63142125  0.21303603  0.05182177  1
  O  O373  1  0.64791971  0.22417580  0.39397797  1
  O  O374  1  0.65046347  0.20302868  0.70520348  1
  O  O375  1  0.63603091  0.72004193  0.06241722  1
  O  O376  1  0.63416495  0.73144907  0.39629884  1
  O  O377  1  0.63828126  0.72853526  0.73006730  1
  O  O378  1  0.27379788  0.35956059  0.10679796  1
  O  O379  1  0.26731010  0.36256756  0.43765709  1
  O  O380  1  0.27986721  0.36544960  0.77181273  1
  O  O381  1  0.27859660  0.86374484  0.10704812  1
  O  O382  1  0.27140423  0.85643621  0.43787854  1
  O  O383  1  0.28077756  0.85507182  0.77921267  1
  O  O384  1  0.77255353  0.36057444  0.10545620  1
  O  O385  1  0.78806368  0.36597957  0.44668945  1
  O  O386  1  0.76944793  0.36490706  0.77242788  1
  O  O387  1  0.77797010  0.86644248  0.11898891  1
  O  O388  1  0.78339931  0.85944442  0.43825543  1
  O  O389  1  0.78665069  0.87355389  0.78781028  1
  O  O390  1  0.36783028  0.26856739  0.27151666  1
  O  O391  1  0.36205492  0.27869489  0.60778060  1
  O  O392  1  0.35146738  0.28519304  0.94552917  1
  O  O393  1  0.36382975  0.77803552  0.27903374  1
  O  O394  1  0.35972060  0.77453714  0.60457018  1
  O  O395  1  0.35836532  0.78374638  0.94920865  1
  O  O396  1  0.86210529  0.28140961  0.27451396  1
  O  O397  1  0.86663462  0.26012074  0.60422594  1
  O  O398  1  0.86326022  0.27966552  0.94900799  1
  O  O399  1  0.85939908  0.78267092  0.27441068  1
  O  O400  1  0.86247792  0.78016081  0.60344866  1
  O  O401  1  0.86828265  0.76317025  0.93562358  1
  O  O402  1  0.22161665  0.14344421  0.22391937  1
  O  O403  1  0.21936678  0.13547549  0.55197234  1
  O  O404  1  0.22401217  0.13444016  0.89019887  1
  O  O405  1  0.21483605  0.63072469  0.22637788  1
  O  O406  1  0.22510015  0.63541640  0.55956305  1
  O  O407  1  0.23116382  0.64031102  0.89387683  1
  O  O408  1  0.73081829  0.14027398  0.22886540  1
  O  O409  1  0.71850457  0.13760812  0.55468676  1
  O  O410  1  0.71389414  0.13578784  0.89427662  1
  O  O411  1  0.72195551  0.64032297  0.22143571  1
  O  O412  1  0.71586292  0.63881102  0.56290208  1
  O  O413  1  0.71736826  0.64268384  0.88845150  1
  O  O414  1  0.48498305  0.32898039  0.02964049  1
  O  O415  1  0.49447234  0.33850986  0.36073894  1
  O  O416  1  0.49595408  0.33426795  0.69060502  1
  O  O417  1  0.49163056  0.83468340  0.03191846  1
  O  O418  1  0.49326775  0.83978537  0.36567400  1
  O  O419  1  0.48852311  0.83149510  0.69505514  1
  O  O420  1  0.99408715  0.33581201  0.03424182  1
  O  O421  1  0.99210472  0.33339007  0.36475998  1
  O  O422  1  0.99065157  0.32922035  0.69604811  1
  O  O423  1  0.99350532  0.82473844  0.02855632  1
  O  O424  1  0.99166534  0.83020220  0.36192701  1
  O  O425  1  0.99224481  0.83058670  0.69612460  1
  O  O426  1  0.16790879  0.01230375  0.13653144  1
  O  O427  1  0.15980446  0.00573706  0.46334824  1
  O  O428  1  0.15603924  0.00345879  0.80901585  1
  O  O429  1  0.16702595  0.50141443  0.13622308  1
  O  O430  1  0.16441365  0.50673447  0.47021535  1
  O  O431  1  0.17114236  0.51167300  0.80406549  1
  O  O432  1  0.67891097  0.00970761  0.13842514  1
  O  O433  1  0.67243088  0.00558340  0.46714807  1
  O  O434  1  0.67513729  0.00490250  0.80589600  1
  O  O435  1  0.66216926  0.50983421  0.13349804  1
  O  O436  1  0.67001935  0.50430203  0.47967116  1
  O  O437  1  0.66827859  0.51092475  0.79959073  1
  O  O438  1  0.00844207  0.17017243  0.30509316  1
  O  O439  1  0.00659309  0.16523907  0.63907774  1
  O  O440  1  0.00793829  0.17288011  0.97270725  1
  O  O441  1  -0.00115011  0.65818504  0.30631371  1
  O  O442  1  0.00669563  0.66785480  0.63581887  1
  O  O443  1  0.00747314  0.65810944  0.96428724  1
  O  O444  1  0.51813014  0.17120838  0.30477134  1
  O  O445  1  0.51379570  0.15999752  0.62701602  1
  O  O446  1  0.49963759  0.14855360  0.96992010  1
  O  O447  1  0.50653158  0.67407362  0.30486208  1
  O  O448  1  0.51215017  0.66556296  0.63776556  1
  O  O449  1  0.50631464  0.66979965  0.97121350  1
  O  O450  1  0.32849701  0.48972333  0.19671297  1
  O  O451  1  0.32706251  0.49030520  0.52834960  1
  O  O452  1  0.33303849  0.49361305  0.86387355  1
  O  O453  1  0.33270511  0.99396843  0.19435041  1
  O  O454  1  0.32527793  0.98766816  0.52752033  1
  O  O455  1  0.32895408  0.98896808  0.86204524  1
  O  O456  1  0.82790242  0.49021377  0.19837040  1
  O  O457  1  0.84651633  0.49871316  0.53119710  1
  O  O458  1  0.83344508  0.48995511  0.86618463  1
  O  O459  1  0.84715462  0.99371149  0.20266036  1
  O  O460  1  0.83333171  0.98892449  0.52945107  1
  O  O461  1  0.85092014  1.00696578  0.86050170  1
