# generated using pymatgen
data_Na31Fe20(SO4)36
_symmetry_space_group_name_H-M   'P 1'
_cell_length_a   18.07386595
_cell_length_b   18.06815764
_cell_length_c   19.70351581
_cell_angle_alpha   107.58047389
_cell_angle_beta   107.59783910
_cell_angle_gamma   90.71642316
_symmetry_Int_Tables_number   1
_chemical_formula_structural   Na31Fe20(SO4)36
_chemical_formula_sum   'Na62 Fe40 S72 O288'
_cell_volume   5808.53952618
_cell_formula_units_Z   2
loop_
 _symmetry_equiv_pos_site_id
 _symmetry_equiv_pos_as_xyz
  1  'x, y, z'
loop_
 _atom_site_type_symbol
 _atom_site_label
 _atom_site_symmetry_multiplicity
 _atom_site_fract_x
 _atom_site_fract_y
 _atom_site_fract_z
 _atom_site_occupancy
  Na  Na0  1  0.13114070  0.36848266  0.08496923  1
  Na  Na1  1  0.13971838  0.36913468  0.42132418  1
  Na  Na2  1  0.13019212  0.36555435  0.74678415  1
  Na  Na3  1  0.14115992  0.86749992  0.07868831  1
  Na  Na4  1  0.13947468  0.86151270  0.42376400  1
  Na  Na5  1  0.13872791  0.84953705  0.73975950  1
  Na  Na6  1  0.62736057  0.36532664  0.07625540  1
  Na  Na7  1  0.65004649  0.38922318  0.43726319  1
  Na  Na8  1  0.62756463  0.36416862  0.74332693  1
  Na  Na9  1  0.63321156  0.86531778  0.08506755  1
  Na  Na10  1  0.63369329  0.86408428  0.41598902  1
  Na  Na11  1  0.63370992  0.86380278  0.74982456  1
  Na  Na12  1  0.35698169  0.13150691  0.24195254  1
  Na  Na13  1  0.36814681  0.12704098  0.57926275  1
  Na  Na14  1  0.37249237  0.13817546  0.91753960  1
  Na  Na15  1  0.37919478  0.63435602  0.25843132  1
  Na  Na16  1  0.35064812  0.66277451  0.59677485  1
  Na  Na17  1  0.36350285  0.63118432  0.90952461  1
  Na  Na18  1  0.86635001  0.13944972  0.25518554  1
  Na  Na19  1  0.86021353  0.13395896  0.57854415  1
  Na  Na20  1  0.86048210  0.13702516  0.91763303  1
  Na  Na21  1  0.86571007  0.63476471  0.25122453  1
  Na  Na22  1  0.86670047  0.63049975  0.58470648  1
  Na  Na23  1  0.86665582  0.63508209  0.91608973  1
  Na  Na24  1  0.48846169  0.00040931  0.43913082  1
  Na  Na25  1  0.97699242  0.50413192  0.42931996  1
  Na  Na26  1  1.01255556  -0.02762673  0.75589355  1
  Na  Na27  1  0.48359072  0.52521694  0.11750904  1
  Na  Na28  1  0.48009623  0.01555049  0.08187575  1
  Na  Na29  1  1.00474910  0.00284745  0.08153360  1
  Na  Na30  1  0.99052065  0.00911989  0.41656184  1
  Na  Na31  1  0.97031276  0.52059640  0.68732291  1
  Na  Na32  1  0.48925806  0.02071115  0.75137817  1
  Na  Na33  1  0.01177438  0.49373209  0.23994809  1
  Na  Na34  1  0.51179398  0.98202349  0.25776603  1
  Na  Na35  1  0.45809164  0.51874061  0.62625647  1
  Na  Na36  1  0.51270507  0.96251346  0.90278505  1
  Na  Na37  1  0.00594775  0.49509613  0.91277560  1
  Na  Na38  1  0.50930248  0.49928794  0.88887497  1
  Na  Na39  1  0.02814158  0.97213831  0.91887049  1
  Na  Na40  1  0.00500149  0.98727537  0.58614008  1
  Na  Na41  1  0.01333502  0.99078307  0.24935840  1
  Na  Na42  1  0.26224719  0.26069731  0.65694850  1
  Na  Na43  1  0.75882132  0.75910047  0.67202668  1
  Na  Na44  1  0.71715284  0.71620449  0.33480670  1
  Na  Na45  1  0.73037643  0.24035190  -0.00037968  1
  Na  Na46  1  0.75857388  0.26808701  0.64950008  1
  Na  Na47  1  0.74387031  0.25095950  0.35314986  1
  Na  Na48  1  0.24413913  0.23828379  0.00810150  1
  Na  Na49  1  0.25750307  0.75767044  -0.01133908  1
  Na  Na50  1  0.24308670  0.74050737  0.34147107  1
  Na  Na51  1  0.74460734  0.74754505  0.00509707  1
  Na  Na52  1  0.73586288  0.73829945  0.17616419  1
  Na  Na53  1  0.27218236  0.75985069  0.81374490  1
  Na  Na54  1  0.25294538  0.25421766  0.83087566  1
  Na  Na55  1  0.26684837  0.26807978  0.48779351  1
  Na  Na56  1  0.73355755  0.72505534  0.50217995  1
  Na  Na57  1  0.23613770  0.23648904  0.17940234  1
  Na  Na58  1  0.25532065  0.75274262  0.16672874  1
  Na  Na59  1  0.73898761  0.24235581  0.17262423  1
  Na  Na60  1  0.74362184  0.25339077  0.83046021  1
  Na  Na61  1  0.76189378  0.75247298  0.83246578  1
  Fe  Fe62  1  0.46742508  0.29982089  0.78816104  1
  Fe  Fe63  1  0.96192106  0.30632845  0.78254563  1
  Fe  Fe64  1  0.46988841  0.31169616  0.12529364  1
  Fe  Fe65  1  0.96632815  0.80638598  0.11582291  1
  Fe  Fe66  1  0.96203964  0.30585916  0.11701204  1
  Fe  Fe67  1  0.46988421  0.80119744  0.12471108  1
  Fe  Fe68  1  0.46298703  0.31308087  0.45573908  1
  Fe  Fe69  1  0.96653196  0.30868918  0.45774197  1
  Fe  Fe70  1  0.46402395  0.81158674  0.45736914  1
  Fe  Fe71  1  0.96479007  0.80508762  0.44801479  1
  Fe  Fe72  1  0.19107135  0.03603460  0.71588521  1
  Fe  Fe73  1  0.19262170  0.53536540  0.04623294  1
  Fe  Fe74  1  0.19321024  0.03777757  0.38550958  1
  Fe  Fe75  1  0.69790217  0.52962749  0.70565089  1
  Fe  Fe76  1  0.69498340  0.03551543  0.38437135  1
  Fe  Fe77  1  0.69016409  0.03544226  0.71478939  1
  Fe  Fe78  1  0.19946797  0.52665095  0.70370291  1
  Fe  Fe79  1  0.19691293  0.53581007  0.38544688  1
  Fe  Fe80  1  0.69109919  0.53799353  0.04392688  1
  Fe  Fe81  1  0.69176313  0.03332118  0.04549880  1
  Fe  Fe82  1  0.03561635  0.68967724  0.21087845  1
  Fe  Fe83  1  0.53781688  0.19338447  0.21810611  1
  Fe  Fe84  1  0.53720560  0.19256693  0.54840482  1
  Fe  Fe85  1  0.03734546  0.69111324  0.54637239  1
  Fe  Fe86  1  0.52700380  0.69851382  0.86970977  1
  Fe  Fe87  1  0.03586354  0.19517258  0.21766344  1
  Fe  Fe88  1  0.03127156  0.19032273  0.88187258  1
  Fe  Fe89  1  0.03419679  0.19267983  0.55265660  1
  Fe  Fe90  1  0.03274038  0.69491806  0.87230873  1
  Fe  Fe91  1  0.53349003  0.69216828  0.54523532  1
  Fe  Fe92  1  0.80867694  0.96442172  0.28370947  1
  Fe  Fe93  1  0.80950094  0.96394298  0.62049473  1
  Fe  Fe94  1  0.80842307  0.46590054  0.95375711  1
  Fe  Fe95  1  0.30314947  0.96889310  0.28477595  1
  Fe  Fe96  1  0.30094818  0.97000925  0.95282622  1
  Fe  Fe97  1  0.80149413  0.46662702  0.28916269  1
  Fe  Fe98  1  0.30970143  0.95910993  0.62095880  1
  Fe  Fe99  1  0.31597937  0.46479577  0.29272109  1
  Fe  Fe100  1  0.81144502  0.96332743  0.94997818  1
  Fe  Fe101  1  0.30590210  0.46523235  0.95439563  1
  S  S102  1  0.36279416  0.14445367  0.08518191  1
  S  S103  1  0.36030037  0.14013951  0.41684783  1
  S  S104  1  0.35408233  0.13929659  0.74766108  1
  S  S105  1  0.35482041  0.64140374  0.08198125  1
  S  S106  1  0.35775158  0.64383528  0.41853713  1
  S  S107  1  0.36098621  0.63484700  0.74878762  1
  S  S108  1  0.85952904  0.14036116  0.08535125  1
  S  S109  1  0.86249246  0.13666008  0.41591322  1
  S  S110  1  0.85598510  0.14111044  0.74931396  1
  S  S111  1  0.85993699  0.64185171  0.08198633  1
  S  S112  1  0.86238086  0.64120675  0.41087833  1
  S  S113  1  0.85760593  0.64184667  0.75495411  1
  S  S114  1  0.13837275  0.36271470  0.24821805  1
  S  S115  1  0.14278054  0.35336973  0.58466839  1
  S  S116  1  0.13734671  0.35890387  0.91869069  1
  S  S117  1  0.13915364  0.86079432  0.25035731  1
  S  S118  1  0.13491368  0.86271025  0.58284324  1
  S  S119  1  0.14394121  0.85650927  0.90989478  1
  S  S120  1  0.64383632  0.35553774  0.25200511  1
  S  S121  1  0.63948682  0.35956094  0.58295848  1
  S  S122  1  0.63942190  0.36334013  0.91440886  1
  S  S123  1  0.64470194  0.85994622  0.25080555  1
  S  S124  1  0.64313211  0.86266352  0.58313549  1
  S  S125  1  0.64794910  0.85745477  0.91955928  1
  S  S126  1  0.05863050  0.16624187  0.04205870  1
  S  S127  1  0.06645880  0.16927273  0.37837420  1
  S  S128  1  0.06213106  0.16610202  0.71096426  1
  S  S129  1  0.06961427  0.67342545  0.04078580  1
  S  S130  1  0.06865927  0.66863890  0.37145562  1
  S  S131  1  0.07428825  0.66158890  0.70680624  1
  S  S132  1  0.56486758  0.16093875  0.04054767  1
  S  S133  1  0.56757988  0.16417592  0.37418515  1
  S  S134  1  0.56502286  0.16780971  0.70804568  1
  S  S135  1  0.56588279  0.67223541  0.03615818  1
  S  S136  1  0.56345458  0.67738705  0.38317402  1
  S  S137  1  0.57789495  0.67110397  0.71009967  1
  S  S138  1  0.32642846  0.43194388  0.12419710  1
  S  S139  1  0.33053607  0.43885383  0.45854496  1
  S  S140  1  0.32607851  0.42667253  0.79099435  1
  S  S141  1  0.33471747  0.93189886  0.12491917  1
  S  S142  1  0.32332637  0.93259702  0.45459480  1
  S  S143  1  0.32917034  0.94099175  0.79165771  1
  S  S144  1  0.82587975  0.42986243  0.12287119  1
  S  S145  1  0.84058268  0.43652702  0.46048821  1
  S  S146  1  0.82817774  0.43181110  0.79155255  1
  S  S147  1  0.83493836  0.93580806  0.12480804  1
  S  S148  1  0.83310091  0.93114954  0.45534364  1
  S  S149  1  0.83747794  0.94179471  0.79435881  1
  S  S150  1  0.43148675  0.32317497  0.28780606  1
  S  S151  1  0.43114334  0.32167209  0.62098133  1
  S  S152  1  0.43059328  0.33621868  0.96161770  1
  S  S153  1  0.43281916  0.84165561  0.29616631  1
  S  S154  1  0.43970137  0.84334574  0.62981703  1
  S  S155  1  0.43518645  0.83301735  0.96128178  1
  S  S156  1  0.93198947  0.33047790  0.29020650  1
  S  S157  1  0.93199574  0.32381191  0.62314364  1
  S  S158  1  0.93062611  0.33030258  0.95517398  1
  S  S159  1  0.93504714  0.83175695  0.28705875  1
  S  S160  1  0.93392091  0.82945073  0.62117886  1
  S  S161  1  0.94081939  0.83247055  0.95954804  1
  S  S162  1  0.16153965  0.06274455  0.20921213  1
  S  S163  1  0.16291424  0.06590098  0.54225049  1
  S  S164  1  0.16626628  0.06705763  0.87568830  1
  S  S165  1  0.17042200  0.56828721  0.20887099  1
  S  S166  1  0.16595507  0.56678632  0.54076461  1
  S  S167  1  0.17080221  0.56553649  0.87247322  1
  S  S168  1  0.67197752  0.06598432  0.21114861  1
  S  S169  1  0.67267315  0.06755359  0.54423481  1
  S  S170  1  0.66833836  0.05810358  0.87667933  1
  S  S171  1  0.67275853  0.56372000  0.20505836  1
  S  S172  1  0.67520392  0.57474942  0.54929338  1
  S  S173  1  0.67466353  0.57258291  0.87402843  1
  O  O174  1  0.37860497  0.22223080  0.07576840  1
  O  O175  1  0.37092414  0.22095467  0.41546950  1
  O  O176  1  0.36478706  0.21967988  0.74215250  1
  O  O177  1  0.36691592  0.72257284  0.07889714  1
  O  O178  1  0.36649856  0.72112308  0.40623658  1
  O  O179  1  0.36624265  0.71691531  0.75363308  1
  O  O180  1  0.86407987  0.21821372  0.07365430  1
  O  O181  1  0.87261032  0.21408674  0.40578971  1
  O  O182  1  0.86520361  0.22027833  0.74158901  1
  O  O183  1  0.87015757  0.72012524  0.07192650  1
  O  O184  1  0.87728219  0.71568468  0.39488454  1
  O  O185  1  0.85684011  0.72324904  0.75639006  1
  O  O186  1  0.28649923  0.14151692  0.09593667  1
  O  O187  1  0.28442926  0.13150982  0.43169091  1
  O  O188  1  0.27306502  0.13351692  0.75410914  1
  O  O189  1  0.27191473  0.63360526  0.08308197  1
  O  O190  1  0.27615120  0.63388088  0.42041999  1
  O  O191  1  0.28066167  0.61685008  0.75769484  1
  O  O192  1  0.78051211  0.12895853  0.09306267  1
  O  O193  1  0.78378324  0.12786209  0.42308924  1
  O  O194  1  0.77736919  0.13283946  0.75854834  1
  O  O195  1  0.77964505  0.63479290  0.08807444  1
  O  O196  1  0.78441606  0.63895611  0.41790811  1
  O  O197  1  0.78001500  0.62031960  0.76547078  1
  O  O198  1  0.12875435  0.28249882  0.25321549  1
  O  O199  1  0.12656532  0.27971514  0.60157990  1
  O  O200  1  0.12712618  0.28167154  0.93003216  1
  O  O201  1  0.13058526  0.78058916  0.25557653  1
  O  O202  1  0.12447458  0.78558973  0.59252167  1
  O  O203  1  0.13296444  0.77327841  0.90978310  1
  O  O204  1  0.63867635  0.27129838  0.25158018  1
  O  O205  1  0.62637787  0.28381256  0.59782554  1
  O  O206  1  0.63170082  0.28712708  0.92397252  1
  O  O207  1  0.64000493  0.78218110  0.25746392  1
  O  O208  1  0.63483072  0.78285693  0.58910874  1
  O  O209  1  0.63397504  0.77866241  0.92582786  1
  O  O210  1  0.21518459  0.37187769  0.23673948  1
  O  O211  1  0.22050437  0.35435065  0.57740052  1
  O  O212  1  0.21689615  0.36671952  0.91221324  1
  O  O213  1  0.21711541  0.87099723  0.24061658  1
  O  O214  1  0.21210260  0.87369099  0.57387014  1
  O  O215  1  0.22780143  0.86562503  0.91046141  1
  O  O216  1  0.72383905  0.36747331  0.24375070  1
  O  O217  1  0.71522678  0.36465594  0.57309088  1
  O  O218  1  0.71840772  0.37526490  0.90536443  1
  O  O219  1  0.72122272  0.87390159  0.23758436  1
  O  O220  1  0.72175836  0.87098375  0.57230006  1
  O  O221  1  0.73048340  0.86377463  0.91734785  1
  O  O222  1  0.42395949  0.13143343  0.15066083  1
  O  O223  1  0.42312292  0.12254563  0.47785230  1
  O  O224  1  0.41160973  0.12709616  0.81212700  1
  O  O225  1  0.40853215  0.62914267  0.14870275  1
  O  O226  1  0.41291986  0.64178033  0.49046126  1
  O  O227  1  0.41997430  0.62115036  0.81560019  1
  O  O228  1  0.91851054  0.13690937  0.15561149  1
  O  O229  1  0.92152139  0.12663625  0.48329074  1
  O  O230  1  0.91488350  0.13307378  0.81730443  1
  O  O231  1  0.91699742  0.63676474  0.15206585  1
  O  O232  1  0.92200914  0.63468638  0.47985604  1
  O  O233  1  0.91912978  0.63331584  0.82265845  1
  O  O234  1  0.36720862  0.08341179  0.01583722  1
  O  O235  1  0.36002043  0.08497071  0.34334903  1
  O  O236  1  0.35757758  0.08162865  0.67617065  1
  O  O237  1  0.36277259  0.58479005  0.01225350  1
  O  O238  1  0.36883094  0.58265031  0.35302994  1
  O  O239  1  0.36735663  0.58241130  0.67874170  1
  O  O240  1  0.87140710  0.08050163  0.01997394  1
  O  O241  1  0.87229541  0.07605916  0.34849794  1
  O  O242  1  0.86319315  0.08252151  0.68052382  1
  O  O243  1  0.86850373  0.58146537  0.01554371  1
  O  O244  1  0.87049857  0.57686428  0.34493957  1
  O  O245  1  0.86677767  0.58897652  0.68640249  1
  O  O246  1  0.07614811  0.37327643  0.18209821  1
  O  O247  1  0.08416939  0.35898059  0.51541375  1
  O  O248  1  0.07909383  0.36509913  0.84911787  1
  O  O249  1  0.07865390  0.87146152  0.18429111  1
  O  O250  1  0.07429464  0.87103581  0.51430265  1
  O  O251  1  0.09139128  0.87046760  0.84271146  1
  O  O252  1  0.58629356  0.36178134  0.18126137  1
  O  O253  1  0.57671051  0.36616898  0.51637405  1
  O  O254  1  0.57953021  0.37148098  0.84589106  1
  O  O255  1  0.58241563  0.86947313  0.18474924  1
  O  O256  1  0.58326610  0.87543758  0.51850126  1
  O  O257  1  0.59348880  0.87063099  0.85393296  1
  O  O258  1  0.13116793  0.42081444  0.31719322  1
  O  O259  1  0.13646155  0.41864304  0.65132399  1
  O  O260  1  0.12751710  0.42115403  0.98435765  1
  O  O261  1  0.13181294  0.91840126  0.31974162  1
  O  O262  1  0.12384464  0.92350563  0.64937691  1
  O  O263  1  0.13305773  0.90982955  0.97831319  1
  O  O264  1  0.63488826  0.40778158  0.31949692  1
  O  O265  1  0.63339415  0.42233252  0.65242124  1
  O  O266  1  0.63127025  0.42566498  0.98092640  1
  O  O267  1  0.63774995  0.92017485  0.31963270  1
  O  O268  1  0.64075629  0.91929493  0.65465645  1
  O  O269  1  0.64097657  0.91594852  0.98993895  1
  O  O270  1  0.02503511  0.20384969  0.10493391  1
  O  O271  1  0.03169220  0.19837041  0.44034016  1
  O  O272  1  0.02666214  0.19733695  0.77253922  1
  O  O273  1  0.03189501  0.70071657  0.10173720  1
  O  O274  1  0.03728133  0.70061337  0.43552818  1
  O  O275  1  0.03151933  0.67243282  0.76158411  1
  O  O276  1  0.53665274  0.19271104  0.10737793  1
  O  O277  1  0.53415377  0.19617149  0.43638876  1
  O  O278  1  0.52589040  0.19818240  0.76511427  1
  O  O279  1  0.52785180  0.69751608  0.09465887  1
  O  O280  1  0.52632184  0.71391933  0.44621111  1
  O  O281  1  0.54352402  0.69317164  0.77114183  1
  O  O282  1  0.29725374  0.47227248  0.06514064  1
  O  O283  1  0.29536888  0.46760760  0.39056450  1
  O  O284  1  0.29423181  0.46296376  0.73161739  1
  O  O285  1  0.31674497  0.96720707  0.06457716  1
  O  O286  1  0.29621469  0.97193506  0.39461323  1
  O  O287  1  0.29115252  0.97429545  0.72803067  1
  O  O288  1  0.80034666  0.47042729  0.06449404  1
  O  O289  1  0.82169538  0.46786954  0.39517804  1
  O  O290  1  0.79590870  0.46587547  0.73080197  1
  O  O291  1  0.80438367  0.97082238  0.06352255  1
  O  O292  1  0.80208374  0.96855269  0.39506834  1
  O  O293  1  0.80017313  0.97483822  0.73137784  1
  O  O294  1  0.47429629  0.29593075  0.23028385  1
  O  O295  1  0.46933982  0.28960214  0.56035094  1
  O  O296  1  0.46438495  0.31883711  0.90022837  1
  O  O297  1  0.46988754  0.81743395  0.23715155  1
  O  O298  1  0.46950831  0.80750809  0.56352746  1
  O  O299  1  0.47592215  0.80770038  0.90489187  1
  O  O300  1  0.96819395  0.30013611  0.22863610  1
  O  O301  1  0.96829289  0.28935453  0.56134449  1
  O  O302  1  0.96654752  0.29776119  0.89388441  1
  O  O303  1  0.97101844  0.80045731  0.22598141  1
  O  O304  1  0.96080379  0.79704603  0.55334241  1
  O  O305  1  0.97848889  0.80382452  0.90185981  1
  O  O306  1  0.19570760  0.03384909  0.27614342  1
  O  O307  1  0.19322168  0.03085910  0.60302759  1
  O  O308  1  0.19849177  0.03283802  0.93579846  1
  O  O309  1  0.20033786  0.53285668  0.26984850  1
  O  O310  1  0.19033165  0.52846433  0.60029756  1
  O  O311  1  0.19806256  0.52300017  0.92981664  1
  O  O312  1  0.70250528  0.03164366  0.27360823  1
  O  O313  1  0.70124690  0.03171322  0.60561652  1
  O  O314  1  0.70930071  0.02510491  0.93962121  1
  O  O315  1  0.70576915  0.52426151  0.26225554  1
  O  O316  1  0.69848422  0.53685870  0.61079802  1
  O  O317  1  0.70339217  0.53372137  0.93392011  1
  O  O318  1  0.06508585  0.08386355  0.03614747  1
  O  O319  1  0.08037854  0.08505803  0.37119774  1
  O  O320  1  0.07894695  0.08382806  0.70601595  1
  O  O321  1  0.08766376  0.59146656  0.03339686  1
  O  O322  1  0.08645624  0.58666694  0.36578544  1
  O  O323  1  0.09816630  0.57946335  0.69277284  1
  O  O324  1  0.58310157  0.07761984  0.03748136  1
  O  O325  1  0.58464603  0.08139478  0.37097808  1
  O  O326  1  0.58659573  0.08826042  0.71022966  1
  O  O327  1  0.58325466  0.58911759  0.02517723  1
  O  O328  1  0.58691626  0.60281193  0.38863506  1
  O  O329  1  0.59865132  0.58836223  0.69912152  1
  O  O330  1  0.40756744  0.41443709  0.12800349  1
  O  O331  1  0.40646054  0.41044643  0.45408869  1
  O  O332  1  0.40519748  0.40427755  0.79130121  1
  O  O333  1  0.41829531  0.91428116  0.14202124  1
  O  O334  1  0.40523646  0.91638938  0.46127606  1
  O  O335  1  0.41090030  0.93509038  0.79515512  1
  O  O336  1  0.90725584  0.40976660  0.12875393  1
  O  O337  1  0.92132384  0.40971437  0.46646186  1
  O  O338  1  0.90992493  0.41293389  0.79516188  1
  O  O339  1  0.91773872  0.91936027  0.13004567  1
  O  O340  1  0.91666547  0.91771907  0.45963078  1
  O  O341  1  0.91907918  0.93171380  0.79877313  1
  O  O342  1  0.41037288  0.40209719  0.28866303  1
  O  O343  1  0.41088948  0.39910644  0.62138155  1
  O  O344  1  0.41251917  0.42001373  0.98060208  1
  O  O345  1  0.41478478  0.92574163  0.30565161  1
  O  O346  1  0.41764190  0.92419075  0.62770778  1
  O  O347  1  0.41429914  0.91450996  0.96484020  1
  O  O348  1  0.91318342  0.41177707  0.29341582  1
  O  O349  1  0.91254941  0.40111738  0.62348667  1
  O  O350  1  0.91484530  0.41165357  0.95816009  1
  O  O351  1  0.92148343  0.91559748  0.29291076  1
  O  O352  1  0.91607081  0.91301040  0.62551968  1
  O  O353  1  0.92163798  0.91489835  0.96358308  1
  O  O354  1  0.08046482  0.08472411  0.21036869  1
  O  O355  1  0.07934781  0.08109787  0.53742291  1
  O  O356  1  0.08308168  0.08275371  0.87209173  1
  O  O357  1  0.08841043  0.58593340  0.20536098  1
  O  O358  1  0.08204351  0.58255543  0.52782120  1
  O  O359  1  0.08936373  0.58213192  0.86856274  1
  O  O360  1  0.58898493  0.08040341  0.20417932  1
  O  O361  1  0.59084125  0.08555357  0.53653836  1
  O  O362  1  0.58654329  0.06175341  0.87340215  1
  O  O363  1  0.59629085  0.58619340  0.20688640  1
  O  O364  1  0.59598802  0.59890201  0.54466850  1
  O  O365  1  0.59351575  0.58943456  0.86896626  1
  O  O366  1  0.13376636  0.21262069  0.05835528  1
  O  O367  1  0.13845254  0.21780410  0.39276463  1
  O  O368  1  0.13307991  0.21719495  0.72597054  1
  O  O369  1  0.14036570  0.72724341  0.05967324  1
  O  O370  1  0.13670842  0.72048255  0.38108300  1
  O  O371  1  0.14272988  0.71903605  0.73127481  1
  O  O372  1  0.63855426  0.20977213  0.05472270  1
  O  O373  1  0.63787171  0.21284047  0.38437311  1
  O  O374  1  0.63554872  0.22043559  0.72227072  1
  O  O375  1  0.63968084  0.72443014  0.05765099  1
  O  O376  1  0.63365402  0.73515140  0.40194697  1
  O  O377  1  0.64819860  0.72548781  0.72725366  1
  O  O378  1  0.27308586  0.36051149  0.10415483  1
  O  O379  1  0.27475996  0.37399691  0.45007650  1
  O  O380  1  0.27199940  0.35731365  0.77825784  1
  O  O381  1  0.28110117  0.86015350  0.10536176  1
  O  O382  1  0.27128393  0.86090342  0.43411166  1
  O  O383  1  0.28269160  0.86721748  0.77646813  1
  O  O384  1  0.77134899  0.35933260  0.10308538  1
  O  O385  1  0.78377972  0.36901214  0.44324299  1
  O  O386  1  0.77757392  0.36029059  0.77863691  1
  O  O387  1  0.78527552  0.86411967  0.11127096  1
  O  O388  1  0.78468419  0.85840812  0.43900433  1
  O  O389  1  0.78923077  0.86900678  0.78155127  1
  O  O390  1  0.36157086  0.26749508  0.26640801  1
  O  O391  1  0.36138937  0.26520928  0.60256493  1
  O  O392  1  0.35908612  0.28222445  0.94194200  1
  O  O393  1  0.36111684  0.78987317  0.27904124  1
  O  O394  1  0.37011866  0.79484189  0.62108854  1
  O  O395  1  0.36445537  0.77824566  0.94209268  1
  O  O396  1  0.86142402  0.27763388  0.27447318  1
  O  O397  1  0.86495921  0.26868693  0.61081655  1
  O  O398  1  0.85819412  0.27983949  0.93976307  1
  O  O399  1  0.86203034  0.78369976  0.27078431  1
  O  O400  1  0.86274234  0.78072451  0.61099646  1
  O  O401  1  0.86990798  0.78165037  0.94691701  1
  O  O402  1  0.21184201  0.13103155  0.21745927  1
  O  O403  1  0.21162258  0.13747059  0.55483112  1
  O  O404  1  0.21392311  0.14006652  0.88753528  1
  O  O405  1  0.22110947  0.64026326  0.22335166  1
  O  O406  1  0.21612809  0.63802135  0.55831057  1
  O  O407  1  0.22465306  0.63654633  0.89397387  1
  O  O408  1  0.72283321  0.13836144  0.22819585  1
  O  O409  1  0.72453029  0.13780443  0.55916515  1
  O  O410  1  0.71237473  0.13462106  0.89250228  1
  O  O411  1  0.72879019  0.63349138  0.22073175  1
  O  O412  1  0.73267594  0.64553439  0.57312819  1
  O  O413  1  0.72785221  0.64437802  0.89434413  1
  O  O414  1  0.49052400  0.32950055  0.03074429  1
  O  O415  1  0.48810798  0.32498580  0.36091767  1
  O  O416  1  0.48894447  0.32267645  0.69412915  1
  O  O417  1  0.49040796  0.83829647  0.03755565  1
  O  O418  1  0.49077579  0.84501281  0.37025138  1
  O  O419  1  0.50405191  0.85509648  0.69930233  1
  O  O420  1  0.98912233  0.33194467  0.02789505  1
  O  O421  1  0.99198749  0.33323658  0.36235825  1
  O  O422  1  0.99422266  0.32742877  0.69628155  1
  O  O423  1  0.99886183  0.84028278  0.03579060  1
  O  O424  1  0.99397785  0.83346506  0.35963796  1
  O  O425  1  0.99843300  0.83488085  0.68912542  1
  O  O426  1  0.14986177  -0.00217636  0.14002257  1
  O  O427  1  0.15785728  0.00621153  0.46833192  1
  O  O428  1  0.15947397  0.00781119  0.80079042  1
  O  O429  1  0.16658173  0.50970144  0.13553982  1
  O  O430  1  0.16711593  0.50640469  0.46909560  1
  O  O431  1  0.17115442  0.51019069  0.79811451  1
  O  O432  1  0.67305831  0.00684121  0.13993896  1
  O  O433  1  0.67140223  0.00640469  0.47233221  1
  O  O434  1  0.67318382  0.00271460  0.80484925  1
  O  O435  1  0.66626231  0.50718562  0.12852807  1
  O  O436  1  0.67713594  0.51834033  0.48030253  1
  O  O437  1  0.67561934  0.51517957  0.80110889  1
  O  O438  1  0.00621117  0.16835235  0.30654014  1
  O  O439  1  0.00217955  0.16169775  0.63808236  1
  O  O440  1  0.00132290  0.17108380  0.97053599  1
  O  O441  1  0.00505244  0.66403830  0.29968954  1
  O  O442  1  0.01577869  0.66469811  0.63542501  1
  O  O443  1  0.01105673  0.67261648  0.96872522  1
  O  O444  1  0.50599852  0.15744606  0.30080070  1
  O  O445  1  0.50852113  0.15832453  0.63151073  1
  O  O446  1  0.50453822  0.15843684  0.97182225  1
  O  O447  1  0.50599848  0.67615544  0.31245828  1
  O  O448  1  0.51614143  0.67172313  0.64010585  1
  O  O449  1  0.51029864  0.67373918  0.96281624  1
  O  O450  1  0.32764193  0.48919721  0.19715553  1
  O  O451  1  0.34330994  0.50576679  0.52621634  1
  O  O452  1  0.33534034  0.48627087  0.86626674  1
  O  O453  1  0.32745549  0.99116100  0.19436790  1
  O  O454  1  0.32047198  0.99016387  0.52574463  1
  O  O455  1  0.32595455  0.99893290  0.86368716  1
  O  O456  1  0.82923407  0.48686879  0.19696697  1
  O  O457  1  0.84707406  0.49929008  0.52911305  1
  O  O458  1  0.83550960  0.49189850  0.86599672  1
  O  O459  1  0.83831349  0.99587200  0.19761457  1
  O  O460  1  0.83611308  0.99001332  0.52865527  1
  O  O461  1  0.83653649  1.00046324  0.86698460  1
