# generated using pymatgen
data_Na31Fe20(SO4)36
_symmetry_space_group_name_H-M   'P 1'
_cell_length_a   18.07451306
_cell_length_b   18.07545415
_cell_length_c   19.72373304
_cell_angle_alpha   107.57892501
_cell_angle_beta   107.56158340
_cell_angle_gamma   90.77036471
_symmetry_Int_Tables_number   1
_chemical_formula_structural   Na31Fe20(SO4)36
_chemical_formula_sum   'Na62 Fe40 S72 O288'
_cell_volume   5817.72932531
_cell_formula_units_Z   2
loop_
 _symmetry_equiv_pos_site_id
 _symmetry_equiv_pos_as_xyz
  1  'x, y, z'
loop_
 _atom_site_type_symbol
 _atom_site_label
 _atom_site_symmetry_multiplicity
 _atom_site_fract_x
 _atom_site_fract_y
 _atom_site_fract_z
 _atom_site_occupancy
  Na  Na0  1  0.13861004  0.35824103  0.08235958  1
  Na  Na1  1  0.13758410  0.36032614  0.41183255  1
  Na  Na2  1  0.13511788  0.36270334  0.75346242  1
  Na  Na3  1  0.13607618  0.86011429  0.08345202  1
  Na  Na4  1  0.14289123  0.86253673  0.42521056  1
  Na  Na5  1  0.12953711  0.86410379  0.75421371  1
  Na  Na6  1  0.63552164  0.36548982  0.08169334  1
  Na  Na7  1  0.63780336  0.36227545  0.41694838  1
  Na  Na8  1  0.62096731  0.37117824  0.74261715  1
  Na  Na9  1  0.62923211  0.86649997  0.07664288  1
  Na  Na10  1  0.63284857  0.87266977  0.41911395  1
  Na  Na11  1  0.63268031  0.87463845  0.75208356  1
  Na  Na12  1  0.36319620  0.13246036  0.24995418  1
  Na  Na13  1  0.36964493  0.14046236  0.58636927  1
  Na  Na14  1  0.35421177  0.12680138  0.90575532  1
  Na  Na15  1  0.36160895  0.62954800  0.24469087  1
  Na  Na16  1  0.36757179  0.65012817  0.58411569  1
  Na  Na17  1  0.36936343  0.62313460  0.91043005  1
  Na  Na18  1  0.86068744  0.14056834  0.25554266  1
  Na  Na19  1  0.85689791  0.12773403  0.57308240  1
  Na  Na20  1  0.86958239  0.13146732  0.92616568  1
  Na  Na21  1  0.86502438  0.63659207  0.25137665  1
  Na  Na22  1  0.87153812  0.64220248  0.59649798  1
  Na  Na23  1  0.86571053  0.63526180  0.91578146  1
  Na  Na24  1  0.48454237  0.50898790  0.07323612  1
  Na  Na25  1  0.50224532  0.05378608  0.43697018  1
  Na  Na26  1  0.99153012  0.51178647  0.41455169  1
  Na  Na27  1  0.98910429  0.51871074  0.75253681  1
  Na  Na28  1  0.99596091  0.00192966  0.73467638  1
  Na  Na29  1  0.97852375  0.00714806  0.43375744  1
  Na  Na30  1  0.46591247  0.01429134  0.01763087  1
  Na  Na31  1  0.97297309  0.02489835  0.07004722  1
  Na  Na32  1  1.01517777  0.48261186  0.08219220  1
  Na  Na33  1  0.00701721  0.94719067  0.89842294  1
  Na  Na34  1  0.03764357  0.49272564  0.92641326  1
  Na  Na35  1  0.51036008  0.99531115  0.59677241  1
  Na  Na36  1  0.50100799  0.48756728  0.26945601  1
  Na  Na37  1  0.54371531  0.99669631  0.25454639  1
  Na  Na38  1  0.01106070  0.99395291  0.25012754  1
  Na  Na39  1  0.48866163  0.53784729  0.54419752  1
  Na  Na40  1  0.00923869  0.46155737  0.23820773  1
  Na  Na41  1  0.01131692  0.48765200  0.58138236  1
  Na  Na42  1  0.26271647  0.75587522  -0.00623675  1
  Na  Na43  1  0.75702753  0.25422868  0.00454006  1
  Na  Na44  1  0.75213128  0.75617097  0.66782228  1
  Na  Na45  1  0.73094442  0.23897920  0.66904357  1
  Na  Na46  1  0.75777538  0.76363992  -0.00781957  1
  Na  Na47  1  0.24224352  0.24202726  0.67441318  1
  Na  Na48  1  0.74731283  0.74950152  0.33317947  1
  Na  Na49  1  0.25687502  0.25384269  -0.01142365  1
  Na  Na50  1  0.25999247  0.76528785  0.65550001  1
  Na  Na51  1  0.24478720  0.73488914  0.34869421  1
  Na  Na52  1  0.74051293  0.74488736  0.50311263  1
  Na  Na53  1  0.75285399  0.75757727  0.16310896  1
  Na  Na54  1  0.73031802  0.23342568  0.49819141  1
  Na  Na55  1  0.77063295  0.77419884  0.82959690  1
  Na  Na56  1  0.24247770  0.73656077  0.16971271  1
  Na  Na57  1  0.26221609  0.76580913  0.82789655  1
  Na  Na58  1  0.24021101  0.23654059  0.17834525  1
  Na  Na59  1  0.74702274  0.24723747  0.83718809  1
  Na  Na60  1  0.74655019  0.24194283  0.17705281  1
  Na  Na61  1  0.26079077  0.25900507  0.49003690  1
  Fe  Fe62  1  0.47010419  0.79834280  0.45715852  1
  Fe  Fe63  1  0.46702603  0.81047565  0.78709421  1
  Fe  Fe64  1  0.46525047  0.30616251  0.11876989  1
  Fe  Fe65  1  0.96610713  0.80717472  0.45509829  1
  Fe  Fe66  1  0.96532423  0.30775042  0.44998516  1
  Fe  Fe67  1  0.96673571  0.30743689  0.78541736  1
  Fe  Fe68  1  0.46597523  0.30481425  0.45757956  1
  Fe  Fe69  1  0.46454952  0.80769015  0.11867456  1
  Fe  Fe70  1  0.96353339  0.80846422  0.12190867  1
  Fe  Fe71  1  0.46310523  0.30946407  0.78705149  1
  Fe  Fe72  1  0.19146564  0.03509910  0.71503989  1
  Fe  Fe73  1  0.68819243  0.53591547  0.04279292  1
  Fe  Fe74  1  0.69596373  0.53313716  0.38165937  1
  Fe  Fe75  1  0.19552706  0.53580655  0.71773539  1
  Fe  Fe76  1  0.19326752  0.03423949  0.38179617  1
  Fe  Fe77  1  0.19372002  0.53382527  0.38224847  1
  Fe  Fe78  1  0.19899126  0.02622891  0.04254323  1
  Fe  Fe79  1  0.69840602  0.02998754  0.03962389  1
  Fe  Fe80  1  0.69513346  0.03789133  0.71580073  1
  Fe  Fe81  1  0.68899834  0.53711495  0.71094716  1
  Fe  Fe82  1  0.53401627  0.69260881  0.21270045  1
  Fe  Fe83  1  0.03273888  0.19172829  0.88126532  1
  Fe  Fe84  1  0.53517880  0.19062741  0.21207352  1
  Fe  Fe85  1  0.03537046  0.69586580  0.55241116  1
  Fe  Fe86  1  0.03543327  0.19469888  0.54973799  1
  Fe  Fe87  1  0.53712712  0.68827175  0.87629475  1
  Fe  Fe88  1  0.03406363  0.68828891  0.21447094  1
  Fe  Fe89  1  0.03052784  0.19796074  0.21065415  1
  Fe  Fe90  1  0.03226026  0.69774614  0.88422240  1
  Fe  Fe91  1  0.53247290  0.19181065  0.87715677  1
  Fe  Fe92  1  0.80905365  0.46548334  0.95217462  1
  Fe  Fe93  1  0.30992201  0.46903117  0.62238242  1
  Fe  Fe94  1  0.80716276  0.46320359  0.28055133  1
  Fe  Fe95  1  0.31218867  0.96374811  0.62398741  1
  Fe  Fe96  1  0.30883866  0.96415546  0.28974723  1
  Fe  Fe97  1  0.80730404  0.46494946  0.61541280  1
  Fe  Fe98  1  0.30924676  0.46297210  0.28805920  1
  Fe  Fe99  1  0.79484710  0.97397590  0.29085774  1
  Fe  Fe100  1  0.80776345  0.96477111  0.61803733  1
  Fe  Fe101  1  0.29845458  0.46676595  0.95433777  1
  S  S102  1  0.35785699  0.14357682  0.08231414  1
  S  S103  1  0.35461268  0.14096111  0.41829043  1
  S  S104  1  0.35713337  0.14120504  0.74899843  1
  S  S105  1  0.35996424  0.63995829  0.08267196  1
  S  S106  1  0.36081563  0.63425954  0.41640101  1
  S  S107  1  0.35817475  0.64295419  0.74908701  1
  S  S108  1  0.85683945  0.14551259  0.09013021  1
  S  S109  1  0.86164374  0.14370514  0.41968021  1
  S  S110  1  0.86126105  0.14373952  0.74696665  1
  S  S111  1  0.85619400  0.64253707  0.08405334  1
  S  S112  1  0.86191590  0.63784654  0.41522605  1
  S  S113  1  0.86033569  0.63659619  0.75192000  1
  S  S114  1  0.14260241  0.35985824  0.24770305  1
  S  S115  1  0.14019680  0.36139166  0.58352127  1
  S  S116  1  0.13799319  0.35740978  0.92000009  1
  S  S117  1  0.14125470  0.85833341  0.25427032  1
  S  S118  1  0.13912070  0.86168587  0.58452987  1
  S  S119  1  0.14716801  0.85059936  0.92233750  1
  S  S120  1  0.64014287  0.35950780  0.24802985  1
  S  S121  1  0.64216757  0.36244802  0.58055240  1
  S  S122  1  0.63981607  0.36057595  0.91696815  1
  S  S123  1  0.63873602  0.85629953  0.24818550  1
  S  S124  1  0.64043258  0.86088818  0.58337515  1
  S  S125  1  0.64138358  0.85770288  0.91485713  1
  S  S126  1  0.06858631  0.15980995  0.04065893  1
  S  S127  1  0.06920984  0.17158889  0.37632549  1
  S  S128  1  0.06528544  0.16990857  0.70691259  1
  S  S129  1  0.05851657  0.66661498  0.04701072  1
  S  S130  1  0.06508702  0.66542869  0.37486472  1
  S  S131  1  0.06878060  0.66384790  0.70954083  1
  S  S132  1  0.56899587  0.17324899  0.04233961  1
  S  S133  1  0.55943082  0.17026312  0.37250208  1
  S  S134  1  0.56520530  0.17385969  0.71109521  1
  S  S135  1  0.56682642  0.66928791  0.04170677  1
  S  S136  1  0.56994917  0.66837582  0.37201286  1
  S  S137  1  0.56916442  0.67475961  0.71098691  1
  S  S138  1  0.33605136  0.43255629  0.12579849  1
  S  S139  1  0.32898111  0.43263623  0.45972624  1
  S  S140  1  0.32353694  0.43033185  0.78912357  1
  S  S141  1  0.33304231  0.93269239  0.12928141  1
  S  S142  1  0.33186093  0.93004746  0.45814570  1
  S  S143  1  0.32535068  0.93219730  0.78892656  1
  S  S144  1  0.83109114  0.44144287  0.12170720  1
  S  S145  1  0.83557022  0.43636044  0.45919606  1
  S  S146  1  0.83476804  0.43098536  0.79157851  1
  S  S147  1  0.82887999  0.93310679  0.13049172  1
  S  S148  1  0.83216922  0.92973456  0.45614623  1
  S  S149  1  0.83750396  0.94314070  0.78809470  1
  S  S150  1  0.43329731  0.32632354  0.29071798  1
  S  S151  1  0.42816786  0.33397242  0.62513966  1
  S  S152  1  0.42981603  0.33013146  0.95802410  1
  S  S153  1  0.43136255  0.82537476  0.29220426  1
  S  S154  1  0.43407098  0.83507472  0.62558406  1
  S  S155  1  0.43208386  0.81954808  0.95181803  1
  S  S156  1  0.93746298  0.33480922  0.29244155  1
  S  S157  1  0.93302217  0.33267528  0.62276405  1
  S  S158  1  0.93488569  0.33154658  0.95717539  1
  S  S159  1  0.93461400  0.83219862  0.29362760  1
  S  S160  1  0.93277800  0.82865380  0.62198503  1
  S  S161  1  0.93800038  0.83352509  0.96368874  1
  S  S162  1  0.16572440  0.06237394  0.20659450  1
  S  S163  1  0.16901894  0.06809487  0.54291028  1
  S  S164  1  0.16167810  0.06389822  0.87301622  1
  S  S165  1  0.16645752  0.56187498  0.21027775  1
  S  S166  1  0.16836102  0.56739100  0.54328630  1
  S  S167  1  0.16604237  0.56549800  0.87532095  1
  S  S168  1  0.66727184  0.06645422  0.20136304  1
  S  S169  1  0.66839864  0.06180654  0.54628605  1
  S  S170  1  0.67262119  0.07518982  0.87746460  1
  S  S171  1  0.67007618  0.56613648  0.20761790  1
  S  S172  1  0.67798675  0.57072931  0.54407919  1
  S  S173  1  0.67538367  0.56950388  0.87809634  1
  O  O174  1  0.36581692  0.22661667  0.08189268  1
  O  O175  1  0.36323160  0.22172903  0.41542245  1
  O  O176  1  0.36738420  0.22025729  0.74084994  1
  O  O177  1  0.37254055  0.71925338  0.07494069  1
  O  O178  1  0.37339115  0.71340482  0.40886830  1
  O  O179  1  0.36572037  0.72401159  0.74477041  1
  O  O180  1  0.86128362  0.22500672  0.08685518  1
  O  O181  1  0.87594507  0.22108720  0.41032238  1
  O  O182  1  0.87159835  0.22061364  0.73455362  1
  O  O183  1  0.86391269  0.72253654  0.07735576  1
  O  O184  1  0.87135584  0.71448334  0.40287060  1
  O  O185  1  0.86484482  0.71233498  0.74041960  1
  O  O186  1  0.27855644  0.13041067  0.08914183  1
  O  O187  1  0.27340309  0.12955558  0.42290918  1
  O  O188  1  0.27738845  0.13168653  0.75499442  1
  O  O189  1  0.28577424  0.63285316  0.09585774  1
  O  O190  1  0.27859157  0.62861495  0.41898521  1
  O  O191  1  0.28060602  0.63291597  0.76076895  1
  O  O192  1  0.77862310  0.12832079  0.09923245  1
  O  O193  1  0.78837051  0.13711034  0.43451835  1
  O  O194  1  0.78041213  0.13862186  0.75190411  1
  O  O195  1  0.77711794  0.63280136  0.09190647  1
  O  O196  1  0.78247243  0.63090677  0.42239457  1
  O  O197  1  0.78321505  0.62309654  0.76279537  1
  O  O198  1  0.13022823  0.27900447  0.24987405  1
  O  O199  1  0.13081581  0.28227598  0.59118603  1
  O  O200  1  0.12732508  0.27671093  0.92505725  1
  O  O201  1  0.13034226  0.77901428  0.26118109  1
  O  O202  1  0.12946487  0.78273166  0.59380896  1
  O  O203  1  0.13099151  0.77460339  0.93660991  1
  O  O204  1  0.63138477  0.27988008  0.25246887  1
  O  O205  1  0.63682270  0.28526344  0.58891011  1
  O  O206  1  0.63182538  0.28273784  0.92788248  1
  O  O207  1  0.63121714  0.77361084  0.24958680  1
  O  O208  1  0.63551375  0.78506229  0.59427237  1
  O  O209  1  0.62950742  0.78060926  0.92762367  1
  O  O210  1  0.22435482  0.36836722  0.24447459  1
  O  O211  1  0.21834575  0.37155460  0.57542832  1
  O  O212  1  0.21874427  0.36661630  0.91684534  1
  O  O213  1  0.21954219  0.86580748  0.24477788  1
  O  O214  1  0.21830360  0.87084898  0.57784243  1
  O  O215  1  0.22741702  0.85328864  0.92053458  1
  O  O216  1  0.71898437  0.37058853  0.23922733  1
  O  O217  1  0.71916087  0.37465287  0.56706387  1
  O  O218  1  0.71988882  0.36937487  0.91021517  1
  O  O219  1  0.71908004  0.86782111  0.24349917  1
  O  O220  1  0.71784518  0.87212852  0.57096574  1
  O  O221  1  0.71838246  0.86407518  0.90610220  1
  O  O222  1  0.41713550  0.13418673  0.14963416  1
  O  O223  1  0.41128949  0.12765134  0.48305408  1
  O  O224  1  0.41523746  0.13482068  0.81776063  1
  O  O225  1  0.42452782  0.62887785  0.14701128  1
  O  O226  1  0.41540107  0.62347414  0.48302739  1
  O  O227  1  0.41922174  0.63078476  0.81283457  1
  O  O228  1  0.91701510  0.13784136  0.16006654  1
  O  O229  1  0.92640698  0.13121052  0.48369401  1
  O  O230  1  0.91646311  0.13915186  0.81820149  1
  O  O231  1  0.91468745  0.63540638  0.15272656  1
  O  O232  1  0.92060873  0.63071602  0.48384473  1
  O  O233  1  0.92133949  0.63035077  0.82050467  1
  O  O234  1  0.36630331  0.09076569  0.01315468  1
  O  O235  1  0.36117703  0.08424768  0.34750373  1
  O  O236  1  0.36498250  0.08253589  0.68066220  1
  O  O237  1  0.36517944  0.58100282  0.01250817  1
  O  O238  1  0.36758697  0.57634711  0.34611682  1
  O  O239  1  0.35974789  0.58790599  0.67667525  1
  O  O240  1  0.86765242  0.08774266  0.02445261  1
  O  O241  1  0.86524184  0.08303722  0.34973882  1
  O  O242  1  0.87329280  0.08180214  0.68291642  1
  O  O243  1  0.86531721  0.58493020  0.01617462  1
  O  O244  1  0.87084064  0.57599247  0.34887094  1
  O  O245  1  0.87223852  0.57429232  0.68647786  1
  O  O246  1  0.08743868  0.37460760  0.18275954  1
  O  O247  1  0.08006213  0.36985615  0.51573031  1
  O  O248  1  0.08219035  0.36508598  0.84879088  1
  O  O249  1  0.08126879  0.86953028  0.18844948  1
  O  O250  1  0.08115285  0.86590199  0.51428735  1
  O  O251  1  0.09050621  0.85655474  0.85364005  1
  O  O252  1  0.58056332  0.37110574  0.18190216  1
  O  O253  1  0.58006819  0.37128886  0.51487716  1
  O  O254  1  0.58180706  0.36616821  0.84794583  1
  O  O255  1  0.58151852  0.86471728  0.17851225  1
  O  O256  1  0.57939436  0.86709885  0.51485818  1
  O  O257  1  0.58050234  0.86537611  0.84771029  1
  O  O258  1  0.13486670  0.41635507  0.31854107  1
  O  O259  1  0.13044977  0.42029905  0.65094393  1
  O  O260  1  0.12438109  0.41476041  0.98435045  1
  O  O261  1  0.13517359  0.91745597  0.32361235  1
  O  O262  1  0.12850519  0.92086611  0.65067080  1
  O  O263  1  0.13751981  0.91340440  0.98874802  1
  O  O264  1  0.63341834  0.41778308  0.31756935  1
  O  O265  1  0.63889076  0.42302062  0.65060859  1
  O  O266  1  0.63125113  0.42041858  0.98415458  1
  O  O267  1  0.62671136  0.91096800  0.31421315  1
  O  O268  1  0.63110854  0.92387840  0.64922158  1
  O  O269  1  0.63446136  0.91878062  0.98278905  1
  O  O270  1  0.03042730  0.17575400  0.09954388  1
  O  O271  1  0.03404770  0.20138903  0.43833999  1
  O  O272  1  0.03158650  0.20210660  0.76984456  1
  O  O273  1  0.02356410  0.70519779  0.10910900  1
  O  O274  1  0.03192693  0.69638038  0.43801495  1
  O  O275  1  0.03455215  0.68260362  0.77035752  1
  O  O276  1  0.53005172  0.20246375  0.10241737  1
  O  O277  1  0.51921693  0.20134627  0.42927651  1
  O  O278  1  0.53133365  0.20547107  0.77523715  1
  O  O279  1  0.52943326  0.70155199  0.10158232  1
  O  O280  1  0.53633157  0.69805598  0.43247551  1
  O  O281  1  0.53236969  0.70573604  0.77305260  1
  O  O282  1  0.31796427  0.46982892  0.06692057  1
  O  O283  1  0.29819304  0.46731615  0.39731923  1
  O  O284  1  0.29831071  0.47272270  0.73118877  1
  O  O285  1  0.30591793  0.97168836  0.07206529  1
  O  O286  1  0.30362369  0.96914554  0.39812962  1
  O  O287  1  0.29420378  0.96889473  0.72605948  1
  O  O288  1  0.79318612  0.47609220  0.06005209  1
  O  O289  1  0.80276434  0.46945695  0.39585800  1
  O  O290  1  0.80376845  0.46200287  0.72768246  1
  O  O291  1  0.80299490  0.96775407  0.07026040  1
  O  O292  1  0.80870344  0.96525725  0.39573878  1
  O  O293  1  0.79479999  0.97482153  0.72395670  1
  O  O294  1  0.47496079  0.30022434  0.23281044  1
  O  O295  1  0.46587499  0.31280282  0.56660849  1
  O  O296  1  0.46755274  0.30224217  0.89770843  1
  O  O297  1  0.46954225  0.79877889  0.23143100  1
  O  O298  1  0.46629526  0.80605422  0.56347156  1
  O  O299  1  0.47238687  0.78902090  0.89333673  1
  O  O300  1  0.97601921  0.30732905  0.23504137  1
  O  O301  1  0.97041736  0.30244011  0.56254868  1
  O  O302  1  0.96456673  0.29883164  0.89081174  1
  O  O303  1  0.96951761  0.79976994  0.23179218  1
  O  O304  1  0.96371578  0.79347227  0.55585732  1
  O  O305  1  0.97175608  0.79755687  0.90312046  1
  O  O306  1  0.19459209  0.02522127  0.26789710  1
  O  O307  1  0.19659713  0.03166198  0.60345031  1
  O  O308  1  0.18236187  0.02501508  0.93054820  1
  O  O309  1  0.19953261  0.53006839  0.27483233  1
  O  O310  1  0.19798059  0.53046884  0.60365230  1
  O  O311  1  0.19434202  0.52672302  0.93286133  1
  O  O312  1  0.69110568  0.02829045  0.26062494  1
  O  O313  1  0.71108280  0.03174119  0.61102793  1
  O  O314  1  0.69789685  0.04086841  0.93837621  1
  O  O315  1  0.70080686  0.53050025  0.26928444  1
  O  O316  1  0.71159967  0.53593035  0.60682500  1
  O  O317  1  0.70463169  0.52980293  0.93748805  1
  O  O318  1  0.08784172  0.07701111  0.02513704  1
  O  O319  1  0.08457988  0.08837919  0.36924887  1
  O  O320  1  0.08391359  0.08930589  0.70438988  1
  O  O321  1  0.06441061  0.58481723  0.04403606  1
  O  O322  1  0.07985394  0.58212402  0.36879251  1
  O  O323  1  0.08617546  0.57933660  0.69437963  1
  O  O324  1  0.58617789  0.09223310  0.03722385  1
  O  O325  1  0.57528237  0.08996376  0.37103157  1
  O  O326  1  0.59256277  0.09625473  0.71257102  1
  O  O327  1  0.58432494  0.58859525  0.04250963  1
  O  O328  1  0.59239089  0.58746609  0.36745219  1
  O  O329  1  0.59391120  0.59669460  0.71338885  1
  O  O330  1  0.42060056  0.41543385  0.14132315  1
  O  O331  1  0.40910998  0.41221944  0.46297914  1
  O  O332  1  0.40316089  0.40975611  0.79523966  1
  O  O333  1  0.41574421  0.91492505  0.13718229  1
  O  O334  1  0.41338997  0.91213929  0.46509914  1
  O  O335  1  0.40066345  0.90348148  0.78381252  1
  O  O336  1  0.91189644  0.43141319  0.12325775  1
  O  O337  1  0.91822403  0.42038202  0.46163987  1
  O  O338  1  0.91912498  0.41834687  0.79930312  1
  O  O339  1  0.91231564  0.91500962  0.13971053  1
  O  O340  1  0.91464990  0.91072853  0.46468848  1
  O  O341  1  0.91616947  0.93049729  0.78167492  1
  O  O342  1  0.41359519  0.40727107  0.29353425  1
  O  O343  1  0.40720649  0.41546113  0.63639663  1
  O  O344  1  0.40555599  0.40918081  0.96041551  1
  O  O345  1  0.41347893  0.90708646  0.30027860  1
  O  O346  1  0.41807281  0.91843359  0.63281703  1
  O  O347  1  0.40742815  0.89512435  0.94956998  1
  O  O348  1  0.91898814  0.41781253  0.29635883  1
  O  O349  1  0.91995756  0.41644819  0.62870749  1
  O  O350  1  0.91408949  0.41303279  0.95881051  1
  O  O351  1  0.92153398  0.91504892  0.30088366  1
  O  O352  1  0.91093200  0.90804863  0.62093048  1
  O  O353  1  0.92830072  0.91512928  0.96733221  1
  O  O354  1  0.08278404  0.07811884  0.20106803  1
  O  O355  1  0.08741082  0.08781093  0.53598100  1
  O  O356  1  0.07840292  0.08338425  0.85947711  1
  O  O357  1  0.08469595  0.58156495  0.20945144  1
  O  O358  1  0.08494340  0.58281173  0.53736373  1
  O  O359  1  0.08446174  0.58520995  0.87367063  1
  O  O360  1  0.58396108  0.08309142  0.19321688  1
  O  O361  1  0.59017551  0.07547693  0.55327466  1
  O  O362  1  0.59223608  0.09680057  0.86909352  1
  O  O363  1  0.58806432  0.58276823  0.20142499  1
  O  O364  1  0.59944802  0.58817085  0.54041833  1
  O  O365  1  0.59639021  0.59022845  0.87680834  1
  O  O366  1  0.13897569  0.21584834  0.06302986  1
  O  O367  1  0.14047508  0.22241231  0.39229612  1
  O  O368  1  0.13448054  0.22152637  0.71795502  1
  O  O369  1  0.13397235  0.71241053  0.06456831  1
  O  O370  1  0.13622488  0.71479523  0.38785825  1
  O  O371  1  0.13927235  0.71633894  0.72537714  1
  O  O372  1  0.64076043  0.22662759  0.06211407  1
  O  O373  1  0.63061123  0.22252277  0.38888554  1
  O  O374  1  0.63377763  0.23062031  0.72654829  1
  O  O375  1  0.63879420  0.72024405  0.05760587  1
  O  O376  1  0.63995150  0.72093611  0.38301925  1
  O  O377  1  0.63855930  0.72985078  0.72670546  1
  O  O378  1  0.28247908  0.36118951  0.10496657  1
  O  O379  1  0.27500641  0.36531201  0.44824266  1
  O  O380  1  0.26679166  0.36131079  0.76712937  1
  O  O381  1  0.28164164  0.85979388  0.11161977  1
  O  O382  1  0.27787442  0.85950545  0.43862377  1
  O  O383  1  0.26696989  0.86409477  0.77149338  1
  O  O384  1  0.78251426  0.36869840  0.10806356  1
  O  O385  1  0.78702456  0.36633361  0.44904888  1
  O  O386  1  0.78705984  0.35820411  0.77921367  1
  O  O387  1  0.77758746  0.86030424  0.11371045  1
  O  O388  1  0.77953042  0.85828551  0.43911789  1
  O  O389  1  0.79031099  0.86840830  0.77383192  1
  O  O390  1  0.36288290  0.27233740  0.27038712  1
  O  O391  1  0.35755594  0.27875812  0.60601034  1
  O  O392  1  0.36430433  0.27336940  0.94556400  1
  O  O393  1  0.36002848  0.77150968  0.27240990  1
  O  O394  1  0.36158754  0.78596559  0.61199661  1
  O  O395  1  0.36516363  0.76100848  0.93575048  1
  O  O396  1  0.86622317  0.28493027  0.27874493  1
  O  O397  1  0.86004127  0.28404301  0.60583994  1
  O  O398  1  0.86433113  0.28031020  0.94521444  1
  O  O399  1  0.86124995  0.78240485  0.27703820  1
  O  O400  1  0.86205954  0.77658234  0.60872262  1
  O  O401  1  0.86344491  0.78585415  0.94905285  1
  O  O402  1  0.21681030  0.13387276  0.22375075  1
  O  O403  1  0.22193811  0.13870032  0.55888469  1
  O  O404  1  0.21585590  0.13410862  0.89191882  1
  O  O405  1  0.21697022  0.63437043  0.22526876  1
  O  O406  1  0.21809429  0.63897195  0.55861345  1
  O  O407  1  0.21840552  0.63521535  0.88864973  1
  O  O408  1  0.71884542  0.13837223  0.22075753  1
  O  O409  1  0.71598261  0.13604945  0.55918844  1
  O  O410  1  0.72786156  0.14528877  0.89303203  1
  O  O411  1  0.72191830  0.63794647  0.22435394  1
  O  O412  1  0.73174235  0.64122356  0.55886391  1
  O  O413  1  0.73021713  0.63955641  0.89658827  1
  O  O414  1  0.49191485  0.33968244  0.03214212  1
  O  O415  1  0.48945515  0.33006534  0.36472893  1
  O  O416  1  0.48607835  0.33248092  0.69740540  1
  O  O417  1  0.49049510  0.82676447  0.02709162  1
  O  O418  1  0.48958690  0.82362571  0.36346145  1
  O  O419  1  0.49374588  0.83499545  0.69696533  1
  O  O420  1  0.99818561  0.33893577  0.02629438  1
  O  O421  1  0.99579949  0.34151301  0.36788638  1
  O  O422  1  0.99160994  0.33413470  0.69548170  1
  O  O423  1  0.99434930  0.83351336  0.03819428  1
  O  O424  1  0.99335282  0.83012888  0.36499607  1
  O  O425  1  0.99580262  0.83489556  0.69046235  1
  O  O426  1  0.16564951  0.00367972  0.13459424  1
  O  O427  1  0.16607206  0.00816846  0.47021105  1
  O  O428  1  0.16168634  0.00568314  0.79964339  1
  O  O429  1  0.16002823  0.50122256  0.13992375  1
  O  O430  1  0.16508874  0.50771899  0.47013569  1
  O  O431  1  0.15685482  0.50726664  0.79910171  1
  O  O432  1  0.66712783  0.00834158  0.12864016  1
  O  O433  1  0.66324137  0.00363974  0.47475445  1
  O  O434  1  0.67245523  0.01490152  0.80589867  1
  O  O435  1  0.66870487  0.50711638  0.13555614  1
  O  O436  1  0.67918463  0.50969264  0.47282359  1
  O  O437  1  0.67250994  0.51088926  0.80540396  1
  O  O438  1  0.00951656  0.17101825  0.30463852  1
  O  O439  1  0.00313726  0.16627487  0.63520134  1
  O  O440  1  0.01001759  0.16631570  0.97085171  1
  O  O441  1  0.00380213  0.66440782  0.30356484  1
  O  O442  1  0.00836889  0.66518163  0.63796293  1
  O  O443  1  0.00340495  0.66933714  0.97422152  1
  O  O444  1  0.50403061  0.16487950  0.29566804  1
  O  O445  1  0.50348654  0.16428213  0.64095444  1
  O  O446  1  0.51059584  0.17378090  0.97068587  1
  O  O447  1  0.50887101  0.65998102  0.29757692  1
  O  O448  1  0.50829774  0.66439580  0.63929204  1
  O  O449  1  0.50969015  0.66377127  0.96780880  1
  O  O450  1  0.33274974  0.49041543  0.19739828  1
  O  O451  1  0.33498189  0.49612364  0.53163181  1
  O  O452  1  0.32244492  0.48768183  0.86150057  1
  O  O453  1  0.33406272  0.98911891  0.20372216  1
  O  O454  1  0.33134562  0.98877919  0.53019587  1
  O  O455  1  0.33469495  0.99190540  0.86023937  1
  O  O456  1  0.83192336  0.49884341  0.19561840  1
  O  O457  1  0.84328553  0.49891766  0.53202757  1
  O  O458  1  0.83445622  0.49184263  0.86248038  1
  O  O459  1  0.83067792  0.99096009  0.20409913  1
  O  O460  1  0.83202775  0.98899647  0.52755606  1
  O  O461  1  0.84201680  1.00064580  0.85964225  1
