# generated using pymatgen
data_Na31Fe20(SO4)36
_symmetry_space_group_name_H-M   'P 1'
_cell_length_a   18.07811433
_cell_length_b   18.07808906
_cell_length_c   19.72012547
_cell_angle_alpha   107.59675239
_cell_angle_beta   107.58628630
_cell_angle_gamma   90.65633582
_symmetry_Int_Tables_number   1
_chemical_formula_structural   Na31Fe20(SO4)36
_chemical_formula_sum   'Na62 Fe40 S72 O288'
_cell_volume   5818.60050889
_cell_formula_units_Z   2
loop_
 _symmetry_equiv_pos_site_id
 _symmetry_equiv_pos_as_xyz
  1  'x, y, z'
loop_
 _atom_site_type_symbol
 _atom_site_label
 _atom_site_symmetry_multiplicity
 _atom_site_fract_x
 _atom_site_fract_y
 _atom_site_fract_z
 _atom_site_occupancy
  Na  Na0  1  0.12167651  0.36928348  0.08632701  1
  Na  Na1  1  0.13191038  0.35998012  0.41074827  1
  Na  Na2  1  0.13716545  0.36334856  0.75088434  1
  Na  Na3  1  0.13173138  0.87082804  0.08475643  1
  Na  Na4  1  0.12586262  0.87429765  0.41188483  1
  Na  Na5  1  0.13452183  0.87086120  0.75444009  1
  Na  Na6  1  0.64101639  0.36781159  0.08353741  1
  Na  Na7  1  0.63405589  0.35939188  0.41426993  1
  Na  Na8  1  0.63440988  0.36832477  0.74844097  1
  Na  Na9  1  0.63146336  0.86999052  0.09222489  1
  Na  Na10  1  0.63551357  0.85723830  0.40698584  1
  Na  Na11  1  0.64259788  0.85163770  0.74485293  1
  Na  Na12  1  0.37492992  0.13714013  0.25791336  1
  Na  Na13  1  0.35564372  0.12651960  0.56535369  1
  Na  Na14  1  0.36610727  0.12850655  0.91551851  1
  Na  Na15  1  0.36053181  0.63749087  0.24722515  1
  Na  Na16  1  0.35967258  0.63255231  0.57859273  1
  Na  Na17  1  0.37563413  0.63451840  0.92077437  1
  Na  Na18  1  0.86079910  0.12818649  0.24226664  1
  Na  Na19  1  0.86791751  0.13028065  0.57937336  1
  Na  Na20  1  0.87296237  0.13735313  0.92992977  1
  Na  Na21  1  0.86209204  0.62362607  0.24046190  1
  Na  Na22  1  0.85863294  0.65519884  0.59129053  1
  Na  Na23  1  0.86348986  0.64145575  0.92252117  1
  Na  Na24  1  0.50026780  0.01501599  0.38324387  1
  Na  Na25  1  0.99132161  0.51196994  0.75164941  1
  Na  Na26  1  0.49146234  0.49767573  0.41837965  1
  Na  Na27  1  0.96910344  0.00499010  0.29729649  1
  Na  Na28  1  0.48654044  0.54376631  0.76594471  1
  Na  Na29  1  0.99068299  0.01395560  0.75567762  1
  Na  Na30  1  0.99509314  0.52974546  0.39873640  1
  Na  Na31  1  0.49834064  0.51125785  0.08442375  1
  Na  Na32  1  0.50555664  -0.02263681  0.77612467  1
  Na  Na33  1  0.50617547  0.45616074  0.57762379  1
  Na  Na34  1  0.00884708  0.98734267  0.94018131  1
  Na  Na35  1  -0.01821017  0.53702949  0.56359750  1
  Na  Na36  1  -0.01648723  0.50070675  0.94464548  1
  Na  Na37  1  0.51203679  0.99723173  0.57797203  1
  Na  Na38  1  0.47278250  1.00809643  1.01340528  1
  Na  Na39  1  0.01323535  0.98415050  0.56759138  1
  Na  Na40  1  0.57125824  0.51290375  0.94862160  1
  Na  Na41  1  0.50778294  0.49100605  0.25041185  1
  Na  Na42  1  0.72991128  0.73689105  0.01227630  1
  Na  Na43  1  0.26906457  0.26066937  0.31992297  1
  Na  Na44  1  0.75320310  0.24807912  0.32919622  1
  Na  Na45  1  0.25123135  0.75539251  0.32468505  1
  Na  Na46  1  0.76656348  0.26009178  -0.00159822  1
  Na  Na47  1  0.24040043  0.24164211  0.02027672  1
  Na  Na48  1  0.75282074  0.25295637  0.66512649  1
  Na  Na49  1  0.25733114  0.25208470  0.66151396  1
  Na  Na50  1  0.24856492  0.75365810  0.00259789  1
  Na  Na51  1  0.23441880  0.74248918  0.66693729  1
  Na  Na52  1  0.24110057  0.74922031  0.50024171  1
  Na  Na53  1  0.74110622  0.74075606  0.18317613  1
  Na  Na54  1  0.75737700  0.24892477  0.49763992  1
  Na  Na55  1  0.75918854  0.75720654  0.49123508  1
  Na  Na56  1  0.75065153  0.24937956  0.83150298  1
  Na  Na57  1  0.76588073  0.25602598  0.16110640  1
  Na  Na58  1  0.24667246  0.24341290  0.84091067  1
  Na  Na59  1  0.73684788  0.74370394  0.83750686  1
  Na  Na60  1  0.25904333  0.24866894  0.48585716  1
  Na  Na61  1  0.26000007  0.76801765  0.83760218  1
  Fe  Fe62  1  0.46576347  0.30810294  0.11713451  1
  Fe  Fe63  1  0.46430039  0.80494445  0.45096553  1
  Fe  Fe64  1  0.96257616  0.80878705  0.78445498  1
  Fe  Fe65  1  0.45896404  0.81252932  0.12107723  1
  Fe  Fe66  1  0.96522845  0.80942524  0.12244144  1
  Fe  Fe67  1  0.96804642  0.79911481  0.45191050  1
  Fe  Fe68  1  0.46592242  0.31131359  0.78773257  1
  Fe  Fe69  1  0.96594644  0.30953110  0.45515344  1
  Fe  Fe70  1  0.96532065  0.30956656  0.78723150  1
  Fe  Fe71  1  0.46549843  0.79806157  0.79505075  1
  Fe  Fe72  1  0.19015777  0.53036239  0.37590591  1
  Fe  Fe73  1  0.69522271  0.03251219  0.04732748  1
  Fe  Fe74  1  0.18557891  0.53489743  0.71029893  1
  Fe  Fe75  1  0.68959745  0.53945040  0.71157093  1
  Fe  Fe76  1  0.70240217  0.02718086  0.37091894  1
  Fe  Fe77  1  0.19672798  0.03430949  0.71587085  1
  Fe  Fe78  1  0.69120217  0.53576374  0.38143270  1
  Fe  Fe79  1  0.20189575  0.03665527  0.04826274  1
  Fe  Fe80  1  0.69562558  0.03355165  0.71440722  1
  Fe  Fe81  1  0.19385129  0.53480605  0.04918881  1
  Fe  Fe82  1  0.53432781  0.19882849  0.54160959  1
  Fe  Fe83  1  0.03556352  0.19755140  0.21287785  1
  Fe  Fe84  1  0.03952683  0.18494893  0.54082489  1
  Fe  Fe85  1  0.03678184  0.68760073  0.21018216  1
  Fe  Fe86  1  0.53335029  0.19336973  0.21218767  1
  Fe  Fe87  1  0.53444322  0.69191760  0.54906705  1
  Fe  Fe88  1  0.03236068  0.19877009  0.88698963  1
  Fe  Fe89  1  0.53332398  0.69420589  0.21714965  1
  Fe  Fe90  1  0.53723915  0.19303412  0.87879224  1
  Fe  Fe91  1  0.03383759  0.69462504  0.88515284  1
  Fe  Fe92  1  0.80483767  0.46701523  0.61906360  1
  Fe  Fe93  1  0.81038302  0.96266532  0.95576866  1
  Fe  Fe94  1  0.29458942  0.96847876  0.29038856  1
  Fe  Fe95  1  0.30437303  0.46357633  0.61656902  1
  Fe  Fe96  1  0.80431654  0.46819873  0.96403485  1
  Fe  Fe97  1  0.30478227  0.45876715  0.27976124  1
  Fe  Fe98  1  0.80555858  0.46631570  0.28297184  1
  Fe  Fe99  1  0.30746122  0.46652579  0.95128447  1
  Fe  Fe100  1  0.30928176  0.96703883  0.62005824  1
  Fe  Fe101  1  0.80698994  0.96403050  0.61643385  1
  S  S102  1  0.36206371  0.14520969  0.08226934  1
  S  S103  1  0.36485105  0.13504718  0.41646327  1
  S  S104  1  0.36326683  0.14154889  0.75097284  1
  S  S105  1  0.35917127  0.63930795  0.08507470  1
  S  S106  1  0.35858897  0.63627758  0.41460727  1
  S  S107  1  0.34838421  0.63927899  0.74563879  1
  S  S108  1  0.86364133  0.13635263  0.08423808  1
  S  S109  1  0.86425854  0.14216930  0.41828383  1
  S  S110  1  0.86027735  0.14068624  0.74954171  1
  S  S111  1  0.86180292  0.64155415  0.08029937  1
  S  S112  1  0.86054243  0.63523816  0.42288762  1
  S  S113  1  0.85935877  0.64077996  0.74862699  1
  S  S114  1  0.14281856  0.35629703  0.25163974  1
  S  S115  1  0.14193240  0.35700036  0.58510432  1
  S  S116  1  0.14089747  0.36102646  0.91653639  1
  S  S117  1  0.13605656  0.85780929  0.24793097  1
  S  S118  1  0.14171800  0.86213691  0.58165897  1
  S  S119  1  0.13580403  0.86423492  0.91830218  1
  S  S120  1  0.63975325  0.36043290  0.24914617  1
  S  S121  1  0.64410651  0.36032216  0.58417679  1
  S  S122  1  0.64235086  0.35514735  0.91416310  1
  S  S123  1  0.63271736  0.86075435  0.25148563  1
  S  S124  1  0.63881337  0.85974876  0.58433443  1
  S  S125  1  0.64037367  0.86223123  0.91247556  1
  S  S126  1  0.07188864  0.17057347  0.04410858  1
  S  S127  1  0.06678274  0.17330317  0.37785263  1
  S  S128  1  0.06641175  0.17048593  0.71003440  1
  S  S129  1  0.06974431  0.66671356  0.03931179  1
  S  S130  1  0.06941642  0.67138952  0.37320931  1
  S  S131  1  0.06238911  0.67181798  0.71270081  1
  S  S132  1  0.57165435  0.17324449  0.04224371  1
  S  S133  1  0.57980631  0.17000086  0.37591207  1
  S  S134  1  0.56923744  0.17048213  0.70588500  1
  S  S135  1  0.56141791  0.67303161  0.05236600  1
  S  S136  1  0.56352561  0.66745782  0.37850407  1
  S  S137  1  0.55782060  0.66224592  0.70440002  1
  S  S138  1  0.33345409  0.43505639  0.12289826  1
  S  S139  1  0.33286579  0.43565869  0.45665303  1
  S  S140  1  0.33037542  0.43459616  0.78971448  1
  S  S141  1  0.32186517  0.93335708  0.12730483  1
  S  S142  1  0.33280882  0.92803016  0.45794750  1
  S  S143  1  0.33134172  0.93169635  0.78974554  1
  S  S144  1  0.83007128  0.42958179  0.12325543  1
  S  S145  1  0.82770441  0.43233118  0.45777111  1
  S  S146  1  0.83205336  0.43601917  0.79400667  1
  S  S147  1  0.82732882  0.92861154  0.12160842  1
  S  S148  1  0.83021050  0.92951763  0.45952273  1
  S  S149  1  0.83277965  0.93574088  0.79341305  1
  S  S150  1  0.44102453  0.33733226  0.29144950  1
  S  S151  1  0.43327222  0.32964909  0.62536983  1
  S  S152  1  0.43542731  0.33197080  0.95636075  1
  S  S153  1  0.42347408  0.82997091  0.29357360  1
  S  S154  1  0.43218818  0.82824437  0.62414084  1
  S  S155  1  0.42614482  0.82276264  0.95497669  1
  S  S156  1  0.93299813  0.33022884  0.29487121  1
  S  S157  1  0.93397365  0.33401834  0.62681901  1
  S  S158  1  0.92937558  0.32873484  0.95519035  1
  S  S159  1  0.93120248  0.81709927  0.28588062  1
  S  S160  1  0.93628594  0.83974184  0.62671028  1
  S  S161  1  0.92878038  0.82581560  0.95309474  1
  S  S162  1  0.17802855  0.07514272  0.21137957  1
  S  S163  1  0.17172741  0.06571206  0.54616785  1
  S  S164  1  0.16939622  0.07287925  0.87742735  1
  S  S165  1  0.17287002  0.56476955  0.20980415  1
  S  S166  1  0.16579830  0.55950443  0.53916972  1
  S  S167  1  0.16843187  0.56757337  0.87538457  1
  S  S168  1  0.66856900  0.07243948  0.20557906  1
  S  S169  1  0.67316903  0.06786286  0.54084246  1
  S  S170  1  0.67344339  0.07046263  0.87484858  1
  S  S171  1  0.66181016  0.56211906  0.21004621  1
  S  S172  1  0.66735385  0.56614260  0.54012182  1
  S  S173  1  0.67374475  0.56377619  0.87392476  1
  O  O174  1  0.37133736  0.22537475  0.07466132  1
  O  O175  1  0.37347672  0.20775719  0.40029016  1
  O  O176  1  0.37141727  0.22202807  0.74556765  1
  O  O177  1  0.36476398  0.71756230  0.07642525  1
  O  O178  1  0.36915437  0.71503517  0.40672394  1
  O  O179  1  0.36076000  0.71958032  0.74100788  1
  O  O180  1  0.86551698  0.20985262  0.06796430  1
  O  O181  1  0.86662635  0.22620377  0.41921473  1
  O  O182  1  0.86877331  0.21952533  0.74094907  1
  O  O183  1  0.87869155  0.71564680  0.06478628  1
  O  O184  1  0.87180491  0.71696650  0.42395072  1
  O  O185  1  0.87106788  0.71759003  0.73872225  1
  O  O186  1  0.27936525  0.13547162  0.08128013  1
  O  O187  1  0.29372290  0.12600681  0.43528288  1
  O  O188  1  0.28607688  0.13224702  0.76264725  1
  O  O189  1  0.28199625  0.62611030  0.09397589  1
  O  O190  1  0.28057504  0.62969492  0.42519939  1
  O  O191  1  0.26544116  0.63271501  0.74628142  1
  O  O192  1  0.78662913  0.12313460  0.09648695  1
  O  O193  1  0.78624688  0.12636544  0.42673369  1
  O  O194  1  0.77983549  0.13119803  0.75420722  1
  O  O195  1  0.78395193  0.64120660  0.08819563  1
  O  O196  1  0.77925981  0.62617646  0.42774482  1
  O  O197  1  0.78034655  0.63322295  0.75690519  1
  O  O198  1  0.13113557  0.27775079  0.26290605  1
  O  O199  1  0.12966907  0.27872783  0.59399292  1
  O  O200  1  0.13221658  0.28146792  0.92342459  1
  O  O201  1  0.13294870  0.77636672  0.25225442  1
  O  O202  1  0.13646366  0.78457037  0.58883689  1
  O  O203  1  0.12327772  0.78767041  0.93097961  1
  O  O204  1  0.63082621  0.28287768  0.25938970  1
  O  O205  1  0.63355836  0.28237938  0.59440849  1
  O  O206  1  0.63575795  0.27311691  0.91685308  1
  O  O207  1  0.61758975  0.78511842  0.26585264  1
  O  O208  1  0.62726386  0.78322235  0.59506201  1
  O  O209  1  0.64168745  0.78563501  0.92297388  1
  O  O210  1  0.22655318  0.36243951  0.25237143  1
  O  O211  1  0.22220034  0.36208694  0.57806214  1
  O  O212  1  0.21968807  0.36996411  0.90750622  1
  O  O213  1  0.21830252  0.87340008  0.24611443  1
  O  O214  1  0.21968212  0.87646166  0.57188873  1
  O  O215  1  0.21034126  0.86909325  0.90534810  1
  O  O216  1  0.71872911  0.36856486  0.24129478  1
  O  O217  1  0.72670253  0.36687512  0.58199877  1
  O  O218  1  0.72283947  0.36701627  0.90916911  1
  O  O219  1  0.70795511  0.86345862  0.23944934  1
  O  O220  1  0.71808772  0.86857865  0.57763116  1
  O  O221  1  0.71530886  0.87963512  0.89761623  1
  O  O222  1  0.41527913  0.14204091  0.15527190  1
  O  O223  1  0.43263617  0.12668133  0.48043616  1
  O  O224  1  0.42433928  0.13213913  0.81730485  1
  O  O225  1  0.42048352  0.63106309  0.15247180  1
  O  O226  1  0.41910223  0.62692813  0.48141955  1
  O  O227  1  0.40174380  0.62618005  0.81184831  1
  O  O228  1  0.92507687  0.13715273  0.15509357  1
  O  O229  1  0.92357113  0.13526913  0.48750661  1
  O  O230  1  0.91764111  0.13338918  0.81886800  1
  O  O231  1  0.92080866  0.63236440  0.14726273  1
  O  O232  1  0.91626410  0.61792145  0.48628358  1
  O  O233  1  0.91800793  0.62983909  0.81584666  1
  O  O234  1  0.37736467  0.08796608  0.01907716  1
  O  O235  1  0.36873341  0.06794707  0.34841167  1
  O  O236  1  0.36912140  0.08471926  0.68111705  1
  O  O237  1  0.36915222  0.57992339  0.01729406  1
  O  O238  1  0.36477366  0.57641244  0.34605591  1
  O  O239  1  0.35829242  0.58213204  0.67666112  1
  O  O240  1  0.87356778  0.07191706  0.02011188  1
  O  O241  1  0.87522874  0.09105266  0.35016638  1
  O  O242  1  0.87115057  0.08119101  0.68330488  1
  O  O243  1  0.86681364  0.57697066  0.01212367  1
  O  O244  1  0.86714629  0.58082613  0.35071840  1
  O  O245  1  0.86656463  0.57959937  0.68054086  1
  O  O246  1  0.08899208  0.36234698  0.18359845  1
  O  O247  1  0.08484945  0.36731207  0.51800505  1
  O  O248  1  0.08190533  0.36896143  0.84850571  1
  O  O249  1  0.08156999  0.86037293  0.17480472  1
  O  O250  1  0.08075781  0.87105400  0.51441523  1
  O  O251  1  0.07173125  0.87367774  0.85285710  1
  O  O252  1  0.58069357  0.36780961  0.18067063  1
  O  O253  1  0.58894698  0.36921726  0.51684796  1
  O  O254  1  0.58551059  0.36321512  0.84450782  1
  O  O255  1  0.57084535  0.87039628  0.18591297  1
  O  O256  1  0.58030197  0.86787074  0.51555094  1
  O  O257  1  0.57690483  0.86394109  0.84298230  1
  O  O258  1  0.13443626  0.41562461  0.32007425  1
  O  O259  1  0.13657403  0.41622732  0.65445391  1
  O  O260  1  0.13307930  0.41957002  0.98460465  1
  O  O261  1  0.12039306  0.91338966  0.31097111  1
  O  O262  1  0.13271919  0.92234556  0.64989933  1
  O  O263  1  0.13060756  0.92706318  0.98678737  1
  O  O264  1  0.63054981  0.42121747  0.31588652  1
  O  O265  1  0.63541014  0.42038742  0.65210007  1
  O  O266  1  0.62979769  0.40983623  0.98007324  1
  O  O267  1  0.62906917  0.92324733  0.32065680  1
  O  O268  1  0.63002496  0.92206856  0.65108896  1
  O  O269  1  0.63026312  0.92314139  0.97847485  1
  O  O270  1  0.03758612  0.18798256  0.10513250  1
  O  O271  1  0.02739403  0.20841581  0.43794203  1
  O  O272  1  0.02888746  0.20095666  0.77033013  1
  O  O273  1  0.03800010  0.69723199  0.10237347  1
  O  O274  1  0.03051973  0.69826233  0.43107438  1
  O  O275  1  0.03338638  0.70439619  0.77934322  1
  O  O276  1  0.53406036  0.20312614  0.10249098  1
  O  O277  1  0.54897628  0.19614458  0.43934055  1
  O  O278  1  0.53227226  0.19886097  0.76633165  1
  O  O279  1  0.52343992  0.71157980  0.11229434  1
  O  O280  1  0.52907397  0.69941317  0.44102346  1
  O  O281  1  0.51933370  0.68841475  0.76237482  1
  O  O282  1  0.30095947  0.46800539  0.05954054  1
  O  O283  1  0.29660911  0.47144365  0.39612500  1
  O  O284  1  0.29915535  0.47142412  0.72930317  1
  O  O285  1  0.29853387  0.98002730  0.07500109  1
  O  O286  1  0.30532751  0.96036274  0.39545343  1
  O  O287  1  0.30209852  0.96684275  0.72573964  1
  O  O288  1  0.79683494  0.46576027  0.06223848  1
  O  O289  1  0.79702855  0.46449381  0.39433408  1
  O  O290  1  0.80283053  0.47259452  0.73336062  1
  O  O291  1  0.79270253  0.96045644  0.05611213  1
  O  O292  1  0.80133295  0.96461326  0.39961215  1
  O  O293  1  0.80106553  0.97147264  0.73143886  1
  O  O294  1  0.47196161  0.30320302  0.22600393  1
  O  O295  1  0.47074561  0.30361711  0.56650487  1
  O  O296  1  0.47356156  0.30302055  0.89611315  1
  O  O297  1  0.45452824  0.80176060  0.22947607  1
  O  O298  1  0.46667359  0.79703871  0.56138989  1
  O  O299  1  0.46566826  0.79236965  0.89744105  1
  O  O300  1  0.97006901  0.29802634  0.23670773  1
  O  O301  1  0.97048568  0.30636329  0.56688304  1
  O  O302  1  0.96462895  0.30070203  0.89069716  1
  O  O303  1  0.97340585  0.78888387  0.22721792  1
  O  O304  1  0.97341803  0.81880310  0.56808775  1
  O  O305  1  0.96286185  0.79338389  0.89021702  1
  O  O306  1  0.20319428  0.03130874  0.26687536  1
  O  O307  1  0.20699805  0.03778283  0.61393159  1
  O  O308  1  0.19138153  0.03642277  0.93648510  1
  O  O309  1  0.20173394  0.52374229  0.26820136  1
  O  O310  1  0.19787980  0.52223619  0.60038164  1
  O  O311  1  0.20015425  0.53142677  0.93641618  1
  O  O312  1  0.69563403  0.04038923  0.26766626  1
  O  O313  1  0.70264622  0.03086377  0.60233229  1
  O  O314  1  0.70471444  0.04041622  0.93919208  1
  O  O315  1  0.69989364  0.53236979  0.27612317  1
  O  O316  1  0.69879168  0.53050491  0.60232984  1
  O  O317  1  0.70465441  0.52417974  0.93151116  1
  O  O318  1  0.09936364  0.09091156  0.03113134  1
  O  O319  1  0.07767104  0.09333720  0.37553176  1
  O  O320  1  0.08096426  0.08751463  0.70357551  1
  O  O321  1  0.08926670  0.58509608  0.03486090  1
  O  O322  1  0.09419172  0.59240834  0.37472165  1
  O  O323  1  0.08105339  0.58933511  0.70926685  1
  O  O324  1  0.58868098  0.09158968  0.03640428  1
  O  O325  1  0.59787815  0.08768286  0.36550461  1
  O  O326  1  0.58861769  0.08869844  0.70034241  1
  O  O327  1  0.57990590  0.59635042  0.06198491  1
  O  O328  1  0.57703020  0.58397149  0.37286617  1
  O  O329  1  0.57423600  0.57835156  0.69637854  1
  O  O330  1  0.41661190  0.42032363  0.12681889  1
  O  O331  1  0.41489127  0.42775595  0.46089007  1
  O  O332  1  0.41245301  0.41907234  0.79491708  1
  O  O333  1  0.40142881  0.91242248  0.13116245  1
  O  O334  1  0.41661010  0.91189338  0.46888787  1
  O  O335  1  0.40740102  0.90115435  0.78610285  1
  O  O336  1  0.90884467  0.41298406  0.12995107  1
  O  O337  1  0.91036102  0.41649879  0.46609281  1
  O  O338  1  0.91529275  0.42041939  0.80014258  1
  O  O339  1  0.90369080  0.90199327  0.11594410  1
  O  O340  1  0.90930685  0.90462992  0.46247633  1
  O  O341  1  0.91624053  0.92222234  0.79866716  1
  O  O342  1  0.41591651  0.41675489  0.28723267  1
  O  O343  1  0.41420438  0.41223349  0.63221420  1
  O  O344  1  0.41633843  0.41343165  0.96150136  1
  O  O345  1  0.39943556  0.91039255  0.30012653  1
  O  O346  1  0.41895884  0.91191090  0.63150325  1
  O  O347  1  0.39742311  0.89728972  0.95218288  1
  O  O348  1  0.91161756  0.41069101  0.29771631  1
  O  O349  1  0.91354809  0.41558402  0.63298823  1
  O  O350  1  0.90132505  0.40647455  0.95374267  1
  O  O351  1  0.90733915  0.89325644  0.28542982  1
  O  O352  1  0.91878908  0.92404308  0.64067735  1
  O  O353  1  0.91512068  0.90814793  0.95690536  1
  O  O354  1  0.10156645  0.10274539  0.21414767  1
  O  O355  1  0.09041069  0.08376447  0.54701363  1
  O  O356  1  0.08696945  0.09399033  0.86520740  1
  O  O357  1  0.09339639  0.58452123  0.20566783  1
  O  O358  1  0.08420489  0.57180102  0.53233295  1
  O  O359  1  0.08617730  0.58389645  0.87070621  1
  O  O360  1  0.58712921  0.09317957  0.19480527  1
  O  O361  1  0.59110944  0.08464974  0.53558128  1
  O  O362  1  0.59135176  0.08844356  0.86822691  1
  O  O363  1  0.58310155  0.58603981  0.21696867  1
  O  O364  1  0.58493494  0.58147781  0.53569405  1
  O  O365  1  0.59272019  0.57735297  0.87050409  1
  O  O366  1  0.13504976  0.23038166  0.05771995  1
  O  O367  1  0.13950163  0.22468467  0.39749781  1
  O  O368  1  0.14034348  0.22039082  0.72930389  1
  O  O369  1  0.13669271  0.71754423  0.04584505  1
  O  O370  1  0.13872221  0.72595711  0.38802943  1
  O  O371  1  0.13304245  0.72248472  0.72469215  1
  O  O372  1  0.64327987  0.22471068  0.05875250  1
  O  O373  1  0.65101178  0.22212643  0.38990266  1
  O  O374  1  0.64067328  0.22341186  0.72337870  1
  O  O375  1  0.63367811  0.72447235  0.06858443  1
  O  O376  1  0.63608688  0.71563461  0.39415956  1
  O  O377  1  0.63104732  0.71185634  0.72260670  1
  O  O378  1  0.28455329  0.36427191  0.11065056  1
  O  O379  1  0.28661923  0.36061024  0.44085351  1
  O  O380  1  0.27992893  0.36172441  0.77306812  1
  O  O381  1  0.26528023  0.86395832  0.10365931  1
  O  O382  1  0.28260840  0.85652249  0.44398114  1
  O  O383  1  0.27275427  0.86527189  0.77459941  1
  O  O384  1  0.77488347  0.35856894  0.10645323  1
  O  O385  1  0.77695901  0.36112490  0.44432140  1
  O  O386  1  0.78174648  0.36264641  0.77562416  1
  O  O387  1  0.77214316  0.86197271  0.11124574  1
  O  O388  1  0.77520792  0.86407891  0.45181473  1
  O  O389  1  0.78480456  0.86326138  0.77828539  1
  O  O390  1  0.37482689  0.28487160  0.28338246  1
  O  O391  1  0.36183540  0.27706634  0.60859432  1
  O  O392  1  0.36536819  0.27857153  0.93921861  1
  O  O393  1  0.35808082  0.77545324  0.28507172  1
  O  O394  1  0.35865228  0.77902672  0.60689365  1
  O  O395  1  0.35939733  0.76449460  0.94171496  1
  O  O396  1  0.86198874  0.27792007  0.28164165  1
  O  O397  1  0.86408437  0.28017179  0.61162603  1
  O  O398  1  0.86080776  0.27148588  0.93674792  1
  O  O399  1  0.86519580  0.75820171  0.26835698  1
  O  O400  1  0.86381705  0.78848846  0.60729369  1
  O  O401  1  0.85498459  0.77800131  0.93653045  1
  O  O402  1  0.23755806  0.14012816  0.22843348  1
  O  O403  1  0.21977505  0.13890356  0.55904888  1
  O  O404  1  0.22410173  0.14337213  0.89544568  1
  O  O405  1  0.22782268  0.63416816  0.22906660  1
  O  O406  1  0.21650983  0.63290117  0.55813681  1
  O  O407  1  0.21851112  0.63914464  0.88998975  1
  O  O408  1  0.72224555  0.14241978  0.21901678  1
  O  O409  1  0.72519610  0.14050006  0.56015571  1
  O  O410  1  0.72489032  0.13988159  0.88494515  1
  O  O411  1  0.71262320  0.62884026  0.21624154  1
  O  O412  1  0.71685505  0.63680804  0.55334685  1
  O  O413  1  0.72393313  0.63728948  0.89228035  1
  O  O414  1  0.49472869  0.33540920  0.02924086  1
  O  O415  1  0.50516177  0.35321401  0.36191808  1
  O  O416  1  0.49144804  0.33240318  0.69921092  1
  O  O417  1  0.48537854  0.83218915  0.03065834  1
  O  O418  1  0.48978187  0.83656884  0.36429431  1
  O  O419  1  0.49115190  0.82722639  0.69534454  1
  O  O420  1  0.99016185  0.33473599  0.02409688  1
  O  O421  1  0.99134502  0.33840940  0.37056613  1
  O  O422  1  0.99324553  0.33828683  0.70053059  1
  O  O423  1  0.98788111  0.82442235  0.02343370  1
  O  O424  1  0.98994853  0.82189825  0.36032370  1
  O  O425  1  0.99359051  0.83743187  0.69935819  1
  O  O426  1  0.16733085  0.01815767  0.13457556  1
  O  O427  1  0.16888909  0.00423208  0.47849138  1
  O  O428  1  0.16938763  0.01379352  0.80463341  1
  O  O429  1  0.17171066  0.50621365  0.13685660  1
  O  O430  1  0.16928390  0.50253163  0.46758667  1
  O  O431  1  0.16509425  0.50754075  0.80253413  1
  O  O432  1  0.66797459  0.01014770  0.13461455  1
  O  O433  1  0.67325052  0.01034760  0.46914829  1
  O  O434  1  0.66816883  0.00708249  0.80306326  1
  O  O435  1  0.64548974  0.49649436  0.14066497  1
  O  O436  1  0.66371890  0.50433371  0.46807590  1
  O  O437  1  0.67290699  0.50869989  0.79889102  1
  O  O438  1  0.01096915  0.17597296  0.30430354  1
  O  O439  1  0.01018904  0.17242648  0.63777809  1
  O  O440  1  0.00779088  0.16526079  0.97175922  1
  O  O441  1  0.01163202  0.66095475  0.29793196  1
  O  O442  1  -0.00116605  0.66634980  0.64405278  1
  O  O443  1  0.00419838  0.65759946  0.96678649  1
  O  O444  1  0.51786059  0.17327378  0.30677814  1
  O  O445  1  0.51108261  0.16770819  0.63290701  1
  O  O446  1  0.51243103  0.17238149  0.96990656  1
  O  O447  1  0.50338306  0.66746358  0.30749156  1
  O  O448  1  0.50165781  0.66136280  0.63014672  1
  O  O449  1  0.50669755  0.66181928  0.97757376  1
  O  O450  1  0.33675912  0.49599342  0.19469571  1
  O  O451  1  0.33136431  0.49163326  0.53031947  1
  O  O452  1  0.33011743  0.49235769  0.86218913  1
  O  O453  1  0.32449434  0.98620737  0.20418957  1
  O  O454  1  0.33416695  0.98918028  0.52972813  1
  O  O455  1  0.34249183  0.99395308  0.86008732  1
  O  O456  1  0.82312743  0.48887394  0.19374480  1
  O  O457  1  0.82926052  0.49383513  0.52927551  1
  O  O458  1  0.83358133  0.49291999  0.86718499  1
  O  O459  1  0.84101923  0.99255220  0.19196441  1
  O  O460  1  0.84078282  0.99271843  0.53457839  1
  O  O461  1  0.83514795  0.99551427  0.86591412  1
