# generated using pymatgen
data_Na31Fe20(SO4)36
_symmetry_space_group_name_H-M   'P 1'
_cell_length_a   18.07722927
_cell_length_b   18.08584747
_cell_length_c   19.71886891
_cell_angle_alpha   107.61461426
_cell_angle_beta   107.56035902
_cell_angle_gamma   90.68749757
_symmetry_Int_Tables_number   1
_chemical_formula_structural   Na31Fe20(SO4)36
_chemical_formula_sum   'Na62 Fe40 S72 O288'
_cell_volume   5820.33326864
_cell_formula_units_Z   2
loop_
 _symmetry_equiv_pos_site_id
 _symmetry_equiv_pos_as_xyz
  1  'x, y, z'
loop_
 _atom_site_type_symbol
 _atom_site_label
 _atom_site_symmetry_multiplicity
 _atom_site_fract_x
 _atom_site_fract_y
 _atom_site_fract_z
 _atom_site_occupancy
  Na  Na0  1  0.14861433  0.36594274  0.08612076  1
  Na  Na1  1  0.13274039  0.36674902  0.41943205  1
  Na  Na2  1  0.14568653  0.37637100  0.77004518  1
  Na  Na3  1  0.13619826  0.85845892  0.07574490  1
  Na  Na4  1  0.13632916  0.87426218  0.42348713  1
  Na  Na5  1  0.13796501  0.83153002  0.72261872  1
  Na  Na6  1  0.62297177  0.36185236  0.06886416  1
  Na  Na7  1  0.64204247  0.37146622  0.42117981  1
  Na  Na8  1  0.64202097  0.36185296  0.74998224  1
  Na  Na9  1  0.62965499  0.85831401  0.07795664  1
  Na  Na10  1  0.64057387  0.86769504  0.42909076  1
  Na  Na11  1  0.62455460  0.86979040  0.75262807  1
  Na  Na12  1  0.36714959  0.13180108  0.24633041  1
  Na  Na13  1  0.37071760  0.13796962  0.58735845  1
  Na  Na14  1  0.38326306  0.12556537  0.91201070  1
  Na  Na15  1  0.35629690  0.62338156  0.23127401  1
  Na  Na16  1  0.36180828  0.66060555  0.61167550  1
  Na  Na17  1  0.35403631  0.63776551  0.90941378  1
  Na  Na18  1  0.86510397  0.13517641  0.25453780  1
  Na  Na19  1  0.86929513  0.11773973  0.58486482  1
  Na  Na20  1  0.87236795  0.12706862  0.91863260  1
  Na  Na21  1  0.86452376  0.63489518  0.24803560  1
  Na  Na22  1  0.86184326  0.63595156  0.57589629  1
  Na  Na23  1  0.86416741  0.63444342  0.91173791  1
  Na  Na24  1  0.98895577  0.54927326  0.42977051  1
  Na  Na25  1  0.95868557  0.00232453  0.73908770  1
  Na  Na26  1  1.00384693  0.00229950  0.06225638  1
  Na  Na27  1  1.02349360  0.49116740  0.07672695  1
  Na  Na28  1  0.51989705  0.50404892  0.40079296  1
  Na  Na29  1  0.48600984  0.50587569  0.77507659  1
  Na  Na30  1  0.49285911  -0.00181664  0.05789113  1
  Na  Na31  1  0.98653405  0.51133760  0.74882052  1
  Na  Na32  1  0.49308985  0.00634413  0.41696483  1
  Na  Na33  1  0.51363256  0.98653950  0.60679750  1
  Na  Na34  1  0.00721781  0.49198502  0.25281446  1
  Na  Na35  1  0.00706205  0.49815516  0.58205432  1
  Na  Na36  1  0.48869372  0.51279092  0.58363255  1
  Na  Na37  1  0.50889952  0.95354697  0.22698928  1
  Na  Na38  1  0.44464522  0.51640677  0.98927370  1
  Na  Na39  1  0.53905988  0.49714731  0.23677215  1
  Na  Na40  1  0.05474059  0.50054585  0.92894502  1
  Na  Na41  1  0.00738749  0.98407997  0.26255380  1
  Na  Na42  1  0.26578159  0.26585811  -0.00777554  1
  Na  Na43  1  0.24504229  0.24754248  0.67283097  1
  Na  Na44  1  0.75717631  0.75877157  -0.01217638  1
  Na  Na45  1  0.24391465  0.74350417  0.33675553  1
  Na  Na46  1  0.25070523  0.24909780  0.33135483  1
  Na  Na47  1  0.73374250  0.23572824  0.00046912  1
  Na  Na48  1  0.73958533  0.74011028  0.33804864  1
  Na  Na49  1  0.74078326  0.74802367  0.67712264  1
  Na  Na50  1  0.74285274  0.24483438  0.34124887  1
  Na  Na51  1  0.26674677  0.76317937  -0.01009429  1
  Na  Na52  1  0.24841454  0.24697769  0.50283303  1
  Na  Na53  1  0.74493459  0.74753172  0.50373578  1
  Na  Na54  1  0.25952284  0.75165129  0.15613697  1
  Na  Na55  1  0.26016577  0.25553433  0.16243054  1
  Na  Na56  1  0.75173437  0.74869109  0.16523250  1
  Na  Na57  1  0.74392621  0.23872522  0.51961609  1
  Na  Na58  1  0.25959121  0.25961679  0.83643954  1
  Na  Na59  1  0.23059140  0.74286032  0.52396038  1
  Na  Na60  1  0.74339301  0.24394284  0.83417060  1
  Na  Na61  1  0.74573509  0.25129156  0.17266519  1
  Fe  Fe62  1  0.96198159  0.30728972  0.11827655  1
  Fe  Fe63  1  0.46783709  0.30310463  0.11745493  1
  Fe  Fe64  1  0.96701209  0.80306512  0.77882263  1
  Fe  Fe65  1  0.96851623  0.80497286  0.46002556  1
  Fe  Fe66  1  0.46928318  0.30564518  0.45505544  1
  Fe  Fe67  1  0.47148250  0.29825254  0.79295686  1
  Fe  Fe68  1  0.96302298  0.31123277  0.78596534  1
  Fe  Fe69  1  0.46066956  0.80786187  0.45029124  1
  Fe  Fe70  1  0.96269481  0.30815739  0.45224376  1
  Fe  Fe71  1  0.96495222  0.80644966  0.11831778  1
  Fe  Fe72  1  0.19346429  0.53513414  0.38769135  1
  Fe  Fe73  1  0.19018659  0.03812159  0.71116489  1
  Fe  Fe74  1  0.69827687  0.02790933  0.38346385  1
  Fe  Fe75  1  0.70242941  0.03204251  0.71489615  1
  Fe  Fe76  1  0.69120577  0.03308421  0.04223149  1
  Fe  Fe77  1  0.19476572  0.03559508  0.37970501  1
  Fe  Fe78  1  0.18841275  0.03526363  0.03898239  1
  Fe  Fe79  1  0.68289054  0.53781014  0.03725032  1
  Fe  Fe80  1  0.19294891  0.53639452  0.71853989  1
  Fe  Fe81  1  0.69143780  0.53718428  0.71488621  1
  Fe  Fe82  1  0.52835959  0.69716909  0.55285485  1
  Fe  Fe83  1  0.03674211  0.69277323  0.88061241  1
  Fe  Fe84  1  0.03276060  0.19441505  0.21507396  1
  Fe  Fe85  1  0.52695516  0.70012022  0.20229261  1
  Fe  Fe86  1  0.03688359  0.68846640  0.21184442  1
  Fe  Fe87  1  0.52735254  0.70811489  0.87799283  1
  Fe  Fe88  1  0.54015633  0.19304585  0.55112191  1
  Fe  Fe89  1  0.03250174  0.19433021  0.54805579  1
  Fe  Fe90  1  0.03292646  0.19148018  0.87984483  1
  Fe  Fe91  1  0.53720859  0.18758179  0.21234691  1
  Fe  Fe92  1  0.79597559  0.47535031  0.28793765  1
  Fe  Fe93  1  0.30978784  0.96524377  0.62126934  1
  Fe  Fe94  1  0.80689411  0.95710064  0.94731784  1
  Fe  Fe95  1  0.30755686  0.96469223  0.28099915  1
  Fe  Fe96  1  0.30968625  0.46194414  0.62290102  1
  Fe  Fe97  1  0.30745939  0.46473563  0.28801880  1
  Fe  Fe98  1  0.81629624  0.95990069  0.29357376  1
  Fe  Fe99  1  0.80755250  0.46903831  0.95088483  1
  Fe  Fe100  1  0.29929773  0.95961335  0.93202685  1
  Fe  Fe101  1  0.80429547  0.46782100  0.61665347  1
  S  S102  1  0.36013267  0.13683205  0.08114078  1
  S  S103  1  0.36130501  0.14063495  0.41435180  1
  S  S104  1  0.35616549  0.14051747  0.74394996  1
  S  S105  1  0.35376702  0.64740666  0.08582831  1
  S  S106  1  0.35784655  0.64003091  0.41888000  1
  S  S107  1  0.36417307  0.63318923  0.75213325  1
  S  S108  1  0.86113804  0.13880951  0.08496146  1
  S  S109  1  0.85954953  0.14037184  0.41745031  1
  S  S110  1  0.86141418  0.14628091  0.75287408  1
  S  S111  1  0.85878239  0.63893597  0.08367025  1
  S  S112  1  0.85613845  0.64600004  0.41178377  1
  S  S113  1  0.85884571  0.64002710  0.74872472  1
  S  S114  1  0.13834033  0.35998149  0.25183920  1
  S  S115  1  0.13896480  0.36052542  0.58373939  1
  S  S116  1  0.13530727  0.35700597  0.92167304  1
  S  S117  1  0.14166565  0.85890436  0.24890492  1
  S  S118  1  0.13878782  0.86588790  0.57961966  1
  S  S119  1  0.13610937  0.85986731  0.91599811  1
  S  S120  1  0.63854590  0.35928987  0.25233140  1
  S  S121  1  0.64171486  0.36135223  0.58170558  1
  S  S122  1  0.64506649  0.36122129  0.91253392  1
  S  S123  1  0.64560771  0.85692107  0.25053303  1
  S  S124  1  0.63574363  0.86025324  0.58352721  1
  S  S125  1  0.64496075  0.85962195  0.92194143  1
  S  S126  1  0.06856480  0.17456730  0.04753038  1
  S  S127  1  0.06743380  0.17210239  0.37610499  1
  S  S128  1  0.06893236  0.17787331  0.71221374  1
  S  S129  1  0.06365975  0.66951850  0.04587953  1
  S  S130  1  0.06696039  0.67037359  0.37556602  1
  S  S131  1  0.05855873  0.65474674  0.70314397  1
  S  S132  1  0.56936099  0.16856502  0.04636240  1
  S  S133  1  0.56980898  0.16649538  0.37597870  1
  S  S134  1  0.57049001  0.16879301  0.70750190  1
  S  S135  1  0.56854388  0.67436412  0.03946653  1
  S  S136  1  0.56006546  0.67445730  0.36907246  1
  S  S137  1  0.56669829  0.66761535  0.70934346  1
  S  S138  1  0.34118910  0.42692007  0.13245903  1
  S  S139  1  0.33140094  0.42935766  0.45839935  1
  S  S140  1  0.33505676  0.42803477  0.79152466  1
  S  S141  1  0.32414420  0.94031720  0.12010009  1
  S  S142  1  0.32997951  0.93672761  0.45375372  1
  S  S143  1  0.32462984  0.93627508  0.78300471  1
  S  S144  1  0.82657703  0.43067481  0.12334330  1
  S  S145  1  0.83194510  0.43486771  0.45578259  1
  S  S146  1  0.83187283  0.43598187  0.79020168  1
  S  S147  1  0.83532090  0.93311057  0.12953734  1
  S  S148  1  0.83039321  0.92526256  0.45662466  1
  S  S149  1  0.83179241  0.93099411  0.79154325  1
  S  S150  1  0.43420572  0.32631868  0.29350380  1
  S  S151  1  0.43736351  0.32891937  0.62454538  1
  S  S152  1  0.43052408  0.32056135  0.95275122  1
  S  S153  1  0.43648946  0.83431562  0.29151317  1
  S  S154  1  0.43016999  0.83227874  0.61965549  1
  S  S155  1  0.43394416  0.83490036  0.95847849  1
  S  S156  1  0.93220411  0.33520801  0.29191405  1
  S  S157  1  0.93409056  0.33474823  0.62502298  1
  S  S158  1  0.92994592  0.33500317  0.96043629  1
  S  S159  1  0.93700149  0.82449351  0.29122290  1
  S  S160  1  0.93155304  0.82492124  0.61892788  1
  S  S161  1  0.93479088  0.82613076  0.95935843  1
  S  S162  1  0.16426112  0.06591055  0.20641216  1
  S  S163  1  0.17063404  0.07563413  0.53989145  1
  S  S164  1  0.16701791  0.07095690  0.87307618  1
  S  S165  1  0.16756672  0.56071225  0.21399921  1
  S  S166  1  0.17021932  0.55972894  0.54503525  1
  S  S167  1  0.16674624  0.56992852  0.87834334  1
  S  S168  1  0.67306382  0.06304639  0.21113284  1
  S  S169  1  0.66981208  0.06614341  0.54140446  1
  S  S170  1  0.68061675  0.06768027  0.88081335  1
  S  S171  1  0.66777387  0.57433523  0.20228469  1
  S  S172  1  0.66362882  0.56770055  0.54240275  1
  S  S173  1  0.66935228  0.57406915  0.87484858  1
  O  O174  1  0.37048833  0.21628637  0.07456650  1
  O  O175  1  0.37157383  0.21975278  0.40688796  1
  O  O176  1  0.36983511  0.21872339  0.73352019  1
  O  O177  1  0.35398185  0.73011929  0.08952767  1
  O  O178  1  0.36437935  0.71735776  0.40706889  1
  O  O179  1  0.36868591  0.70597212  0.73727562  1
  O  O180  1  0.86904466  0.21653723  0.07356621  1
  O  O181  1  0.86867540  0.21839994  0.40608964  1
  O  O182  1  0.87079841  0.22676787  0.74893644  1
  O  O183  1  0.86595323  0.72007985  0.07987940  1
  O  O184  1  0.87679797  0.72327856  0.40126622  1
  O  O185  1  0.86887186  0.71793850  0.73954331  1
  O  O186  1  0.28123573  0.13067206  0.09078894  1
  O  O187  1  0.28065600  0.13342644  0.41947771  1
  O  O188  1  0.27331136  0.13919592  0.74718069  1
  O  O189  1  0.28813733  0.62367268  0.10678773  1
  O  O190  1  0.27920920  0.63098871  0.42814830  1
  O  O191  1  0.28937128  0.61707677  0.76525065  1
  O  O192  1  0.78064682  0.12988622  0.08989989  1
  O  O193  1  0.77861344  0.13121066  0.42137659  1
  O  O194  1  0.78198264  0.13482607  0.75909991  1
  O  O195  1  0.78069402  0.62652052  0.09204242  1
  O  O196  1  0.77553106  0.64575141  0.41242169  1
  O  O197  1  0.78033010  0.63108684  0.75619949  1
  O  O198  1  0.12862902  0.28105630  0.26023189  1
  O  O199  1  0.13049291  0.28102274  0.59049730  1
  O  O200  1  0.12201154  0.27725643  0.92958364  1
  O  O201  1  0.13325466  0.77983178  0.25634999  1
  O  O202  1  0.13937033  0.78983242  0.59064386  1
  O  O203  1  0.12776337  0.78474386  0.93260423  1
  O  O204  1  0.63265274  0.27814691  0.25808510  1
  O  O205  1  0.63413752  0.28024279  0.58383853  1
  O  O206  1  0.64462715  0.28420915  0.92168811  1
  O  O207  1  0.62981552  0.77549611  0.25311842  1
  O  O208  1  0.62175852  0.78086416  0.59126927  1
  O  O209  1  0.62806178  0.78181098  0.93222452  1
  O  O210  1  0.21815859  0.36741098  0.24522819  1
  O  O211  1  0.21635545  0.36787923  0.57165674  1
  O  O212  1  0.21211779  0.36127933  0.91217782  1
  O  O213  1  0.22034388  0.86886689  0.24058110  1
  O  O214  1  0.21240603  0.88256738  0.56250099  1
  O  O215  1  0.21718836  0.86877022  0.91455976  1
  O  O216  1  0.72026381  0.37246485  0.25111726  1
  O  O217  1  0.71883608  0.37220769  0.56963625  1
  O  O218  1  0.72141573  0.37833595  0.89995070  1
  O  O219  1  0.72805373  0.86246846  0.24987477  1
  O  O220  1  0.71007853  0.86470102  0.56996386  1
  O  O221  1  0.72949990  0.86124011  0.92587290  1
  O  O222  1  0.41938978  0.12931329  0.14988832  1
  O  O223  1  0.41854055  0.13141554  0.48231228  1
  O  O224  1  0.41074838  0.13064224  0.80977262  1
  O  O225  1  0.42721663  0.63827752  0.14865083  1
  O  O226  1  0.41736873  0.63389424  0.48744899  1
  O  O227  1  0.42802523  0.62936295  0.82155049  1
  O  O228  1  0.91722510  0.13707686  0.15748351  1
  O  O229  1  0.91568618  0.13831614  0.48883830  1
  O  O230  1  0.91899874  0.13891977  0.82398807  1
  O  O231  1  0.91914597  0.62894630  0.14992214  1
  O  O232  1  0.91054833  0.63440375  0.47847882  1
  O  O233  1  0.91849112  0.63167877  0.81650657  1
  O  O234  1  0.36797709  0.07724346  0.01406395  1
  O  O235  1  0.36992674  0.08157357  0.34645022  1
  O  O236  1  0.35994071  0.08099975  0.67328921  1
  O  O237  1  0.35961703  0.59855965  0.01371152  1
  O  O238  1  0.36634378  0.57923286  0.35204033  1
  O  O239  1  0.37659117  0.56775032  0.68805076  1
  O  O240  1  0.87597316  0.07753624  0.02243721  1
  O  O241  1  0.87079170  0.08020941  0.35206681  1
  O  O242  1  0.87397266  0.08820851  0.68889652  1
  O  O243  1  0.86642309  0.58339306  0.01364092  1
  O  O244  1  0.86474967  0.58466093  0.34319137  1
  O  O245  1  0.86746275  0.57924228  0.68122812  1
  O  O246  1  0.07994256  0.36846889  0.18374243  1
  O  O247  1  0.07812923  0.36948992  0.51676457  1
  O  O248  1  0.07520866  0.36615002  0.85243181  1
  O  O249  1  0.08198751  0.86869966  0.18222287  1
  O  O250  1  0.07429500  0.86611254  0.50900476  1
  O  O251  1  0.08100064  0.85889536  0.84295347  1
  O  O252  1  0.58444039  0.36386695  0.17984672  1
  O  O253  1  0.58034894  0.37276000  0.51641574  1
  O  O254  1  0.58262273  0.36645703  0.84522802  1
  O  O255  1  0.59282399  0.87032401  0.18411187  1
  O  O256  1  0.57193491  0.87240377  0.51956913  1
  O  O257  1  0.59444425  0.86794620  0.85343389  1
  O  O258  1  0.12915934  0.41909628  0.31939216  1
  O  O259  1  0.13252652  0.41912042  0.65235112  1
  O  O260  1  0.12531565  0.41565973  0.98763279  1
  O  O261  1  0.13343990  0.91815003  0.31745683  1
  O  O262  1  0.12818269  0.92685886  0.64422975  1
  O  O263  1  0.12150178  0.92302605  0.97866738  1
  O  O264  1  0.62154421  0.41574025  0.31530483  1
  O  O265  1  0.63689153  0.41703823  0.65245531  1
  O  O266  1  0.63748811  0.42043417  0.98112044  1
  O  O267  1  0.63576940  0.91315092  0.31990939  1
  O  O268  1  0.63200521  0.91975758  0.65391099  1
  O  O269  1  0.63731151  0.92008868  0.99038770  1
  O  O270  1  0.03013733  0.20317218  0.10787130  1
  O  O271  1  0.03157789  0.20109191  0.43726172  1
  O  O272  1  0.02977213  0.20583143  0.77146136  1
  O  O273  1  0.02551264  0.70613447  0.10595785  1
  O  O274  1  0.03091529  0.70228933  0.43494687  1
  O  O275  1  0.03109984  0.69484729  0.77030783  1
  O  O276  1  0.53429502  0.20088297  0.11021987  1
  O  O277  1  0.53150013  0.19654239  0.43562613  1
  O  O278  1  0.53132344  0.19640279  0.76418168  1
  O  O279  1  0.53530695  0.70117290  0.10213410  1
  O  O280  1  0.52189518  0.70446193  0.42893210  1
  O  O281  1  0.53942535  0.69585883  0.77471438  1
  O  O282  1  0.32324264  0.45598524  0.07007910  1
  O  O283  1  0.29973660  0.46545269  0.39764598  1
  O  O284  1  0.29743346  0.45486435  0.72405897  1
  O  O285  1  0.28726683  0.97463400  0.05913970  1
  O  O286  1  0.30141680  0.97358754  0.39188934  1
  O  O287  1  0.28738496  0.97506153  0.72205778  1
  O  O288  1  0.80121638  0.46517008  0.06135921  1
  O  O289  1  0.81233795  0.47260733  0.39741721  1
  O  O290  1  0.79968573  0.47066676  0.72773730  1
  O  O291  1  0.80721889  0.97162680  0.07127873  1
  O  O292  1  0.80230513  0.96397086  0.39449951  1
  O  O293  1  0.80411291  0.97264791  0.73587955  1
  O  O294  1  0.46888787  0.29600739  0.23198554  1
  O  O295  1  0.47285576  0.29761495  0.56202615  1
  O  O296  1  0.47329294  0.29538093  0.89780657  1
  O  O297  1  0.47686597  0.80580457  0.23448829  1
  O  O298  1  0.46010704  0.79638296  0.55277229  1
  O  O299  1  0.46539984  0.80044802  0.89437258  1
  O  O300  1  0.96796327  0.30317893  0.23009782  1
  O  O301  1  0.96984381  0.30273575  0.56332032  1
  O  O302  1  0.96385690  0.30362514  0.89885691  1
  O  O303  1  0.97649915  0.79632025  0.23199596  1
  O  O304  1  0.96625493  0.79773883  0.55573465  1
  O  O305  1  0.96746395  0.79657060  0.89617421  1
  O  O306  1  0.19653926  0.03035451  0.26788677  1
  O  O307  1  0.19703641  0.04036211  0.60056795  1
  O  O308  1  0.20002810  0.03262120  0.93308521  1
  O  O309  1  0.19941590  0.52979534  0.27977991  1
  O  O310  1  0.20774911  0.52748154  0.60824235  1
  O  O311  1  0.18326133  0.53616072  0.93821862  1
  O  O312  1  0.70234024  0.02672102  0.27218360  1
  O  O313  1  0.68885620  0.03292289  0.60272288  1
  O  O314  1  0.71418143  0.02511906  0.93938633  1
  O  O315  1  0.68994805  0.53299976  0.25856651  1
  O  O316  1  0.69741847  0.53412926  0.60592303  1
  O  O317  1  0.69927512  0.53748908  0.93621975  1
  O  O318  1  0.08685020  0.09332636  0.04368128  1
  O  O319  1  0.08663860  0.09068559  0.36765643  1
  O  O320  1  0.09013515  0.09873071  0.70907308  1
  O  O321  1  0.07412728  0.58936087  0.04625796  1
  O  O322  1  0.08329077  0.58780362  0.37418400  1
  O  O323  1  0.07923831  0.57403957  0.70755185  1
  O  O324  1  0.59267220  0.09024085  0.05112267  1
  O  O325  1  0.58683288  0.08468782  0.37051669  1
  O  O326  1  0.59579111  0.08991683  0.70524881  1
  O  O327  1  0.57674393  0.58890584  0.02365322  1
  O  O328  1  0.56833309  0.59116903  0.35800896  1
  O  O329  1  0.58426456  0.58387348  0.69935431  1
  O  O330  1  0.42496883  0.40823715  0.15476252  1
  O  O331  1  0.41290986  0.41158458  0.46179694  1
  O  O332  1  0.41164854  0.40074791  0.78533339  1
  O  O333  1  0.40517325  0.93057059  0.12323143  1
  O  O334  1  0.41283734  0.92154106  0.46036062  1
  O  O335  1  0.40009348  0.91739537  0.77795731  1
  O  O336  1  0.91070297  0.41469960  0.13486003  1
  O  O337  1  0.91515726  0.41510737  0.46903824  1
  O  O338  1  0.91521765  0.42285410  0.79539399  1
  O  O339  1  0.91822724  0.91553538  0.13491836  1
  O  O340  1  0.90663896  0.89567064  0.45162993  1
  O  O341  1  0.90996482  0.90628513  0.78864328  1
  O  O342  1  0.41582050  0.40828796  0.30277457  1
  O  O343  1  0.42323104  0.41201647  0.63091384  1
  O  O344  1  0.39895060  0.39391525  0.95218431  1
  O  O345  1  0.41837737  0.91641293  0.29222118  1
  O  O346  1  0.41326794  0.91338598  0.61816610  1
  O  O347  1  0.40123072  0.90895363  0.94957803  1
  O  O348  1  0.91701529  0.41717280  0.29702094  1
  O  O349  1  0.91621818  0.41651959  0.62701235  1
  O  O350  1  0.91522417  0.41808907  0.96655199  1
  O  O351  1  0.92250462  0.90707698  0.29654410  1
  O  O352  1  0.91638428  0.90557608  0.63066357  1
  O  O353  1  0.91223527  0.90628988  0.96380664  1
  O  O354  1  0.08241964  0.08327458  0.20375336  1
  O  O355  1  0.09085512  0.09762222  0.53294038  1
  O  O356  1  0.08577520  0.08692583  0.87164695  1
  O  O357  1  0.08453261  0.57863088  0.20988021  1
  O  O358  1  0.08766827  0.56562463  0.53912621  1
  O  O359  1  0.08019265  0.58565667  0.86050834  1
  O  O360  1  0.58972187  0.07769447  0.20339656  1
  O  O361  1  0.58693864  0.08777854  0.52670958  1
  O  O362  1  0.60694963  0.09168906  0.88708388  1
  O  O363  1  0.58874152  0.60157814  0.20088868  1
  O  O364  1  0.58237181  0.58797979  0.54163022  1
  O  O365  1  0.59010885  0.59699230  0.87207689  1
  O  O366  1  0.14010276  0.22662361  0.06629579  1
  O  O367  1  0.13835468  0.22506837  0.39218014  1
  O  O368  1  0.13802257  0.23381476  0.72946722  1
  O  O369  1  0.13665093  0.71875513  0.06311216  1
  O  O370  1  0.13970708  0.71923214  0.38975376  1
  O  O371  1  0.12752842  0.70019739  0.70730828  1
  O  O372  1  0.64038523  0.22270470  0.06382461  1
  O  O373  1  0.64156410  0.21927286  0.39472177  1
  O  O374  1  0.63751081  0.22440806  0.71962951  1
  O  O375  1  0.64494155  0.71992809  0.05907488  1
  O  O376  1  0.63501081  0.72345897  0.39121429  1
  O  O377  1  0.63442685  0.71782966  0.71600030  1
  O  O378  1  0.28801332  0.35465182  0.11707463  1
  O  O379  1  0.27961280  0.35787415  0.44263094  1
  O  O380  1  0.28130572  0.36123222  0.78469202  1
  O  O381  1  0.27565291  0.86720806  0.10629407  1
  O  O382  1  0.27895975  0.86433479  0.43422369  1
  O  O383  1  0.26902340  0.87171890  0.77446623  1
  O  O384  1  0.77572403  0.35840709  0.10686603  1
  O  O385  1  0.77840182  0.36364989  0.43634837  1
  O  O386  1  0.78397204  0.36421394  0.77668019  1
  O  O387  1  0.78419461  0.86111423  0.11265065  1
  O  O388  1  0.77225491  0.85781115  0.43829040  1
  O  O389  1  0.77577280  0.86398683  0.77803013  1
  O  O390  1  0.36240998  0.27428907  0.27783077  1
  O  O391  1  0.36311637  0.28005718  0.60523023  1
  O  O392  1  0.36602271  0.25877707  0.93702591  1
  O  O393  1  0.36464543  0.78386824  0.27573217  1
  O  O394  1  0.35668969  0.78522166  0.60548284  1
  O  O395  1  0.37252816  0.77854709  0.95474034  1
  O  O396  1  0.86056539  0.28378006  0.27629342  1
  O  O397  1  0.86401823  0.28388369  0.61139951  1
  O  O398  1  0.85884839  0.28564480  0.94863584  1
  O  O399  1  0.86376750  0.77402084  0.26993265  1
  O  O400  1  0.86043396  0.77116503  0.60104892  1
  O  O401  1  0.86883438  0.77223629  0.95072595  1
  O  O402  1  0.21531324  0.13761795  0.22168287  1
  O  O403  1  0.22607453  0.14495365  0.55471295  1
  O  O404  1  0.21798101  0.14313366  0.89048090  1
  O  O405  1  0.21679615  0.63297879  0.22852670  1
  O  O406  1  0.21541288  0.63306560  0.55708532  1
  O  O407  1  0.21567852  0.64248462  0.89379186  1
  O  O408  1  0.72311834  0.13736626  0.23059387  1
  O  O409  1  0.72536097  0.13351894  0.55579098  1
  O  O410  1  0.74025760  0.13477998  0.89840486  1
  O  O411  1  0.72536043  0.64219562  0.22056799  1
  O  O412  1  0.71511505  0.63881713  0.55671005  1
  O  O413  1  0.72530991  0.64059582  0.88858989  1
  O  O414  1  0.48864281  0.32920190  0.02938729  1
  O  O415  1  0.49467872  0.32732156  0.36530213  1
  O  O416  1  0.49526248  0.32629784  0.69473499  1
  O  O417  1  0.49900139  0.85895792  0.02987194  1
  O  O418  1  0.49244996  0.84281032  0.36782362  1
  O  O419  1  0.49193331  0.83379528  0.68689325  1
  O  O420  1  0.99105495  0.33930875  0.03387782  1
  O  O421  1  0.99135212  0.33464996  0.36372930  1
  O  O422  1  0.99437496  0.34095895  0.69820755  1
  O  O423  1  0.99835529  0.83568554  0.03238361  1
  O  O424  1  0.99247283  0.82287006  0.36398666  1
  O  O425  1  0.99244945  0.81613858  0.68701770  1
  O  O426  1  0.15896222  0.00704745  0.13295862  1
  O  O427  1  0.16858010  0.01491819  0.46739399  1
  O  O428  1  0.16344353  0.01299144  0.80035690  1
  O  O429  1  0.16298153  0.49889397  0.14476588  1
  O  O430  1  0.17304950  0.50052979  0.47270011  1
  O  O431  1  0.17147422  0.51023208  0.80717657  1
  O  O432  1  0.67599441  0.00687616  0.13963626  1
  O  O433  1  0.66795980  0.00372503  0.46955351  1
  O  O434  1  0.67647317  0.01013384  0.80651265  1
  O  O435  1  0.65984229  0.51649826  0.12720599  1
  O  O436  1  0.65570173  0.50712281  0.47094284  1
  O  O437  1  0.66340998  0.51102049  0.80263363  1
  O  O438  1  0.00695552  0.17145666  0.30465849  1
  O  O439  1  0.00980026  0.17453790  0.63911392  1
  O  O440  1  0.01014557  0.17330656  0.97578567  1
  O  O441  1  0.00907638  0.66302635  0.30040701  1
  O  O442  1  -0.00777833  0.63972886  0.63411416  1
  O  O443  1  0.00788269  0.66785263  0.97150957  1
  O  O444  1  0.51212599  0.16550723  0.30289689  1
  O  O445  1  0.51062834  0.15818503  0.63050195  1
  O  O446  1  0.51111974  0.16204954  0.97602715  1
  O  O447  1  0.50668833  0.68179273  0.29629296  1
  O  O448  1  0.50037545  0.66254967  0.63885535  1
  O  O449  1  0.51207196  0.68489287  0.97127498  1
  O  O450  1  0.33379864  0.48713342  0.20251246  1
  O  O451  1  0.33669929  0.48818923  0.53204159  1
  O  O452  1  0.34884525  0.49429253  0.86000651  1
  O  O453  1  0.32363150  0.99766782  0.19423516  1
  O  O454  1  0.32896737  0.99475819  0.52492246  1
  O  O455  1  0.33002531  0.99964193  0.85637160  1
  O  O456  1  0.82479496  0.49034230  0.19436648  1
  O  O457  1  0.82950597  0.49292185  0.52773135  1
  O  O458  1  0.83290719  0.49683274  0.86175765  1
  O  O459  1  0.84011180  0.99003026  0.20469301  1
  O  O460  1  0.83933640  0.98525897  0.52704136  1
  O  O461  1  0.84388657  0.98854359  0.86859085  1
