# generated using pymatgen
data_Na31Fe20(SO4)36
_symmetry_space_group_name_H-M   'P 1'
_cell_length_a   18.07273097
_cell_length_b   18.07804720
_cell_length_c   19.70848994
_cell_angle_alpha   107.59735373
_cell_angle_beta   107.57337311
_cell_angle_gamma   90.72215527
_symmetry_Int_Tables_number   1
_chemical_formula_structural   Na31Fe20(SO4)36
_chemical_formula_sum   'Na62 Fe40 S72 O288'
_cell_volume   5813.02213923
_cell_formula_units_Z   2
loop_
 _symmetry_equiv_pos_site_id
 _symmetry_equiv_pos_as_xyz
  1  'x, y, z'
loop_
 _atom_site_type_symbol
 _atom_site_label
 _atom_site_symmetry_multiplicity
 _atom_site_fract_x
 _atom_site_fract_y
 _atom_site_fract_z
 _atom_site_occupancy
  Na  Na0  1  0.15564953  0.36030818  0.09756379  1
  Na  Na1  1  0.13111078  0.36123206  0.40551546  1
  Na  Na2  1  0.13884988  0.35858659  0.74585241  1
  Na  Na3  1  0.13662237  0.87188256  0.09138761  1
  Na  Na4  1  0.14487300  0.86392217  0.41782586  1
  Na  Na5  1  0.13629076  0.86208395  0.74735397  1
  Na  Na6  1  0.63476152  0.37375696  0.09161710  1
  Na  Na7  1  0.64690379  0.36858776  0.42366795  1
  Na  Na8  1  0.62720587  0.36026059  0.74569747  1
  Na  Na9  1  0.62865359  0.86827139  0.07998294  1
  Na  Na10  1  0.62338978  0.86734849  0.41805147  1
  Na  Na11  1  0.63315639  0.86943746  0.75518777  1
  Na  Na12  1  0.36445354  0.14085056  0.25054036  1
  Na  Na13  1  0.36273000  0.14081015  0.59600347  1
  Na  Na14  1  0.36315335  0.13576901  0.91307106  1
  Na  Na15  1  0.36244547  0.64337353  0.26041995  1
  Na  Na16  1  0.36866413  0.62883877  0.57792442  1
  Na  Na17  1  0.37701740  0.63369904  0.91652715  1
  Na  Na18  1  0.87411341  0.14375809  0.25417586  1
  Na  Na19  1  0.86167979  0.13637140  0.57664141  1
  Na  Na20  1  0.86373615  0.13404470  0.91378680  1
  Na  Na21  1  0.86033327  0.62873169  0.24809811  1
  Na  Na22  1  0.86214849  0.62667434  0.57295880  1
  Na  Na23  1  0.87007320  0.63013940  0.92009170  1
  Na  Na24  1  0.48934344  0.50783653  0.77516527  1
  Na  Na25  1  0.48799403  0.52009705  0.06138985  1
  Na  Na26  1  0.98741149  0.03160297  0.13210071  1
  Na  Na27  1  1.00544264  0.00543459  0.38801467  1
  Na  Na28  1  0.99240928  0.00941499  0.74695809  1
  Na  Na29  1  0.50023446  0.50544956  0.42255206  1
  Na  Na30  1  0.99385192  0.49689889  0.76733656  1
  Na  Na31  1  0.94493532  0.50516653  0.39819346  1
  Na  Na32  1  0.44942326  0.00578894  0.73468125  1
  Na  Na33  1  0.50254278  0.99332499  0.25517865  1
  Na  Na34  1  0.04745808  0.47905889  1.03111042  1
  Na  Na35  1  0.54799594  0.49253918  0.25973083  1
  Na  Na36  1  0.49769862  0.96931552  0.55898616  1
  Na  Na37  1  0.01359061  0.48584175  0.58581690  1
  Na  Na38  1  0.01000095  0.98999665  0.92468354  1
  Na  Na39  1  0.02330610  0.99272631  0.57419385  1
  Na  Na40  1  0.00368508  0.48779273  0.24069990  1
  Na  Na41  1  0.50300176  0.98198057  0.93003457  1
  Na  Na42  1  0.75070871  0.25753090  0.33497334  1
  Na  Na43  1  0.26346789  0.76118051  0.65399524  1
  Na  Na44  1  0.24022275  0.73722612  0.00787797  1
  Na  Na45  1  0.74282984  0.74253186  0.67382047  1
  Na  Na46  1  0.24750083  0.24851802  0.32574211  1
  Na  Na47  1  0.75667365  0.25743979  0.65425714  1
  Na  Na48  1  0.73607766  0.73423952  0.34321401  1
  Na  Na49  1  0.74821343  0.25776424  -0.00034959  1
  Na  Na50  1  0.73419213  0.73874311  0.00550357  1
  Na  Na51  1  0.25274412  0.25179440  0.00092022  1
  Na  Na52  1  0.73934537  0.74046800  0.17414232  1
  Na  Na53  1  0.75762557  0.26683419  0.16823427  1
  Na  Na54  1  0.25258414  0.74963839  0.83377111  1
  Na  Na55  1  0.27153674  0.26532887  0.81723166  1
  Na  Na56  1  0.74549910  0.24726698  0.82914428  1
  Na  Na57  1  0.73631937  0.73379762  0.50519682  1
  Na  Na58  1  0.23962049  0.73832203  0.17879251  1
  Na  Na59  1  0.24632156  0.24401769  0.50925284  1
  Na  Na60  1  0.28014221  0.77241214  0.48333127  1
  Na  Na61  1  0.73364675  0.73697931  0.84370013  1
  Fe  Fe62  1  0.96921819  0.30384916  0.78761258  1
  Fe  Fe63  1  0.46324120  0.31149545  0.12373634  1
  Fe  Fe64  1  0.96799441  0.30245748  0.44733988  1
  Fe  Fe65  1  0.96640759  0.80672509  0.44972518  1
  Fe  Fe66  1  0.46555684  0.31219684  0.45540598  1
  Fe  Fe67  1  0.46903054  0.80019815  0.78849397  1
  Fe  Fe68  1  0.96452855  0.80658304  0.78474989  1
  Fe  Fe69  1  0.46662481  0.80669052  0.11626806  1
  Fe  Fe70  1  0.96979931  0.29850751  0.12265133  1
  Fe  Fe71  1  0.96246276  0.81078868  0.11963252  1
  Fe  Fe72  1  0.19433448  0.03525596  0.37976240  1
  Fe  Fe73  1  0.69063695  0.03980439  0.04739097  1
  Fe  Fe74  1  0.19170832  0.53657525  0.71487408  1
  Fe  Fe75  1  0.19512100  0.03804052  0.05418146  1
  Fe  Fe76  1  0.19271122  0.53764932  0.38242956  1
  Fe  Fe77  1  0.68795044  0.53365699  0.71129160  1
  Fe  Fe78  1  0.69113435  0.53149826  0.04275093  1
  Fe  Fe79  1  0.69317309  0.03871695  0.38262617  1
  Fe  Fe80  1  0.68965810  0.03334514  0.71026162  1
  Fe  Fe81  1  0.20186627  0.02838686  0.71197060  1
  Fe  Fe82  1  0.53140360  0.19037574  0.21192423  1
  Fe  Fe83  1  0.52567466  0.20070873  0.87409069  1
  Fe  Fe84  1  0.03847923  0.18791683  0.88174959  1
  Fe  Fe85  1  0.53255767  0.19342883  0.54576909  1
  Fe  Fe86  1  0.53488786  0.69531783  0.54121010  1
  Fe  Fe87  1  0.03427030  0.69006448  0.54544760  1
  Fe  Fe88  1  0.03402652  0.69420040  0.88372587  1
  Fe  Fe89  1  0.03745286  0.19165204  0.54718917  1
  Fe  Fe90  1  0.53000269  0.69571827  0.21485689  1
  Fe  Fe91  1  0.03674237  0.68924813  0.21221733  1
  Fe  Fe92  1  0.30877973  0.46270597  0.62019386  1
  Fe  Fe93  1  0.80518071  0.96828428  0.95009651  1
  Fe  Fe94  1  0.30909556  0.96626606  0.95853651  1
  Fe  Fe95  1  0.81286868  0.46039594  0.95533448  1
  Fe  Fe96  1  0.30537707  0.46650846  0.28321572  1
  Fe  Fe97  1  0.80554615  0.96433316  0.61428476  1
  Fe  Fe98  1  0.80697517  0.46318637  0.61877392  1
  Fe  Fe99  1  0.31314705  0.96346022  0.28981981  1
  Fe  Fe100  1  0.30026466  0.47061401  0.95383035  1
  Fe  Fe101  1  0.80504411  0.96612465  0.28327504  1
  S  S102  1  0.35909339  0.14197353  0.08265291  1
  S  S103  1  0.36081570  0.14395792  0.41512371  1
  S  S104  1  0.35471696  0.13913938  0.75143330  1
  S  S105  1  0.35753452  0.64483669  0.08001397  1
  S  S106  1  0.36169098  0.63591594  0.41969868  1
  S  S107  1  0.35486179  0.63938338  0.74461392  1
  S  S108  1  0.85330874  0.14082236  0.07919844  1
  S  S109  1  0.86211419  0.13849526  0.41476148  1
  S  S110  1  0.86019551  0.13756062  0.74766783  1
  S  S111  1  0.85958216  0.64109967  0.08289077  1
  S  S112  1  0.85972115  0.64646964  0.41672584  1
  S  S113  1  0.85963151  0.63923789  0.75189742  1
  S  S114  1  0.13950262  0.36514582  0.25003151  1
  S  S115  1  0.13913505  0.35971885  0.58433737  1
  S  S116  1  0.14187145  0.35243666  0.91468195  1
  S  S117  1  0.13603228  0.86068683  0.24902934  1
  S  S118  1  0.13942781  0.85578384  0.58239350  1
  S  S119  1  0.13991642  0.85999780  0.91855577  1
  S  S120  1  0.63752907  0.35415603  0.25208856  1
  S  S121  1  0.64109406  0.35895843  0.58365089  1
  S  S122  1  0.64299646  0.35852730  0.91556508  1
  S  S123  1  0.64006742  0.86308258  0.25165933  1
  S  S124  1  0.64610546  0.85875523  0.58432659  1
  S  S125  1  0.64208980  0.86376507  0.91708147  1
  S  S126  1  0.06584980  0.16587299  0.03663265  1
  S  S127  1  0.06877148  0.17050730  0.37609466  1
  S  S128  1  0.06697313  0.16324306  0.70853643  1
  S  S129  1  0.06591774  0.67763586  0.04668589  1
  S  S130  1  0.06911401  0.67145619  0.37667290  1
  S  S131  1  0.06366475  0.67064074  0.70989250  1
  S  S132  1  0.56635689  0.17419928  0.04036476  1
  S  S133  1  0.56908579  0.17164816  0.37520095  1
  S  S134  1  0.56608058  0.16164659  0.70325540  1
  S  S135  1  0.56813790  0.67406688  0.04288814  1
  S  S136  1  0.56122346  0.66724987  0.37697407  1
  S  S137  1  0.57068938  0.67378590  0.70811044  1
  S  S138  1  0.33962341  0.43809704  0.12798750  1
  S  S139  1  0.32622621  0.42940817  0.45468950  1
  S  S140  1  0.32560454  0.43930588  0.79023516  1
  S  S141  1  0.33015521  0.93248032  0.12454526  1
  S  S142  1  0.33225934  0.94393775  0.45576203  1
  S  S143  1  0.33034691  0.92819240  0.79478530  1
  S  S144  1  0.83377385  0.43287747  0.12370410  1
  S  S145  1  0.84018001  0.43170541  0.46283152  1
  S  S146  1  0.83164338  0.42853380  0.79053684  1
  S  S147  1  0.82678775  0.93517113  0.12155653  1
  S  S148  1  0.83043026  0.93247151  0.45523454  1
  S  S149  1  0.83484170  0.93478836  0.78983567  1
  S  S150  1  0.42974314  0.33145201  0.29341856  1
  S  S151  1  0.43467744  0.33266018  0.62343386  1
  S  S152  1  0.42868922  0.33156741  0.95942138  1
  S  S153  1  0.43480022  0.83102978  0.28586951  1
  S  S154  1  0.44075259  0.82821618  0.62475203  1
  S  S155  1  0.43244494  0.83372057  0.95804860  1
  S  S156  1  0.93763464  0.32958660  0.28707606  1
  S  S157  1  0.93569072  0.32891711  0.62745344  1
  S  S158  1  0.93457146  0.32179650  0.95545865  1
  S  S159  1  0.92948091  0.82899876  0.28795383  1
  S  S160  1  0.93256137  0.83204278  0.62503018  1
  S  S161  1  0.93005584  0.83305395  0.95568547  1
  S  S162  1  0.17639217  0.06641193  0.21397938  1
  S  S163  1  0.16141750  0.06564824  0.53800103  1
  S  S164  1  0.17038912  0.06090894  0.87564757  1
  S  S165  1  0.16547847  0.56383609  0.20791546  1
  S  S166  1  0.16421554  0.56489817  0.54248930  1
  S  S167  1  0.16657695  0.56723088  0.87334125  1
  S  S168  1  0.67167210  0.06988296  0.21078531  1
  S  S169  1  0.67066147  0.06752345  0.54334171  1
  S  S170  1  0.66732471  0.07208287  0.87436794  1
  S  S171  1  0.66160913  0.57032910  0.20483290  1
  S  S172  1  0.67325958  0.56722665  0.54419028  1
  S  S173  1  0.67562914  0.56246889  0.87774960  1
  O  O174  1  0.37012186  0.22127431  0.07604188  1
  O  O175  1  0.37094362  0.22183713  0.40437938  1
  O  O176  1  0.35956553  0.21825808  0.74852440  1
  O  O177  1  0.37308866  0.72078167  0.06676819  1
  O  O178  1  0.36426697  0.71284032  0.41150929  1
  O  O179  1  0.36773969  0.71964968  0.73930412  1
  O  O180  1  0.86612180  0.21945638  0.07159899  1
  O  O181  1  0.87057992  0.21502898  0.40197222  1
  O  O182  1  0.86914037  0.21785134  0.74285785  1
  O  O183  1  0.86602672  0.71913221  0.07124033  1
  O  O184  1  0.87211334  0.72799469  0.41195531  1
  O  O185  1  0.86958324  0.71838888  0.74394247  1
  O  O186  1  0.27995913  0.13235258  0.08897909  1
  O  O187  1  0.28062702  0.13677763  0.42142572  1
  O  O188  1  0.27987662  0.12447429  0.76873738  1
  O  O189  1  0.27825538  0.64117157  0.08370181  1
  O  O190  1  0.28790114  0.62137523  0.43711550  1
  O  O191  1  0.27359036  0.63518688  0.75044798  1
  O  O192  1  0.77186741  0.13665755  0.08403440  1
  O  O193  1  0.78329426  0.12853856  0.42152460  1
  O  O194  1  0.78234919  0.12752384  0.75762149  1
  O  O195  1  0.77928124  0.63098411  0.08873597  1
  O  O196  1  0.78399810  0.64036690  0.42845805  1
  O  O197  1  0.78099686  0.63158025  0.76064498  1
  O  O198  1  0.13621787  0.29232341  0.26629176  1
  O  O199  1  0.12839181  0.28287087  0.59519596  1
  O  O200  1  0.13451684  0.26829165  0.91201397  1
  O  O201  1  0.12555391  0.78134618  0.25575726  1
  O  O202  1  0.12376073  0.77970423  0.59534689  1
  O  O203  1  0.12995656  0.78100043  0.92638078  1
  O  O204  1  0.62511193  0.27099554  0.25319170  1
  O  O205  1  0.63023879  0.27957414  0.59079114  1
  O  O206  1  0.62823560  0.27789700  0.91989803  1
  O  O207  1  0.63096535  0.78490622  0.26095742  1
  O  O208  1  0.63669919  0.77590172  0.58472130  1
  O  O209  1  0.63917835  0.78658471  0.92564190  1
  O  O210  1  0.21541324  0.37876569  0.23682462  1
  O  O211  1  0.21909629  0.36866893  0.57938974  1
  O  O212  1  0.22077948  0.36665005  0.90803702  1
  O  O213  1  0.21388935  0.86859083  0.23883790  1
  O  O214  1  0.21564876  0.85809298  0.57221209  1
  O  O215  1  0.21874784  0.86822292  0.91078504  1
  O  O216  1  0.71519993  0.36417219  0.24630954  1
  O  O217  1  0.72183866  0.36799197  0.57935568  1
  O  O218  1  0.72689193  0.36182233  0.91476661  1
  O  O219  1  0.71903836  0.87037160  0.24247088  1
  O  O220  1  0.72544213  0.86616884  0.57472774  1
  O  O221  1  0.71876385  0.87757619  0.90381240  1
  O  O222  1  0.41749029  0.13335561  0.15088517  1
  O  O223  1  0.41811185  0.13981270  0.48542069  1
  O  O224  1  0.41892919  0.12789953  0.81735257  1
  O  O225  1  0.41470100  0.63801342  0.14985783  1
  O  O226  1  0.42711135  0.62614808  0.48450473  1
  O  O227  1  0.41156462  0.62593930  0.80885489  1
  O  O228  1  0.90798525  0.12813145  0.14490673  1
  O  O229  1  0.92039709  0.13499737  0.48519159  1
  O  O230  1  0.92087308  0.12563410  0.81295659  1
  O  O231  1  0.91701898  0.63842604  0.15380653  1
  O  O232  1  0.92191114  0.63689205  0.48462395  1
  O  O233  1  0.91913770  0.63071575  0.81977903  1
  O  O234  1  0.36692769  0.08379703  0.01400100  1
  O  O235  1  0.37030557  0.08361618  0.34886835  1
  O  O236  1  0.35767428  0.07979345  0.68284904  1
  O  O237  1  0.36876223  0.58236957  0.01437365  1
  O  O238  1  0.36773327  0.57524131  0.35099976  1
  O  O239  1  0.35802028  0.58228282  0.67289440  1
  O  O240  1  0.85949532  0.08210280  0.00919031  1
  O  O241  1  0.87395330  0.07657159  0.34974827  1
  O  O242  1  0.86665858  0.08053170  0.67754664  1
  O  O243  1  0.87054161  0.58055175  0.01756440  1
  O  O244  1  0.86719681  0.59009941  0.34925071  1
  O  O245  1  0.86757008  0.57988251  0.68421680  1
  O  O246  1  0.07740821  0.36721423  0.18015939  1
  O  O247  1  0.08232908  0.36609395  0.51410955  1
  O  O248  1  0.08265478  0.36329009  0.84735243  1
  O  O249  1  0.07613931  0.87006887  0.18142347  1
  O  O250  1  0.07782640  0.86611959  0.51571077  1
  O  O251  1  0.08070145  0.86758452  0.84976989  1
  O  O252  1  0.57799835  0.36379015  0.18288030  1
  O  O253  1  0.58465102  0.36736545  0.51489722  1
  O  O254  1  0.59100477  0.37138919  0.84935589  1
  O  O255  1  0.58141115  0.87247991  0.18411331  1
  O  O256  1  0.58698847  0.87624450  0.52411773  1
  O  O257  1  0.57978313  0.87204565  0.85105556  1
  O  O258  1  0.12761394  0.43026144  0.31362061  1
  O  O259  1  0.12637264  0.42120717  0.64914671  1
  O  O260  1  0.13324879  0.40261801  0.98471865  1
  O  O261  1  0.12797991  0.91930553  0.31726801  1
  O  O262  1  0.13324578  0.91831940  0.65042705  1
  O  O263  1  0.13036759  0.91952139  0.98556747  1
  O  O264  1  0.62443429  0.40813514  0.31861704  1
  O  O265  1  0.63336814  0.41699656  0.65222597  1
  O  O266  1  0.63781166  0.41505172  0.98688613  1
  O  O267  1  0.63291329  0.92368377  0.31938369  1
  O  O268  1  0.64637956  0.91151674  0.65913283  1
  O  O269  1  0.63434441  0.92430870  0.98538384  1
  O  O270  1  0.03084893  0.19637006  0.09639200  1
  O  O271  1  0.03489074  0.20186822  0.44102731  1
  O  O272  1  0.02711030  0.19268135  0.76725912  1
  O  O273  1  0.02578808  0.70865738  0.10576272  1
  O  O274  1  0.03252881  0.70181538  0.43798867  1
  O  O275  1  0.02758749  0.70010710  0.77156981  1
  O  O276  1  0.52905184  0.19934375  0.10080624  1
  O  O277  1  0.53429159  0.20105698  0.43718903  1
  O  O278  1  0.53256174  0.18264932  0.76471404  1
  O  O279  1  0.53562639  0.70481213  0.10810819  1
  O  O280  1  0.52893121  0.70500314  0.43847253  1
  O  O281  1  0.53244599  0.70266534  0.76592364  1
  O  O282  1  0.31967297  0.47159935  0.06629002  1
  O  O283  1  0.29224124  0.46204887  0.39159051  1
  O  O284  1  0.29125290  0.47660801  0.72818129  1
  O  O285  1  0.29902457  0.97062179  0.06420023  1
  O  O286  1  0.29083189  0.97399999  0.38876873  1
  O  O287  1  0.30208650  0.96152421  0.73307779  1
  O  O288  1  0.80167145  0.46641578  0.05939947  1
  O  O289  1  0.82409945  0.47002255  0.40656240  1
  O  O290  1  0.80296773  0.46752849  0.73154526  1
  O  O291  1  0.79662389  0.97313992  0.06148593  1
  O  O292  1  0.80017141  0.96889218  0.39445563  1
  O  O293  1  0.80679505  0.96958716  0.72799655  1
  O  O294  1  0.46419129  0.29866174  0.23123448  1
  O  O295  1  0.46944336  0.30364585  0.55892869  1
  O  O296  1  0.46714004  0.30270921  0.90187377  1
  O  O297  1  0.46856455  0.79855998  0.22083328  1
  O  O298  1  0.48066888  0.79268393  0.56879244  1
  O  O299  1  0.46823716  0.81092071  0.89793799  1
  O  O300  1  0.96759892  0.28908510  0.22518976  1
  O  O301  1  0.96855339  0.29894221  0.56434582  1
  O  O302  1  0.97166305  0.29149064  0.89431249  1
  O  O303  1  0.96460199  0.79995586  0.22646864  1
  O  O304  1  0.96746543  0.80247476  0.56382869  1
  O  O305  1  0.96762358  0.80148422  0.89522622  1
  O  O306  1  0.21042938  0.02671167  0.27216560  1
  O  O307  1  0.18097648  0.03353636  0.60077374  1
  O  O308  1  0.19812993  0.02439980  0.93689049  1
  O  O309  1  0.20430102  0.54049869  0.27711827  1
  O  O310  1  0.19453229  0.52660127  0.60182154  1
  O  O311  1  0.19661314  0.52991583  0.93122787  1
  O  O312  1  0.70338614  0.03152956  0.27073849  1
  O  O313  1  0.70018743  0.02733920  0.60272753  1
  O  O314  1  0.69712023  0.03513772  0.93516518  1
  O  O315  1  0.67663478  0.53736019  0.26526819  1
  O  O316  1  0.70121867  0.53350883  0.60884755  1
  O  O317  1  0.70994365  0.52398865  0.93753412  1
  O  O318  1  0.08762837  0.08520206  0.03569537  1
  O  O319  1  0.09432950  0.09220858  0.37898756  1
  O  O320  1  0.08225050  0.08052960  0.70422675  1
  O  O321  1  0.08715402  0.60049822  0.04562768  1
  O  O322  1  0.08300461  0.58847004  0.36992079  1
  O  O323  1  0.07995335  0.58824806  0.70325354  1
  O  O324  1  0.58515541  0.09176698  0.03177112  1
  O  O325  1  0.58821433  0.08969082  0.36967912  1
  O  O326  1  0.58264670  0.07714813  0.68720031  1
  O  O327  1  0.59095938  0.59410081  0.04104665  1
  O  O328  1  0.57006333  0.58537200  0.37333006  1
  O  O329  1  0.59191086  0.59424528  0.70721412  1
  O  O330  1  0.42456459  0.42368721  0.14734047  1
  O  O331  1  0.40835749  0.41572526  0.45829472  1
  O  O332  1  0.40535068  0.42665812  0.79295604  1
  O  O333  1  0.41091843  0.91419829  0.12824827  1
  O  O334  1  0.40572388  0.91893068  0.44525841  1
  O  O335  1  0.41315548  0.91127226  0.80183540  1
  O  O336  1  0.90980425  0.40265532  0.11965447  1
  O  O337  1  0.92327830  0.40832569  0.47610795  1
  O  O338  1  0.91206541  0.40802658  0.79200449  1
  O  O339  1  0.90782501  0.91703866  0.12365774  1
  O  O340  1  0.91272413  0.91569561  0.46095700  1
  O  O341  1  0.91881496  0.91963825  0.79828514  1
  O  O342  1  0.41427931  0.41388069  0.29856279  1
  O  O343  1  0.41140767  0.41311308  0.62640966  1
  O  O344  1  0.40563796  0.41124110  0.96136834  1
  O  O345  1  0.41484402  0.91139027  0.28397720  1
  O  O346  1  0.42860218  0.90822949  0.62360619  1
  O  O347  1  0.41355475  0.91651166  0.96865831  1
  O  O348  1  0.93053472  0.41151541  0.28994558  1
  O  O349  1  0.92095368  0.41268308  0.63689303  1
  O  O350  1  0.91920537  0.40396247  0.96084378  1
  O  O351  1  0.90798884  0.90950133  0.29141771  1
  O  O352  1  0.91557582  0.91466934  0.63029143  1
  O  O353  1  0.91358075  0.91474279  0.95788586  1
  O  O354  1  0.09960450  0.08677019  0.21660133  1
  O  O355  1  0.07515403  0.07995031  0.52204660  1
  O  O356  1  0.08638865  0.07543928  0.86754685  1
  O  O357  1  0.08508019  0.58478832  0.21031738  1
  O  O358  1  0.08124632  0.57975100  0.53872978  1
  O  O359  1  0.08596614  0.58940100  0.87164889  1
  O  O360  1  0.59150051  0.08739974  0.20996737  1
  O  O361  1  0.59093029  0.08727247  0.54022383  1
  O  O362  1  0.58638059  0.08971152  0.86865221  1
  O  O363  1  0.57749271  0.59007915  0.18578016  1
  O  O364  1  0.59453374  0.59445361  0.54084238  1
  O  O365  1  0.59656283  0.57829360  0.87500646  1
  O  O366  1  0.13333825  0.21709788  0.04318430  1
  O  O367  1  0.13805640  0.22486433  0.39154342  1
  O  O368  1  0.13811806  0.21446067  0.72617911  1
  O  O369  1  0.13480479  0.73406206  0.06384814  1
  O  O370  1  0.14151792  0.72124435  0.39404218  1
  O  O371  1  0.13532112  0.72215344  0.72742809  1
  O  O372  1  0.63764036  0.22758123  0.05917262  1
  O  O373  1  0.63822889  0.22335486  0.38740482  1
  O  O374  1  0.63889694  0.21305275  0.72101915  1
  O  O375  1  0.63985774  0.72817895  0.06112287  1
  O  O376  1  0.63596473  0.71445696  0.39124690  1
  O  O377  1  0.64265451  0.72776465  0.72593437  1
  O  O378  1  0.28960840  0.36420504  0.10796258  1
  O  O379  1  0.27767195  0.35653794  0.44116611  1
  O  O380  1  0.27338966  0.36811945  0.77276189  1
  O  O381  1  0.27676278  0.86210828  0.10742252  1
  O  O382  1  0.27748607  0.87862966  0.44862265  1
  O  O383  1  0.27919644  0.85622708  0.78010781  1
  O  O384  1  0.77603668  0.36680205  0.11179027  1
  O  O385  1  0.78500411  0.36251823  0.44551163  1
  O  O386  1  0.77817607  0.35773787  0.77330152  1
  O  O387  1  0.77513199  0.86401331  0.10584944  1
  O  O388  1  0.77840932  0.86219787  0.44067332  1
  O  O389  1  0.78547083  0.86270120  0.77499553  1
  O  O390  1  0.35886620  0.28192738  0.28054812  1
  O  O391  1  0.36528205  0.27785348  0.60567030  1
  O  O392  1  0.35862474  0.27688893  0.94391127  1
  O  O393  1  0.36342913  0.77993298  0.26980217  1
  O  O394  1  0.36639248  0.77833532  0.60605165  1
  O  O395  1  0.36148897  0.78080946  0.94111965  1
  O  O396  1  0.86259191  0.28555622  0.27712862  1
  O  O397  1  0.86480375  0.27917759  0.61469599  1
  O  O398  1  0.86140829  0.27101392  0.93598956  1
  O  O399  1  0.86056992  0.77549063  0.27489084  1
  O  O400  1  0.86225847  0.78098659  0.61252249  1
  O  O401  1  0.85830044  0.78215155  0.93951742  1
  O  O402  1  0.23085990  0.13435727  0.22695702  1
  O  O403  1  0.21078928  0.13759264  0.55344109  1
  O  O404  1  0.22048998  0.13338856  0.89451954  1
  O  O405  1  0.21362630  0.63176506  0.21166732  1
  O  O406  1  0.21352623  0.63790689  0.56006100  1
  O  O407  1  0.21863840  0.63765293  0.88562679  1
  O  O408  1  0.72501052  0.14014479  0.22677468  1
  O  O409  1  0.72587289  0.13666926  0.56161994  1
  O  O410  1  0.72121596  0.14253442  0.89065800  1
  O  O411  1  0.71581735  0.64222895  0.22377942  1
  O  O412  1  0.73032851  0.63631651  0.56248089  1
  O  O413  1  0.72925245  0.63478066  0.89674541  1
  O  O414  1  0.48649670  0.33921277  0.03525684  1
  O  O415  1  0.49158576  0.33504269  0.36574896  1
  O  O416  1  0.49566520  0.33840156  0.69319195  1
  O  O417  1  0.49209566  0.83382759  0.02988789  1
  O  O418  1  0.49575060  0.83573875  0.35481727  1
  O  O419  1  0.49314348  0.83227125  0.70178628  1
  O  O420  1  0.99249484  0.32127544  0.02686837  1
  O  O421  1  0.99501065  0.32974411  0.36122655  1
  O  O422  1  0.99760486  0.32945981  0.69875687  1
  O  O423  1  0.98838804  0.83669171  0.02878972  1
  O  O424  1  0.99126663  0.83630743  0.36090990  1
  O  O425  1  0.99322841  0.83666185  0.69843509  1
  O  O426  1  0.16926658  0.00712192  0.13829072  1
  O  O427  1  0.16393250  0.00440765  0.46810653  1
  O  O428  1  0.17004037  0.00285101  0.80319761  1
  O  O429  1  0.15450519  0.49622927  0.14052226  1
  O  O430  1  0.16235234  0.50795343  0.46910360  1
  O  O431  1  0.15555829  0.50825631  0.79700650  1
  O  O432  1  0.66750726  0.01153156  0.13705899  1
  O  O433  1  0.66893243  0.00880344  0.47059148  1
  O  O434  1  0.66780223  0.01217256  0.80252519  1
  O  O435  1  0.66767702  0.51168533  0.13418012  1
  O  O436  1  0.66776257  0.50574790  0.47476185  1
  O  O437  1  0.67684058  0.50617145  0.80425466  1
  O  O438  1  0.00683706  0.16089272  0.30628849  1
  O  O439  1  0.00906353  0.16009877  0.63440352  1
  O  O440  1  0.00359314  0.15288069  0.96083718  1
  O  O441  1  0.00942823  0.67201179  0.30524273  1
  O  O442  1  0.00453509  0.67011078  0.63807933  1
  O  O443  1  0.00698700  0.67545551  0.97312638  1
  O  O444  1  0.50628718  0.16555445  0.30273988  1
  O  O445  1  0.50685556  0.16740383  0.63382744  1
  O  O446  1  0.50775554  0.17363678  0.96833968  1
  O  O447  1  0.50515163  0.66818002  0.30306768  1
  O  O448  1  0.51528909  0.66936516  0.63294187  1
  O  O449  1  0.50867089  0.67118051  0.97359431  1
  O  O450  1  0.33009963  0.49657637  0.19635839  1
  O  O451  1  0.32603232  0.48884954  0.52601702  1
  O  O452  1  0.32286396  0.49746671  0.86235708  1
  O  O453  1  0.33341697  0.99224730  0.19692946  1
  O  O454  1  0.34439475  1.00931691  0.52505218  1
  O  O455  1  0.33266614  0.98829254  0.86753283  1
  O  O456  1  0.84714649  0.49611374  0.19407717  1
  O  O457  1  0.84293700  0.48966683  0.53835536  1
  O  O458  1  0.83721536  0.48580309  0.86492486  1
  O  O459  1  0.83070812  0.99409383  0.19466442  1
  O  O460  1  0.83372585  0.99292710  0.52801831  1
  O  O461  1  0.83509653  0.99485176  0.86125850  1
