# generated using pymatgen
data_Na31Fe20(SO4)36
_symmetry_space_group_name_H-M   'P 1'
_cell_length_a   18.07195594
_cell_length_b   18.07784710
_cell_length_c   19.69977134
_cell_angle_alpha   107.57259348
_cell_angle_beta   107.57927654
_cell_angle_gamma   90.73380860
_symmetry_Int_Tables_number   1
_chemical_formula_structural   Na31Fe20(SO4)36
_chemical_formula_sum   'Na62 Fe40 S72 O288'
_cell_volume   5810.67079406
_cell_formula_units_Z   2
loop_
 _symmetry_equiv_pos_site_id
 _symmetry_equiv_pos_as_xyz
  1  'x, y, z'
loop_
 _atom_site_type_symbol
 _atom_site_label
 _atom_site_symmetry_multiplicity
 _atom_site_fract_x
 _atom_site_fract_y
 _atom_site_fract_z
 _atom_site_occupancy
  Na  Na0  1  0.13492982  0.37343358  0.08583032  1
  Na  Na1  1  0.12834542  0.36918295  0.41774101  1
  Na  Na2  1  0.13165944  0.36848067  0.75353721  1
  Na  Na3  1  0.15088144  0.87379795  0.09769426  1
  Na  Na4  1  0.13747011  0.85629794  0.41776825  1
  Na  Na5  1  0.12090316  0.84820236  0.73109581  1
  Na  Na6  1  0.62641615  0.37543048  0.08174330  1
  Na  Na7  1  0.64690472  0.36974904  0.42855160  1
  Na  Na8  1  0.62598922  0.35776545  0.73644845  1
  Na  Na9  1  0.65028487  0.85257954  0.08537520  1
  Na  Na10  1  0.63986019  0.86147463  0.41845686  1
  Na  Na11  1  0.63236275  0.85725559  0.74158413  1
  Na  Na12  1  0.35712926  0.11935457  0.23857171  1
  Na  Na13  1  0.36785036  0.14420980  0.58589934  1
  Na  Na14  1  0.35671433  0.13310892  0.91184564  1
  Na  Na15  1  0.36901019  0.63424902  0.25033949  1
  Na  Na16  1  0.36729523  0.63427769  0.58444952  1
  Na  Na17  1  0.37242109  0.62862234  0.91941212  1
  Na  Na18  1  0.86683790  0.13329892  0.25045165  1
  Na  Na19  1  0.86299793  0.13119487  0.58033650  1
  Na  Na20  1  0.86999513  0.13105600  0.91531980  1
  Na  Na21  1  0.87239988  0.65573361  0.26278266  1
  Na  Na22  1  0.86108997  0.64832470  0.60521506  1
  Na  Na23  1  0.85601459  0.64643695  0.92293724  1
  Na  Na24  1  0.98999132  0.51567406  0.07913349  1
  Na  Na25  1  1.04808126  -0.01376253  0.02329786  1
  Na  Na26  1  0.48073625  0.02843136  0.39111355  1
  Na  Na27  1  0.49320484  0.00695238  0.74707537  1
  Na  Na28  1  1.01009298  -0.01578380  0.42349454  1
  Na  Na29  1  0.47879000  -0.00088412  0.10392733  1
  Na  Na30  1  0.48518506  0.50415848  0.76802641  1
  Na  Na31  1  0.52221105  0.48879225  0.40920469  1
  Na  Na32  1  1.01191253  -0.04627157  0.79285540  1
  Na  Na33  1  0.53851260  0.49946669  0.24694236  1
  Na  Na34  1  0.51295900  0.48994107  0.58377332  1
  Na  Na35  1  0.50928845  0.98608764  0.92412270  1
  Na  Na36  1  -0.01590584  0.51638256  0.84918072  1
  Na  Na37  1  -0.02557387  0.51703517  0.29927233  1
  Na  Na38  1  0.01906410  0.99657382  0.23996413  1
  Na  Na39  1  -0.02251172  0.54375984  0.54556552  1
  Na  Na40  1  -0.00314492  0.94566859  0.57793726  1
  Na  Na41  1  0.49321876  1.02281042  0.56730075  1
  Na  Na42  1  0.25406265  0.75832896  0.32988715  1
  Na  Na43  1  0.25537534  0.75569416  -0.00245410  1
  Na  Na44  1  0.24087431  0.24109269  0.68089885  1
  Na  Na45  1  0.77039785  0.75158713  0.33987227  1
  Na  Na46  1  0.75175717  0.25399672  0.33461761  1
  Na  Na47  1  0.25175243  0.25198996  -0.00876747  1
  Na  Na48  1  0.23315213  0.73728493  0.66906694  1
  Na  Na49  1  0.24559120  0.24033085  0.33533162  1
  Na  Na50  1  0.74920329  0.25329420  -0.00403539  1
  Na  Na51  1  0.74428197  0.25272297  0.65778818  1
  Na  Na52  1  0.23871845  0.23394206  0.16389276  1
  Na  Na53  1  0.76723814  0.76073181  0.81999716  1
  Na  Na54  1  0.74567855  0.25250399  0.16546699  1
  Na  Na55  1  0.75613880  0.26443811  0.50287475  1
  Na  Na56  1  0.75017520  0.73261989  0.50507187  1
  Na  Na57  1  0.22739491  0.73735044  0.50514226  1
  Na  Na58  1  0.74883098  0.25416359  0.83001209  1
  Na  Na59  1  0.24436491  0.74458225  0.83477091  1
  Na  Na60  1  0.25078039  0.24673751  0.50130089  1
  Na  Na61  1  0.26594770  0.76474824  0.16703510  1
  Fe  Fe62  1  0.96292821  0.30544023  0.78372397  1
  Fe  Fe63  1  0.47126184  0.80620413  0.12522613  1
  Fe  Fe64  1  0.46825406  0.29825168  0.45474880  1
  Fe  Fe65  1  0.46744322  0.80455351  0.78696154  1
  Fe  Fe66  1  0.46469627  0.80593551  0.45151195  1
  Fe  Fe67  1  0.96324012  0.31255087  0.12129303  1
  Fe  Fe68  1  0.96057888  0.80952477  0.11746153  1
  Fe  Fe69  1  0.96298362  0.31246378  0.45970877  1
  Fe  Fe70  1  0.46366612  0.30674571  0.11752751  1
  Fe  Fe71  1  0.46366736  0.30866277  0.78880763  1
  Fe  Fe72  1  0.68652370  0.54282957  0.04448521  1
  Fe  Fe73  1  0.69969821  0.53225494  0.71348360  1
  Fe  Fe74  1  0.20103774  0.02963936  0.37582948  1
  Fe  Fe75  1  0.69535062  0.03304781  0.04828271  1
  Fe  Fe76  1  0.69107705  0.03293473  0.37939563  1
  Fe  Fe77  1  0.19255557  0.03659812  0.71677333  1
  Fe  Fe78  1  0.68954138  0.03530578  0.71384151  1
  Fe  Fe79  1  0.19481372  0.53251559  0.37960727  1
  Fe  Fe80  1  0.19261215  0.53769714  0.04518950  1
  Fe  Fe81  1  0.18848799  0.53304800  0.70918777  1
  Fe  Fe82  1  0.03733258  0.18756270  0.87616421  1
  Fe  Fe83  1  0.53535718  0.19248493  0.21353240  1
  Fe  Fe84  1  0.03329076  0.19069564  0.54681929  1
  Fe  Fe85  1  0.53300481  0.19405490  0.88343296  1
  Fe  Fe86  1  0.03024532  0.70076935  0.87438120  1
  Fe  Fe87  1  0.54098197  0.69183730  0.21640270  1
  Fe  Fe88  1  0.03164853  0.19332288  0.20922430  1
  Fe  Fe89  1  0.03257815  0.69648403  0.21427857  1
  Fe  Fe90  1  0.53984757  0.69338880  0.88686013  1
  Fe  Fe91  1  0.53699436  0.69022851  0.54823606  1
  Fe  Fe92  1  0.80489373  0.96435174  0.62067571  1
  Fe  Fe93  1  0.81201291  0.96292183  0.28523564  1
  Fe  Fe94  1  0.30718615  0.46384304  0.61836307  1
  Fe  Fe95  1  0.30059725  0.96686597  0.95639494  1
  Fe  Fe96  1  0.79847372  0.47229386  0.29563133  1
  Fe  Fe97  1  0.30890960  0.46266278  0.95305891  1
  Fe  Fe98  1  0.30799661  0.46370768  0.28523941  1
  Fe  Fe99  1  0.30700269  0.96528391  0.61764161  1
  Fe  Fe100  1  0.81466862  0.96397814  0.95492534  1
  Fe  Fe101  1  0.80217629  0.46680931  0.95378412  1
  S  S102  1  0.36095795  0.13931138  0.08184483  1
  S  S103  1  0.35894080  0.14062814  0.41689790  1
  S  S104  1  0.36121158  0.13732522  0.74981519  1
  S  S105  1  0.36200581  0.63804757  0.08468767  1
  S  S106  1  0.35989616  0.63927326  0.41842880  1
  S  S107  1  0.36172435  0.63893070  0.74984628  1
  S  S108  1  0.85627143  0.14445755  0.08259501  1
  S  S109  1  0.85837002  0.13997895  0.41574596  1
  S  S110  1  0.85587686  0.14280938  0.75051928  1
  S  S111  1  0.86048919  0.63908303  0.08210352  1
  S  S112  1  0.86720270  0.63810203  0.41419843  1
  S  S113  1  0.86083997  0.63607330  0.75907624  1
  S  S114  1  0.13993020  0.36000764  0.24931417  1
  S  S115  1  0.14235537  0.35554506  0.58289314  1
  S  S116  1  0.13718530  0.36305331  0.91557004  1
  S  S117  1  0.13850173  0.86024204  0.24786018  1
  S  S118  1  0.14319631  0.86451937  0.58365286  1
  S  S119  1  0.14317727  0.85579686  0.91567762  1
  S  S120  1  0.63692409  0.35898857  0.24908670  1
  S  S121  1  0.63558125  0.36478344  0.58417229  1
  S  S122  1  0.63756812  0.36196071  0.91851472  1
  S  S123  1  0.64698930  0.85725429  0.25133523  1
  S  S124  1  0.63605770  0.86098620  0.58353504  1
  S  S125  1  0.64160063  0.86015901  0.91754297  1
  S  S126  1  0.06701429  0.18298589  0.04377539  1
  S  S127  1  0.06679962  0.16894390  0.37566971  1
  S  S128  1  0.06599431  0.16977730  0.70762582  1
  S  S129  1  0.07245945  0.67453837  0.04217301  1
  S  S130  1  0.08410126  0.67011449  0.37109502  1
  S  S131  1  0.06399065  0.66248816  0.70788211  1
  S  S132  1  0.56728403  0.16906979  0.04168225  1
  S  S133  1  0.57074494  0.17229010  0.37457703  1
  S  S134  1  0.56271240  0.16732965  0.71103506  1
  S  S135  1  0.56661539  0.67005793  0.04299343  1
  S  S136  1  0.56334032  0.66533121  0.37722625  1
  S  S137  1  0.56972999  0.66875287  0.71352507  1
  S  S138  1  0.33198139  0.43206860  0.12487429  1
  S  S139  1  0.33171182  0.42964720  0.45592309  1
  S  S140  1  0.32623512  0.43230963  0.78902345  1
  S  S141  1  0.33893021  0.92970889  0.12810387  1
  S  S142  1  0.33274741  0.93425605  0.45866163  1
  S  S143  1  0.33161201  0.92981403  0.79211472  1
  S  S144  1  0.82544066  0.43185880  0.12654735  1
  S  S145  1  0.83101591  0.43285599  0.45857727  1
  S  S146  1  0.81926099  0.42576734  0.78983801  1
  S  S147  1  0.83297500  0.93651530  0.12406385  1
  S  S148  1  0.83268049  0.93913482  0.45590184  1
  S  S149  1  0.82048739  0.93614627  0.79311976  1
  S  S150  1  0.43071495  0.32590832  0.28968761  1
  S  S151  1  0.43006393  0.33527911  0.62823862  1
  S  S152  1  0.42741377  0.32602232  0.95516889  1
  S  S153  1  0.44060764  0.82865556  0.29369498  1
  S  S154  1  0.42924418  0.82814218  0.62372688  1
  S  S155  1  0.43554318  0.83079741  0.95893297  1
  S  S156  1  0.92587898  0.32693730  0.29001445  1
  S  S157  1  0.93271411  0.32697787  0.62260370  1
  S  S158  1  0.92973992  0.33311350  0.95828824  1
  S  S159  1  0.93906410  0.83795622  0.29155664  1
  S  S160  1  0.92700720  0.83555437  0.62745174  1
  S  S161  1  0.93803228  0.83093948  0.95856098  1
  S  S162  1  0.15892332  0.06684819  0.20344497  1
  S  S163  1  0.17476179  0.07035046  0.54193597  1
  S  S164  1  0.16895911  0.06337252  0.87571132  1
  S  S165  1  0.17191569  0.57014675  0.20792100  1
  S  S166  1  0.17410119  0.56427462  0.54379810  1
  S  S167  1  0.17423645  0.57350934  0.87744378  1
  S  S168  1  0.67073714  0.06722241  0.20786409  1
  S  S169  1  0.66703957  0.06299224  0.54058790  1
  S  S170  1  0.66374932  0.06658980  0.87613687  1
  S  S171  1  0.67700565  0.56903786  0.20998443  1
  S  S172  1  0.66217650  0.56847126  0.54641712  1
  S  S173  1  0.66956431  0.56876950  0.87457027  1
  O  O174  1  0.37283574  0.21861560  0.07323686  1
  O  O175  1  0.36735857  0.22474881  0.41793124  1
  O  O176  1  0.37103186  0.21510191  0.73983762  1
  O  O177  1  0.37003366  0.71720777  0.07623434  1
  O  O178  1  0.36617036  0.71769454  0.40863892  1
  O  O179  1  0.37185155  0.71787908  0.74162760  1
  O  O180  1  0.86402522  0.22409333  0.07515127  1
  O  O181  1  0.86980196  0.21917685  0.40850707  1
  O  O182  1  0.86263355  0.22311156  0.74368912  1
  O  O183  1  0.87217906  0.71471718  0.07004505  1
  O  O184  1  0.88799113  0.70519567  0.39351836  1
  O  O185  1  0.86180291  0.71647499  0.75941714  1
  O  O186  1  0.28624693  0.13201079  0.09417449  1
  O  O187  1  0.27596938  0.13203574  0.41927396  1
  O  O188  1  0.28141287  0.12832070  0.75512399  1
  O  O189  1  0.28375583  0.63030623  0.09594733  1
  O  O190  1  0.28236031  0.62816083  0.42870813  1
  O  O191  1  0.28133770  0.63084797  0.75491073  1
  O  O192  1  0.77638477  0.13418551  0.08916799  1
  O  O193  1  0.78013811  0.13443103  0.42613217  1
  O  O194  1  0.77813847  0.13338070  0.76182969  1
  O  O195  1  0.78230907  0.62898234  0.08882089  1
  O  O196  1  0.78582942  0.63608511  0.41452887  1
  O  O197  1  0.78539841  0.61767055  0.77589260  1
  O  O198  1  0.12990644  0.27976376  0.25473922  1
  O  O199  1  0.13470264  0.27527661  0.58885000  1
  O  O200  1  0.12745437  0.28316068  0.92139396  1
  O  O201  1  0.12626343  0.78034955  0.25401576  1
  O  O202  1  0.13710787  0.78908737  0.59588529  1
  O  O203  1  0.13192149  0.77020352  0.91338068  1
  O  O204  1  0.63247652  0.27663211  0.25102264  1
  O  O205  1  0.62481822  0.29424859  0.60348353  1
  O  O206  1  0.62696016  0.28441685  0.92989242  1
  O  O207  1  0.64020601  0.77858395  0.26103684  1
  O  O208  1  0.62404599  0.78388028  0.59375412  1
  O  O209  1  0.63147460  0.78302852  0.92705379  1
  O  O210  1  0.21851196  0.36811558  0.23958167  1
  O  O211  1  0.22012224  0.36577223  0.57228788  1
  O  O212  1  0.21480777  0.37339439  0.90595207  1
  O  O213  1  0.21283061  0.86678763  0.23396326  1
  O  O214  1  0.22353197  0.87425932  0.57479925  1
  O  O215  1  0.22728061  0.86276302  0.91710527  1
  O  O216  1  0.71639139  0.37140550  0.24103059  1
  O  O217  1  0.71009665  0.37261678  0.57107942  1
  O  O218  1  0.71869502  0.36760554  0.91349030  1
  O  O219  1  0.72592966  0.87089961  0.24524863  1
  O  O220  1  0.71382616  0.86781907  0.57320971  1
  O  O221  1  0.72038627  0.87154097  0.91127443  1
  O  O222  1  0.42491464  0.12900822  0.14687674  1
  O  O223  1  0.41336600  0.12736686  0.48332040  1
  O  O224  1  0.41873368  0.12945561  0.81890759  1
  O  O225  1  0.42246938  0.62994227  0.15122800  1
  O  O226  1  0.42007040  0.63310880  0.48663538  1
  O  O227  1  0.41939287  0.63073386  0.81877830  1
  O  O228  1  0.91398919  0.13853306  0.15188858  1
  O  O229  1  0.91839878  0.12874725  0.48147692  1
  O  O230  1  0.91722048  0.13662466  0.81797219  1
  O  O231  1  0.92060133  0.63160646  0.15117008  1
  O  O232  1  0.92140938  0.62783370  0.48138721  1
  O  O233  1  0.92539723  0.62966445  0.82949155  1
  O  O234  1  0.36671050  0.08081679  0.01185942  1
  O  O235  1  0.36793414  0.08928106  0.34729832  1
  O  O236  1  0.37261555  0.07681832  0.68378254  1
  O  O237  1  0.36501846  0.57901827  0.01473630  1
  O  O238  1  0.36708257  0.57973136  0.35011664  1
  O  O239  1  0.37222537  0.57954094  0.68318722  1
  O  O240  1  0.86527608  0.08635770  0.01510270  1
  O  O241  1  0.86281784  0.08157201  0.34571212  1
  O  O242  1  0.86117923  0.08562393  0.68133318  1
  O  O243  1  0.87131741  0.57600539  0.01629404  1
  O  O244  1  0.87153537  0.56605847  0.34473668  1
  O  O245  1  0.86773604  0.57928326  0.69248516  1
  O  O246  1  0.08025643  0.37153165  0.18381046  1
  O  O247  1  0.08198131  0.36374691  0.51588257  1
  O  O248  1  0.07568313  0.37324700  0.84970298  1
  O  O249  1  0.07393775  0.87338332  0.18547978  1
  O  O250  1  0.08533171  0.87524211  0.51794870  1
  O  O251  1  0.09204667  0.86829752  0.84812534  1
  O  O252  1  0.57837342  0.36737873  0.17989201  1
  O  O253  1  0.57157878  0.37065786  0.51627136  1
  O  O254  1  0.58150843  0.36587434  0.84734462  1
  O  O255  1  0.58884941  0.86136174  0.18103335  1
  O  O256  1  0.57655148  0.86958805  0.51585015  1
  O  O257  1  0.58190108  0.86740315  0.84817690  1
  O  O258  1  0.13517151  0.41666995  0.31984300  1
  O  O259  1  0.13733850  0.41264371  0.65278562  1
  O  O260  1  0.13229142  0.42107939  0.98585967  1
  O  O261  1  0.13663326  0.91730610  0.32038664  1
  O  O262  1  0.13737313  0.92644708  0.65297071  1
  O  O263  1  0.13363953  0.90550566  0.98552098  1
  O  O264  1  0.62502621  0.41330043  0.31572046  1
  O  O265  1  0.62630949  0.43339972  0.64905265  1
  O  O266  1  0.62941104  0.42354013  0.98401999  1
  O  O267  1  0.63530483  0.91584188  0.31782050  1
  O  O268  1  0.62877042  0.92185158  0.65130493  1
  O  O269  1  0.62989813  0.92111443  0.98364288  1
  O  O270  1  0.02479144  0.21210992  0.10195635  1
  O  O271  1  0.03010916  0.19945579  0.43610459  1
  O  O272  1  0.02821833  0.20051823  0.76854369  1
  O  O273  1  0.03305143  0.70326208  0.10062529  1
  O  O274  1  0.07163966  0.70284789  0.44242961  1
  O  O275  1  0.03375614  0.68460057  0.77357171  1
  O  O276  1  0.53386281  0.20088035  0.10413861  1
  O  O277  1  0.53406709  0.20059763  0.43379542  1
  O  O278  1  0.53273769  0.20055791  0.77717758  1
  O  O279  1  0.53048599  0.70136452  0.10473839  1
  O  O280  1  0.52523237  0.70104833  0.43703369  1
  O  O281  1  0.53236217  0.69680912  0.77460935  1
  O  O282  1  0.30207029  0.46804575  0.06364046  1
  O  O283  1  0.30141195  0.46648389  0.39494996  1
  O  O284  1  0.29785470  0.47136225  0.72946357  1
  O  O285  1  0.32508765  0.96141532  0.06416182  1
  O  O286  1  0.30391384  0.96998126  0.39913615  1
  O  O287  1  0.30378862  0.96735522  0.73201795  1
  O  O288  1  0.79732712  0.47025457  0.06739456  1
  O  O289  1  0.79904074  0.45150528  0.38630334  1
  O  O290  1  0.78591032  0.45867588  0.72818112  1
  O  O291  1  0.80246582  0.97339684  0.06209766  1
  O  O292  1  0.79556410  0.97585677  0.39510409  1
  O  O293  1  0.78981666  0.97455015  0.73240098  1
  O  O294  1  0.46738929  0.29749003  0.22833855  1
  O  O295  1  0.46140318  0.31089945  0.56597754  1
  O  O296  1  0.46432336  0.29521473  0.89363622  1
  O  O297  1  0.47607370  0.79175782  0.23183727  1
  O  O298  1  0.46410246  0.79825810  0.56213406  1
  O  O299  1  0.47195541  0.79925693  0.89756793  1
  O  O300  1  0.96532659  0.30109531  0.23051454  1
  O  O301  1  0.97208287  0.29012830  0.56263913  1
  O  O302  1  0.96563649  0.30558137  0.89742053  1
  O  O303  1  0.96254466  0.79766842  0.22212080  1
  O  O304  1  0.95319585  0.82032169  0.56189919  1
  O  O305  1  0.97879429  0.80018221  0.90179542  1
  O  O306  1  0.17707622  0.03585857  0.26753845  1
  O  O307  1  0.20417080  0.03628189  0.60444950  1
  O  O308  1  0.19806399  0.02630887  0.93431432  1
  O  O309  1  0.20007589  0.53043568  0.26657577  1
  O  O310  1  0.20836678  0.52557391  0.60416316  1
  O  O311  1  0.20077578  0.53635583  0.93835731  1
  O  O312  1  0.69900484  0.03227296  0.26952793  1
  O  O313  1  0.70199119  0.02916532  0.60399511  1
  O  O314  1  0.69616489  0.03313077  0.93830094  1
  O  O315  1  0.70043542  0.52477272  0.26524455  1
  O  O316  1  0.69465657  0.55395664  0.62028782  1
  O  O317  1  0.69841651  0.52929288  0.93407727  1
  O  O318  1  0.09238129  0.10782654  0.04535490  1
  O  O319  1  0.08545085  0.08780510  0.37200423  1
  O  O320  1  0.08788210  0.09086830  0.70656930  1
  O  O321  1  0.08594326  0.59136969  0.03563140  1
  O  O322  1  0.09552381  0.58393829  0.35654869  1
  O  O323  1  0.08782570  0.58144356  0.69743066  1
  O  O324  1  0.58601618  0.08773612  0.03746884  1
  O  O325  1  0.59113950  0.09144916  0.37186236  1
  O  O326  1  0.58111919  0.08501393  0.70855714  1
  O  O327  1  0.58152954  0.58860451  0.03816885  1
  O  O328  1  0.57358114  0.58383627  0.37383892  1
  O  O329  1  0.58950390  0.58705805  0.70850261  1
  O  O330  1  0.41418585  0.41528865  0.13252163  1
  O  O331  1  0.41223327  0.41003010  0.45915635  1
  O  O332  1  0.40730500  0.41309475  0.79234931  1
  O  O333  1  0.42181367  0.90719122  0.14213786  1
  O  O334  1  0.41422653  0.91364104  0.46321337  1
  O  O335  1  0.41581136  0.91551973  0.79996830  1
  O  O336  1  0.90813621  0.41600759  0.13246353  1
  O  O337  1  0.91357103  0.41323544  0.46529986  1
  O  O338  1  0.89873419  0.40434843  0.78950095  1
  O  O339  1  0.91521825  0.92119442  0.12926315  1
  O  O340  1  0.91379932  0.93087205  0.45727117  1
  O  O341  1  0.89882649  0.91694002  0.79854254  1
  O  O342  1  0.41334358  0.40832329  0.29579046  1
  O  O343  1  0.41548304  0.42060534  0.64175262  1
  O  O344  1  0.40723485  0.40516974  0.95678783  1
  O  O345  1  0.42837882  0.90870117  0.29825621  1
  O  O346  1  0.41411534  0.91119559  0.63143066  1
  O  O347  1  0.41911398  0.91249768  0.96190648  1
  O  O348  1  0.90035018  0.40540771  0.29157563  1
  O  O349  1  0.91537860  0.40360202  0.62060346  1
  O  O350  1  0.90836458  0.41407325  0.96496256  1
  O  O351  1  0.92150958  0.91973132  0.28982110  1
  O  O352  1  0.90640932  0.92143604  0.64543303  1
  O  O353  1  0.92117597  0.91255381  0.96065091  1
  O  O354  1  0.07616281  0.08970981  0.19182276  1
  O  O355  1  0.09238446  0.08759428  0.53507525  1
  O  O356  1  0.08685058  0.08241854  0.87062193  1
  O  O357  1  0.09009976  0.58857550  0.19957384  1
  O  O358  1  0.09671033  0.58264437  0.54361188  1
  O  O359  1  0.09594383  0.59985435  0.87614279  1
  O  O360  1  0.58877952  0.08530761  0.19909341  1
  O  O361  1  0.58497162  0.07286962  0.53314690  1
  O  O362  1  0.58078237  0.08220168  0.87246880  1
  O  O363  1  0.59708624  0.59061192  0.20980986  1
  O  O364  1  0.57623446  0.58253953  0.53758174  1
  O  O365  1  0.58682394  0.58363448  0.86858931  1
  O  O366  1  0.13446818  0.24127109  0.06147540  1
  O  O367  1  0.13753220  0.22243808  0.39155732  1
  O  O368  1  0.13356191  0.22499461  0.72167620  1
  O  O369  1  0.14602139  0.72429569  0.06109512  1
  O  O370  1  0.15410278  0.71298307  0.36893121  1
  O  O371  1  0.13486880  0.71772055  0.72605773  1
  O  O372  1  0.63727444  0.22090786  0.05388510  1
  O  O373  1  0.64162265  0.22485630  0.38853168  1
  O  O374  1  0.63448541  0.21681441  0.72389112  1
  O  O375  1  0.63686691  0.71968715  0.05586270  1
  O  O376  1  0.63647287  0.71497020  0.39466610  1
  O  O377  1  0.63921152  0.72186091  0.72975732  1
  O  O378  1  0.28021236  0.36036003  0.10828348  1
  O  O379  1  0.27711471  0.36055548  0.44066754  1
  O  O380  1  0.27343440  0.36197829  0.77163538  1
  O  O381  1  0.28387543  0.85764743  0.10556082  1
  O  O382  1  0.28083852  0.86402422  0.44616898  1
  O  O383  1  0.28222212  0.85645297  0.77415267  1
  O  O384  1  0.77346269  0.35930881  0.10728158  1
  O  O385  1  0.78159859  0.36121789  0.44867220  1
  O  O386  1  0.76742879  0.35593498  0.77922914  1
  O  O387  1  0.78311117  0.86588097  0.10878714  1
  O  O388  1  0.78502890  0.86477632  0.43899712  1
  O  O389  1  0.76494314  0.86848114  0.77820046  1
  O  O390  1  0.35931297  0.27380695  0.27270480  1
  O  O391  1  0.35761129  0.28595767  0.61456577  1
  O  O392  1  0.35906328  0.27213398  0.94162793  1
  O  O393  1  0.36722017  0.77788645  0.27734867  1
  O  O394  1  0.35766491  0.77767045  0.60920939  1
  O  O395  1  0.36432099  0.77854377  0.94230259  1
  O  O396  1  0.85692340  0.27040998  0.27180146  1
  O  O397  1  0.86283716  0.27143028  0.60687735  1
  O  O398  1  0.85995754  0.27837419  0.94258876  1
  O  O399  1  0.86950639  0.79260554  0.28751653  1
  O  O400  1  0.85707409  0.78270809  0.61385296  1
  O  O401  1  0.86563841  0.78080418  0.94067804  1
  O  O402  1  0.21449314  0.13726861  0.22226527  1
  O  O403  1  0.22650133  0.14220899  0.55853819  1
  O  O404  1  0.21974823  0.13498159  0.89011857  1
  O  O405  1  0.22586894  0.64049541  0.22597722  1
  O  O406  1  0.22933971  0.63473729  0.56163038  1
  O  O407  1  0.23175445  0.64057993  0.89297103  1
  O  O408  1  0.72306327  0.13862593  0.22381579  1
  O  O409  1  0.71552603  0.13699415  0.55663076  1
  O  O410  1  0.71233401  0.13930968  0.88950832  1
  O  O411  1  0.73250388  0.63770337  0.23004036  1
  O  O412  1  0.70674965  0.63763925  0.54872288  1
  O  O413  1  0.71944356  0.64016366  0.89228658  1
  O  O414  1  0.48938550  0.33063914  0.02736843  1
  O  O415  1  0.49039839  0.32878511  0.36205285  1
  O  O416  1  0.49002551  0.33347032  0.69960497  1
  O  O417  1  0.49418319  0.83449042  0.03203800  1
  O  O418  1  0.49837737  0.82513346  0.36542975  1
  O  O419  1  0.48959498  0.82984755  0.69618064  1
  O  O420  1  0.98944299  0.33853447  0.03184088  1
  O  O421  1  0.98495558  0.33096183  0.36271709  1
  O  O422  1  0.99123829  0.32811426  0.69632425  1
  O  O423  1  0.99438038  0.83638959  0.03405888  1
  O  O424  1  1.00647328  0.84762371  0.35846952  1
  O  O425  1  0.99047913  0.83686896  0.69600123  1
  O  O426  1  0.15812383  0.00617000  0.13466662  1
  O  O427  1  0.17308999  0.01044032  0.47009710  1
  O  O428  1  0.16390518  0.00498048  0.80089479  1
  O  O429  1  0.17015334  0.51148037  0.13453011  1
  O  O430  1  0.17350765  0.50636810  0.47071349  1
  O  O431  1  0.16775280  0.51261379  0.80505963  1
  O  O432  1  0.67049647  0.00701356  0.13623631  1
  O  O433  1  0.67126936  0.00466060  0.46954786  1
  O  O434  1  0.65893824  0.00721373  0.80320537  1
  O  O435  1  0.66979294  0.51293314  0.13434928  1
  O  O436  1  0.65797926  0.49860046  0.48361899  1
  O  O437  1  0.66777315  0.50920689  0.80114868  1
  O  O438  1  0.00836260  0.16558515  0.30198250  1
  O  O439  1  0.00511788  0.16246713  0.63420932  1
  O  O440  1  0.00860115  0.17784686  0.96922405  1
  O  O441  1  0.01423015  0.66955935  0.30461850  1
  O  O442  1  0.00156909  0.66287047  0.64126455  1
  O  O443  1  0.01641304  0.67503302  0.96825432  1
  O  O444  1  0.51162879  0.16629968  0.30021728  1
  O  O445  1  0.50083129  0.16159008  0.64137405  1
  O  O446  1  0.50531119  0.16481612  0.96980324  1
  O  O447  1  0.50766412  0.66395399  0.30240553  1
  O  O448  1  0.50897168  0.66563544  0.64135445  1
  O  O449  1  0.50531723  0.66851097  0.97068494  1
  O  O450  1  0.33213101  0.49135326  0.19703116  1
  O  O451  1  0.33715436  0.48966602  0.52937785  1
  O  O452  1  0.32949371  0.49070761  0.86214297  1
  O  O453  1  0.33317013  0.98860549  0.19425736  1
  O  O454  1  0.34072177  0.99451229  0.53387631  1
  O  O455  1  0.33114329  0.98754268  0.86442048  1
  O  O456  1  0.82719137  0.48754030  0.20088407  1
  O  O457  1  0.83303703  0.49997717  0.52198438  1
  O  O458  1  0.82895342  0.48754407  0.86338744  1
  O  O459  1  0.83455016  0.99741528  0.19585125  1
  O  O460  1  0.83258654  0.99400727  0.53003567  1
  O  O461  1  0.82143154  0.99761346  0.86607027  1
