# generated using pymatgen
data_Na31Fe20(SO4)36
_symmetry_space_group_name_H-M   'P 1'
_cell_length_a   18.07150441
_cell_length_b   18.06785153
_cell_length_c   19.69778144
_cell_angle_alpha   107.59096429
_cell_angle_beta   107.59918462
_cell_angle_gamma   90.69825661
_symmetry_Int_Tables_number   1
_chemical_formula_structural   Na31Fe20(SO4)36
_chemical_formula_sum   'Na62 Fe40 S72 O288'
_cell_volume   5805.79702198
_cell_formula_units_Z   2
loop_
 _symmetry_equiv_pos_site_id
 _symmetry_equiv_pos_as_xyz
  1  'x, y, z'
loop_
 _atom_site_type_symbol
 _atom_site_label
 _atom_site_symmetry_multiplicity
 _atom_site_fract_x
 _atom_site_fract_y
 _atom_site_fract_z
 _atom_site_occupancy
  Na  Na0  1  0.13498538  0.37051689  0.09016198  1
  Na  Na1  1  0.13201885  0.36679166  0.41322004  1
  Na  Na2  1  0.12789650  0.35764859  0.74189451  1
  Na  Na3  1  0.14205609  0.87081679  0.09686387  1
  Na  Na4  1  0.12859585  0.87420474  0.40062731  1
  Na  Na5  1  0.13301707  0.86456919  0.75113511  1
  Na  Na6  1  0.63247660  0.33501482  0.05159337  1
  Na  Na7  1  0.62944576  0.36090065  0.41752249  1
  Na  Na8  1  0.65309716  0.36048084  0.76474284  1
  Na  Na9  1  0.64081496  0.86614961  0.09118392  1
  Na  Na10  1  0.63212549  0.86648979  0.41183347  1
  Na  Na11  1  0.63233301  0.86913187  0.75071460  1
  Na  Na12  1  0.37134150  0.14292758  0.26626830  1
  Na  Na13  1  0.37276884  0.12756696  0.58086165  1
  Na  Na14  1  0.36502453  0.14442261  0.91654254  1
  Na  Na15  1  0.33916677  0.63369261  0.23885542  1
  Na  Na16  1  0.36898313  0.62998764  0.58141839  1
  Na  Na17  1  0.36924124  0.62891738  0.91807093  1
  Na  Na18  1  0.86753954  0.13447100  0.25222317  1
  Na  Na19  1  0.86079155  0.13059346  0.57709495  1
  Na  Na20  1  0.85768514  0.14975850  0.92327674  1
  Na  Na21  1  0.86781331  0.64448877  0.25019434  1
  Na  Na22  1  0.86751752  0.62775005  0.57881981  1
  Na  Na23  1  0.86308409  0.63810365  0.92423809  1
  Na  Na24  1  0.49222990  0.01008620  0.08338007  1
  Na  Na25  1  0.99422135  0.50617722  0.73943506  1
  Na  Na26  1  0.96722910  0.51967082  0.08759254  1
  Na  Na27  1  0.44785704  0.49472337  0.40036520  1
  Na  Na28  1  0.51241221  0.46040814  0.79636980  1
  Na  Na29  1  0.52843702  0.48476235  0.05066308  1
  Na  Na30  1  0.49697490  0.05532651  0.74901958  1
  Na  Na31  1  0.49571205  0.01136615  0.42779058  1
  Na  Na32  1  0.98557528  0.01366696  0.74839008  1
  Na  Na33  1  0.01272529  0.99783624  0.55831862  1
  Na  Na34  1  0.50468030  0.44686106  0.57436961  1
  Na  Na35  1  0.52930051  0.98943641  0.26075984  1
  Na  Na36  1  0.02060999  0.99231100  0.26497509  1
  Na  Na37  1  -0.01475121  1.00576334  0.93902351  1
  Na  Na38  1  0.49284245  1.02085251  0.90340796  1
  Na  Na39  1  0.00693556  0.50467125  0.26241386  1
  Na  Na40  1  0.48154668  0.50919678  0.24601432  1
  Na  Na41  1  -0.01196826  0.50659397  0.92478330  1
  Na  Na42  1  0.74205204  0.74041010  0.01775118  1
  Na  Na43  1  0.26983956  0.25763987  0.66010290  1
  Na  Na44  1  0.26715947  0.26697439  0.33057873  1
  Na  Na45  1  0.24424092  0.75351645  0.32026921  1
  Na  Na46  1  0.74356226  0.23716729  0.34058119  1
  Na  Na47  1  0.25374555  0.25724821  -0.00083398  1
  Na  Na48  1  0.75758741  0.76399896  0.31814269  1
  Na  Na49  1  0.75177008  0.75076234  0.66593330  1
  Na  Na50  1  0.25284909  0.75204341  0.66355938  1
  Na  Na51  1  0.24134340  0.74088806  0.01557463  1
  Na  Na52  1  0.26790003  0.26114953  0.82366081  1
  Na  Na53  1  0.75516919  0.75600857  0.49247580  1
  Na  Na54  1  0.73752284  0.23154427  0.50978896  1
  Na  Na55  1  0.25802580  0.26132590  0.16607743  1
  Na  Na56  1  0.74400995  0.74175401  0.83785055  1
  Na  Na57  1  0.75467439  0.25496282  0.15598931  1
  Na  Na58  1  0.25060458  0.75339117  0.49224714  1
  Na  Na59  1  0.73005744  0.25088471  0.86076179  1
  Na  Na60  1  0.25947781  0.24316855  0.48948080  1
  Na  Na61  1  0.24561246  0.74541687  0.83871964  1
  Fe  Fe62  1  0.46336137  0.80637505  0.11967007  1
  Fe  Fe63  1  0.46853846  0.30826027  0.11903673  1
  Fe  Fe64  1  0.95856822  0.31145431  0.78560218  1
  Fe  Fe65  1  0.96639224  0.80340970  0.44862657  1
  Fe  Fe66  1  0.96530115  0.80957829  0.78801401  1
  Fe  Fe67  1  0.96160217  0.30894773  0.11698237  1
  Fe  Fe68  1  0.96738161  0.80305741  0.12564149  1
  Fe  Fe69  1  0.46666403  0.80559590  0.78601757  1
  Fe  Fe70  1  0.46625059  0.80979581  0.45427210  1
  Fe  Fe71  1  0.96834690  0.30923240  0.45242933  1
  Fe  Fe72  1  0.19714125  0.53336404  0.37611590  1
  Fe  Fe73  1  0.19152661  0.53448858  0.05175604  1
  Fe  Fe74  1  0.68646635  0.03967634  0.71116738  1
  Fe  Fe75  1  0.19482814  0.03581924  0.05039381  1
  Fe  Fe76  1  0.18763431  0.53476813  0.70821468  1
  Fe  Fe77  1  0.70183373  0.53194742  0.04184887  1
  Fe  Fe78  1  0.69806141  0.53071012  0.71482409  1
  Fe  Fe79  1  0.18819213  0.03292214  0.71346300  1
  Fe  Fe80  1  0.69193092  0.53198924  0.37764656  1
  Fe  Fe81  1  0.69205060  0.03525977  0.04658242  1
  Fe  Fe82  1  0.53550425  0.20285057  0.54533884  1
  Fe  Fe83  1  0.03323182  0.19502721  0.88283274  1
  Fe  Fe84  1  0.53567157  0.69062334  0.54541364  1
  Fe  Fe85  1  0.53404366  0.69009262  0.21165061  1
  Fe  Fe86  1  0.53626697  0.19282107  0.21929981  1
  Fe  Fe87  1  0.03527711  0.19099095  0.21634622  1
  Fe  Fe88  1  0.03799385  0.18913053  0.54341420  1
  Fe  Fe89  1  0.53401395  0.68969986  0.87870068  1
  Fe  Fe90  1  0.03607883  0.68525160  0.54211090  1
  Fe  Fe91  1  0.03429083  0.69445294  0.88339854  1
  Fe  Fe92  1  0.30368310  0.96517125  0.61575966  1
  Fe  Fe93  1  0.30632028  0.96566516  0.95295381  1
  Fe  Fe94  1  0.30702559  0.46357806  0.95257672  1
  Fe  Fe95  1  0.80941502  0.46125580  0.61598710  1
  Fe  Fe96  1  0.30192993  0.96863216  0.28874749  1
  Fe  Fe97  1  0.80098001  0.96946330  0.61841174  1
  Fe  Fe98  1  0.80988009  0.46445279  0.28713184  1
  Fe  Fe99  1  0.80840355  0.96438094  0.95633189  1
  Fe  Fe100  1  0.80375102  0.96922279  0.29114258  1
  Fe  Fe101  1  0.31184036  0.46217072  0.62300400  1
  S  S102  1  0.36022429  0.13974321  0.08250441  1
  S  S103  1  0.36447736  0.13412289  0.41937090  1
  S  S104  1  0.35388100  0.13449361  0.75288782  1
  S  S105  1  0.35996614  0.63865953  0.08317910  1
  S  S106  1  0.36222538  0.64271177  0.41429185  1
  S  S107  1  0.35803293  0.64182405  0.75004237  1
  S  S108  1  0.86209289  0.13920105  0.08206145  1
  S  S109  1  0.86201878  0.14308427  0.41699536  1
  S  S110  1  0.85950860  0.14121197  0.75340245  1
  S  S111  1  0.85968539  0.64073633  0.08365206  1
  S  S112  1  0.85794777  0.64006524  0.41590047  1
  S  S113  1  0.86133000  0.64044502  0.74721263  1
  S  S114  1  0.13563887  0.35868189  0.25134163  1
  S  S115  1  0.14232964  0.35765075  0.58422050  1
  S  S116  1  0.13787501  0.35871662  0.91296883  1
  S  S117  1  0.13821360  0.87003805  0.24812971  1
  S  S118  1  0.13849625  0.85899525  0.58501505  1
  S  S119  1  0.14106234  0.86017485  0.91879670  1
  S  S120  1  0.64404298  0.35747199  0.24874139  1
  S  S121  1  0.64868049  0.35860373  0.58750168  1
  S  S122  1  0.63919489  0.37064939  0.91663797  1
  S  S123  1  0.63627363  0.85804874  0.24897311  1
  S  S124  1  0.64127951  0.85724263  0.58357431  1
  S  S125  1  0.64059994  0.85833339  0.91694914  1
  S  S126  1  0.06932480  0.17154133  0.04388567  1
  S  S127  1  0.06827278  0.17165642  0.37913182  1
  S  S128  1  0.06395153  0.16416575  0.70802231  1
  S  S129  1  0.06558140  0.67094530  0.04007434  1
  S  S130  1  0.06809061  0.67293953  0.37686578  1
  S  S131  1  0.06668332  0.67247065  0.71011037  1
  S  S132  1  0.56181690  0.16112995  0.04370281  1
  S  S133  1  0.56612157  0.16759702  0.37891096  1
  S  S134  1  0.56948297  0.17245068  0.70784966  1
  S  S135  1  0.57042922  0.67055051  0.04192129  1
  S  S136  1  0.56745494  0.66748202  0.37406801  1
  S  S137  1  0.57070399  0.66939434  0.70868384  1
  S  S138  1  0.32975715  0.43539440  0.12250649  1
  S  S139  1  0.32772040  0.43526541  0.45987017  1
  S  S140  1  0.31985257  0.43275436  0.78597350  1
  S  S141  1  0.33549186  0.93645367  0.12554335  1
  S  S142  1  0.33313868  0.92566518  0.45746677  1
  S  S143  1  0.32870502  0.92838435  0.79128273  1
  S  S144  1  0.82926084  0.43568514  0.12756338  1
  S  S145  1  0.82638270  0.42861173  0.45337042  1
  S  S146  1  0.84091890  0.44258397  0.79216304  1
  S  S147  1  0.82902737  0.93227424  0.12513122  1
  S  S148  1  0.82846830  0.92805046  0.45785693  1
  S  S149  1  0.83307114  0.93501589  0.79273825  1
  S  S150  1  0.44076957  0.33432484  0.28599841  1
  S  S151  1  0.43910354  0.32772071  0.62737279  1
  S  S152  1  0.42599243  0.32974105  0.95787713  1
  S  S153  1  0.42955724  0.82849082  0.28948764  1
  S  S154  1  0.43150139  0.82935438  0.62458788  1
  S  S155  1  0.43236582  0.82927296  0.95675938  1
  S  S156  1  0.93121841  0.32908966  0.28781529  1
  S  S157  1  0.93359714  0.32550912  0.62037135  1
  S  S158  1  0.93817999  0.33500713  0.95805517  1
  S  S159  1  0.93038790  0.83732488  0.29439414  1
  S  S160  1  0.93074358  0.83040048  0.62477742  1
  S  S161  1  0.93149983  0.82748058  0.95678584  1
  S  S162  1  0.17718542  0.07874695  0.21124324  1
  S  S163  1  0.17237924  0.06481548  0.54430962  1
  S  S164  1  0.16661495  0.06613757  0.87817808  1
  S  S165  1  0.15874007  0.56060750  0.20714942  1
  S  S166  1  0.17530346  0.56817204  0.54375571  1
  S  S167  1  0.16751189  0.56679780  0.87419621  1
  S  S168  1  0.66889777  0.06419933  0.20780135  1
  S  S169  1  0.66699586  0.06497631  0.53964812  1
  S  S170  1  0.66994520  0.06220579  0.87577328  1
  S  S171  1  0.67224103  0.56859310  0.20867407  1
  S  S172  1  0.67102577  0.56545331  0.54186170  1
  S  S173  1  0.67083015  0.57278467  0.87634354  1
  O  O174  1  0.37147823  0.21836828  0.07481826  1
  O  O175  1  0.36479623  0.20667707  0.40018100  1
  O  O176  1  0.35517670  0.21296177  0.74687170  1
  O  O177  1  0.37000036  0.71755473  0.07406317  1
  O  O178  1  0.37191976  0.72366570  0.41012818  1
  O  O179  1  0.36933341  0.72089633  0.74171290  1
  O  O180  1  0.87130172  0.21732690  0.07230891  1
  O  O181  1  0.87506948  0.22106013  0.40612148  1
  O  O182  1  0.87078727  0.21913967  0.74583898  1
  O  O183  1  0.86791896  0.72182170  0.07803692  1
  O  O184  1  0.86521915  0.71978132  0.40858403  1
  O  O185  1  0.87028417  0.71996646  0.73974160  1
  O  O186  1  0.27934049  0.13307771  0.08656704  1
  O  O187  1  0.29533599  0.11967038  0.43881358  1
  O  O188  1  0.27566437  0.11919892  0.76407159  1
  O  O189  1  0.28045546  0.62997211  0.08947585  1
  O  O190  1  0.28346509  0.63430458  0.42304632  1
  O  O191  1  0.27786813  0.63494960  0.75627451  1
  O  O192  1  0.78216254  0.12955505  0.08817370  1
  O  O193  1  0.78586229  0.13820123  0.42749899  1
  O  O194  1  0.78270493  0.13116842  0.76409535  1
  O  O195  1  0.77516055  0.63076277  0.08339412  1
  O  O196  1  0.77899397  0.62950199  0.42444710  1
  O  O197  1  0.78155074  0.63161988  0.75364493  1
  O  O198  1  0.12302541  0.28342033  0.26657461  1
  O  O199  1  0.13219570  0.28011274  0.59564313  1
  O  O200  1  0.13071405  0.27999463  0.92294921  1
  O  O201  1  0.13515783  0.79533250  0.26198445  1
  O  O202  1  0.12806011  0.78027775  0.59318145  1
  O  O203  1  0.13299792  0.77911371  0.92263738  1
  O  O204  1  0.63545377  0.27975368  0.25973805  1
  O  O205  1  0.63498211  0.27694510  0.58935910  1
  O  O206  1  0.63024058  0.29521328  0.92874038  1
  O  O207  1  0.62676178  0.77674807  0.25360043  1
  O  O208  1  0.63215578  0.77754873  0.59148689  1
  O  O209  1  0.63010674  0.77860045  0.92307750  1
  O  O210  1  0.21310721  0.36252000  0.24319535  1
  O  O211  1  0.22382397  0.36457922  0.58068958  1
  O  O212  1  0.21604759  0.36760106  0.90334459  1
  O  O213  1  0.21266413  0.88195873  0.23020153  1
  O  O214  1  0.21807050  0.86602248  0.57775248  1
  O  O215  1  0.21973344  0.86995021  0.90960028  1
  O  O216  1  0.72470626  0.36732378  0.24451614  1
  O  O217  1  0.72885926  0.36369570  0.58099685  1
  O  O218  1  0.71601535  0.38398945  0.90834126  1
  O  O219  1  0.71559715  0.86870638  0.24346944  1
  O  O220  1  0.72185484  0.86638323  0.57812025  1
  O  O221  1  0.71921229  0.86622357  0.90753546  1
  O  O222  1  0.41640551  0.12867343  0.15037389  1
  O  O223  1  0.43464540  0.13461678  0.48707310  1
  O  O224  1  0.41466088  0.12196590  0.81621762  1
  O  O225  1  0.41818239  0.63203758  0.15237392  1
  O  O226  1  0.42086467  0.63393118  0.48395433  1
  O  O227  1  0.41529205  0.63630842  0.82018056  1
  O  O228  1  0.91935967  0.13303589  0.15175454  1
  O  O229  1  0.92359061  0.13410015  0.48403061  1
  O  O230  1  0.92061465  0.13001036  0.82015042  1
  O  O231  1  0.91223940  0.63240655  0.15285676  1
  O  O232  1  0.91728898  0.63468335  0.48494040  1
  O  O233  1  0.92014853  0.63258317  0.81519257  1
  O  O234  1  0.36890425  0.07990047  0.01418251  1
  O  O235  1  0.37722472  0.06894697  0.35587107  1
  O  O236  1  0.36055181  0.07726301  0.68127806  1
  O  O237  1  0.36882254  0.57982987  0.01551550  1
  O  O238  1  0.37228068  0.58557086  0.34796653  1
  O  O239  1  0.36723554  0.58241528  0.68360625  1
  O  O240  1  0.87209852  0.07947284  0.01490069  1
  O  O241  1  0.86671408  0.08275917  0.34782714  1
  O  O242  1  0.86756638  0.08102166  0.68482195  1
  O  O243  1  0.87144639  0.58428031  0.01731267  1
  O  O244  1  0.86599832  0.58183699  0.34818070  1
  O  O245  1  0.87077897  0.58160891  0.67952752  1
  O  O246  1  0.07560948  0.36331240  0.18134183  1
  O  O247  1  0.08725185  0.36381978  0.51377254  1
  O  O248  1  0.07813733  0.36390519  0.84397195  1
  O  O249  1  0.07417063  0.87106722  0.17784824  1
  O  O250  1  0.07977270  0.87036907  0.51877224  1
  O  O251  1  0.08145127  0.87008892  0.85192342  1
  O  O252  1  0.58799830  0.36191452  0.17762213  1
  O  O253  1  0.59241665  0.37496940  0.52431250  1
  O  O254  1  0.57719912  0.38192080  0.85409034  1
  O  O255  1  0.57755830  0.86468027  0.17836849  1
  O  O256  1  0.58424274  0.86178299  0.51349021  1
  O  O257  1  0.58105005  0.86700540  0.84914205  1
  O  O258  1  0.12557596  0.42267766  0.31598277  1
  O  O259  1  0.13087917  0.41844725  0.64955279  1
  O  O260  1  0.12978383  0.41848331  0.98031159  1
  O  O261  1  0.13089673  0.93450341  0.31126177  1
  O  O262  1  0.13161161  0.91760430  0.65441232  1
  O  O263  1  0.13473593  0.91659833  0.98861292  1
  O  O264  1  0.63278262  0.41827091  0.31429247  1
  O  O265  1  0.64383500  0.41389532  0.65971185  1
  O  O266  1  0.63337861  0.43326610  0.99077231  1
  O  O267  1  0.62312989  0.91455722  0.31381925  1
  O  O268  1  0.63338994  0.91589438  0.65111130  1
  O  O269  1  0.63411414  0.91671838  0.98559567  1
  O  O270  1  0.03486670  0.19990554  0.10579532  1
  O  O271  1  0.03246730  0.20909584  0.44075770  1
  O  O272  1  0.02810295  0.19435410  0.76902417  1
  O  O273  1  0.02984585  0.69980439  0.09918820  1
  O  O274  1  0.03426752  0.70391389  0.44238495  1
  O  O275  1  0.03041528  0.70411307  0.77123375  1
  O  O276  1  0.53251959  0.19327601  0.11014768  1
  O  O277  1  0.53703633  0.20653907  0.44267817  1
  O  O278  1  0.52497492  0.18597324  0.75944983  1
  O  O279  1  0.53026043  0.69552553  0.10067924  1
  O  O280  1  0.53219472  0.69831614  0.43571070  1
  O  O281  1  0.53237254  0.69754740  0.76883711  1
  O  O282  1  0.29344814  0.46453794  0.05575917  1
  O  O283  1  0.29585272  0.47276042  0.40115259  1
  O  O284  1  0.28960901  0.47524211  0.72831926  1
  O  O285  1  0.30461619  0.97316590  0.06397329  1
  O  O286  1  0.30265898  0.95058789  0.39120946  1
  O  O287  1  0.29796906  0.95967800  0.72774136  1
  O  O288  1  0.79854860  0.47387637  0.06882371  1
  O  O289  1  0.79782084  0.46934505  0.39483913  1
  O  O290  1  0.80542680  0.47216192  0.72533283  1
  O  O291  1  0.80070154  0.97080705  0.06426435  1
  O  O292  1  0.80621251  0.96282007  0.39761743  1
  O  O293  1  0.80217931  0.96976799  0.73139439  1
  O  O294  1  0.47357093  0.29335112  0.22183517  1
  O  O295  1  0.47476095  0.29880148  0.56494241  1
  O  O296  1  0.45090270  0.30048405  0.89342299  1
  O  O297  1  0.46543218  0.79659904  0.22747616  1
  O  O298  1  0.47014134  0.80100106  0.56504129  1
  O  O299  1  0.46903089  0.79965945  0.89594102  1
  O  O300  1  0.96481182  0.29608848  0.22503692  1
  O  O301  1  0.97405645  0.29913758  0.56227756  1
  O  O302  1  0.97265416  0.29834767  0.89507137  1
  O  O303  1  0.96552506  0.81218361  0.23410988  1
  O  O304  1  0.96679045  0.80188792  0.56411681  1
  O  O305  1  0.97000349  0.79880482  0.89593446  1
  O  O306  1  0.21628588  0.05072873  0.27411703  1
  O  O307  1  0.20009144  0.02893039  0.60838080  1
  O  O308  1  0.19700455  0.02877194  0.93871383  1
  O  O309  1  0.19750027  0.53099532  0.27008760  1
  O  O310  1  0.20492755  0.52889845  0.60331488  1
  O  O311  1  0.19763025  0.53113460  0.93523401  1
  O  O312  1  0.69915640  0.02811253  0.26689372  1
  O  O313  1  0.69856464  0.03479251  0.60715128  1
  O  O314  1  0.70439816  0.02477559  0.93667443  1
  O  O315  1  0.69951597  0.52716633  0.26622299  1
  O  O316  1  0.70095179  0.52762815  0.60211813  1
  O  O317  1  0.69374053  0.54326540  0.94080093  1
  O  O318  1  0.08914539  0.09009998  0.03674016  1
  O  O319  1  0.08154222  0.09259212  0.37817013  1
  O  O320  1  0.07676874  0.07977356  0.70129019  1
  O  O321  1  0.08724686  0.58957417  0.03556160  1
  O  O322  1  0.09694403  0.59633186  0.37964564  1
  O  O323  1  0.08411568  0.59142682  0.70831439  1
  O  O324  1  0.57876186  0.07741693  0.03794455  1
  O  O325  1  0.57206424  0.08496220  0.37259179  1
  O  O326  1  0.58585928  0.08709167  0.69061416  1
  O  O327  1  0.59776836  0.59246508  0.04077351  1
  O  O328  1  0.58498624  0.58544999  0.36903075  1
  O  O329  1  0.59300524  0.58968044  0.70371203  1
  O  O330  1  0.40930764  0.41268526  0.12244246  1
  O  O331  1  0.40796412  0.41921271  0.46159580  1
  O  O332  1  0.39541700  0.40948939  0.78370035  1
  O  O333  1  0.41863488  0.92108498  0.13008024  1
  O  O334  1  0.41784182  0.91317487  0.46823834  1
  O  O335  1  0.41103036  0.91101890  0.79894408  1
  O  O336  1  0.91078119  0.41757776  0.12832975  1
  O  O337  1  0.90459223  0.40614369  0.45443509  1
  O  O338  1  0.92303628  0.42386188  0.79093059  1
  O  O339  1  0.90953433  0.91254173  0.13083048  1
  O  O340  1  0.91028238  0.90615127  0.47129529  1
  O  O341  1  0.91655409  0.91976871  0.79860146  1
  O  O342  1  0.42406400  0.41211475  0.27947704  1
  O  O343  1  0.41160997  0.40564094  0.62265264  1
  O  O344  1  0.40985809  0.41453088  0.97136746  1
  O  O345  1  0.41473774  0.91073024  0.29413028  1
  O  O346  1  0.41113171  0.90977887  0.63130462  1
  O  O347  1  0.41502660  0.91165586  0.96252643  1
  O  O348  1  0.91445241  0.41035994  0.29017481  1
  O  O349  1  0.91534574  0.40751428  0.62675991  1
  O  O350  1  0.93291216  0.41769116  0.96495394  1
  O  O351  1  0.90992842  0.91882345  0.30258207  1
  O  O352  1  0.91056354  0.91190794  0.63182817  1
  O  O353  1  0.91293036  0.90859930  0.95924753  1
  O  O354  1  0.09530438  0.09217046  0.20950349  1
  O  O355  1  0.09295342  0.08919497  0.54584162  1
  O  O356  1  0.08430514  0.08308749  0.87271173  1
  O  O357  1  0.07440917  0.56097180  0.19683929  1
  O  O358  1  0.09682987  0.59028321  0.54476355  1
  O  O359  1  0.08525689  0.58477514  0.86871496  1
  O  O360  1  0.58597825  0.08125390  0.20437582  1
  O  O361  1  0.59280657  0.10118189  0.54216086  1
  O  O362  1  0.58768023  0.07026463  0.86980196  1
  O  O363  1  0.58851096  0.58232140  0.20057928  1
  O  O364  1  0.58996919  0.58427890  0.53728360  1
  O  O365  1  0.58648924  0.58729845  0.85950736  1
  O  O366  1  0.13864345  0.22477170  0.05683535  1
  O  O367  1  0.13955884  0.22324630  0.39331216  1
  O  O368  1  0.13760233  0.21248240  0.72503445  1
  O  O369  1  0.13321904  0.72365363  0.04910428  1
  O  O370  1  0.13380062  0.73084553  0.39025138  1
  O  O371  1  0.13897465  0.72368475  0.72683372  1
  O  O372  1  0.63438493  0.20876434  0.05669251  1
  O  O373  1  0.64092288  0.21243621  0.39043321  1
  O  O374  1  0.64350661  0.22377009  0.73483210  1
  O  O375  1  0.63551958  0.72862931  0.05701361  1
  O  O376  1  0.63807740  0.71929425  0.38853604  1
  O  O377  1  0.63995518  0.72559467  0.72623774  1
  O  O378  1  0.27741350  0.36580225  0.11186245  1
  O  O379  1  0.27644320  0.36297570  0.44463805  1
  O  O380  1  0.26233900  0.36403369  0.76722583  1
  O  O381  1  0.28588886  0.86351634  0.10666881  1
  O  O382  1  0.28563788  0.85307888  0.44771682  1
  O  O383  1  0.27745762  0.85768777  0.77928764  1
  O  O384  1  0.77869993  0.36521309  0.11438791  1
  O  O385  1  0.76980011  0.36085611  0.43706975  1
  O  O386  1  0.79386871  0.37253396  0.78375761  1
  O  O387  1  0.77385817  0.86298872  0.10636425  1
  O  O388  1  0.77331358  0.85786332  0.44059340  1
  O  O389  1  0.78382752  0.86220299  0.77771570  1
  O  O390  1  0.36822719  0.28436550  0.27244182  1
  O  O391  1  0.37000403  0.27194552  0.61119048  1
  O  O392  1  0.35358576  0.28262705  0.95145997  1
  O  O393  1  0.35865743  0.77797932  0.27522121  1
  O  O394  1  0.36131221  0.77432690  0.60679636  1
  O  O395  1  0.36088098  0.77760236  0.94037793  1
  O  O396  1  0.85951234  0.27835422  0.27356821  1
  O  O397  1  0.86374889  0.27184573  0.60185868  1
  O  O398  1  0.86378212  0.28869264  0.94168060  1
  O  O399  1  0.86191121  0.78314782  0.28116889  1
  O  O400  1  0.86048750  0.77661678  0.60919556  1
  O  O401  1  0.85942627  0.77537953  0.93701583  1
  O  O402  1  0.22207545  0.15133436  0.21673320  1
  O  O403  1  0.22661914  0.13497694  0.56226848  1
  O  O404  1  0.21805294  0.13758875  0.89523907  1
  O  O405  1  0.19995143  0.63709993  0.21941976  1
  O  O406  1  0.22998982  0.63872108  0.56163140  1
  O  O407  1  0.21954711  0.63874224  0.89085563  1
  O  O408  1  0.71809267  0.13656407  0.22093712  1
  O  O409  1  0.72700269  0.12415100  0.54613568  1
  O  O410  1  0.71805660  0.13595478  0.89406032  1
  O  O411  1  0.72337852  0.64101875  0.23045545  1
  O  O412  1  0.72424649  0.63675486  0.55938282  1
  O  O413  1  0.72145982  0.64574133  0.89308769  1
  O  O414  1  0.49008148  0.33131921  0.02996033  1
  O  O415  1  0.49938727  0.34135467  0.35789442  1
  O  O416  1  0.49896546  0.34145541  0.69987126  1
  O  O417  1  0.49117375  0.83091911  0.02919893  1
  O  O418  1  0.49086444  0.83043587  0.36155137  1
  O  O419  1  0.49078668  0.83025889  0.69724413  1
  O  O420  1  0.99546248  0.32926860  0.02942360  1
  O  O421  1  0.99115709  0.33240089  0.35991245  1
  O  O422  1  0.99131271  0.32767781  0.69424585  1
  O  O423  1  0.98854815  0.82822904  0.02855531  1
  O  O424  1  0.99185224  0.83881070  0.36696998  1
  O  O425  1  0.99079977  0.83358463  0.69805998  1
  O  O426  1  0.17210498  0.01568039  0.13835154  1
  O  O427  1  0.16596607  0.00406481  0.47491933  1
  O  O428  1  0.16398737  0.00669406  0.80545409  1
  O  O429  1  0.16697407  0.50385162  0.13537299  1
  O  O430  1  0.17061147  0.51097664  0.47018025  1
  O  O431  1  0.16326664  0.50854298  0.80049606  1
  O  O432  1  0.66314970  0.00614168  0.13277736  1
  O  O433  1  0.64741608  -0.00323721  0.47207359  1
  O  O434  1  0.67289079  0.00601497  0.80250585  1
  O  O435  1  0.67290082  0.51375329  0.13429804  1
  O  O436  1  0.66925917  0.50735558  0.46899019  1
  O  O437  1  0.67771441  0.51178755  0.80857750  1
  O  O438  1  0.00825567  0.17073289  0.30603145  1
  O  O439  1  0.00647094  0.16321370  0.63506644  1
  O  O440  1  0.00700126  0.16648266  0.97130828  1
  O  O441  1  0.00397357  0.66079683  0.30736856  1
  O  O442  1  0.00900049  0.67015376  0.63722447  1
  O  O443  1  0.00392295  0.66061654  0.96412596  1
  O  O444  1  0.50784328  0.17128713  0.30648479  1
  O  O445  1  0.51825830  0.17973861  0.63348080  1
  O  O446  1  0.49929602  0.15756561  0.97490031  1
  O  O447  1  0.50717669  0.66258507  0.30087464  1
  O  O448  1  0.51116437  0.66704740  0.63616444  1
  O  O449  1  0.50956063  0.66216629  0.96783166  1
  O  O450  1  0.33857117  0.50030654  0.19097527  1
  O  O451  1  0.33139980  0.49239226  0.53507481  1
  O  O452  1  0.32414387  0.49013626  0.86078197  1
  O  O453  1  0.33658025  0.99436961  0.19760025  1
  O  O454  1  0.33128908  0.98766935  0.52736026  1
  O  O455  1  0.33147849  0.99059665  0.86312563  1
  O  O456  1  0.83780975  0.49536332  0.20252796  1
  O  O457  1  0.83182182  0.48812211  0.52736592  1
  O  O458  1  0.85115852  0.50779155  0.86097135  1
  O  O459  1  0.82946763  0.99169944  0.19719258  1
  O  O460  1  0.82811712  0.98845997  0.52971558  1
  O  O461  1  0.83690589  0.99348952  0.86642198  1
