# generated using pymatgen
data_Na31Fe20(SO4)36
_symmetry_space_group_name_H-M   'P 1'
_cell_length_a   18.06127182
_cell_length_b   18.06039848
_cell_length_c   19.69159851
_cell_angle_alpha   107.60228871
_cell_angle_beta   107.61299453
_cell_angle_gamma   90.68239538
_symmetry_Int_Tables_number   1
_chemical_formula_structural   Na31Fe20(SO4)36
_chemical_formula_sum   'Na62 Fe40 S72 O288'
_cell_volume   5797.58868766
_cell_formula_units_Z   2
loop_
 _symmetry_equiv_pos_site_id
 _symmetry_equiv_pos_as_xyz
  1  'x, y, z'
loop_
 _atom_site_type_symbol
 _atom_site_label
 _atom_site_symmetry_multiplicity
 _atom_site_fract_x
 _atom_site_fract_y
 _atom_site_fract_z
 _atom_site_occupancy
  Na  Na0  1  0.13162527  0.37721524  0.09493708  1
  Na  Na1  1  0.13190696  0.36507691  0.41299100  1
  Na  Na2  1  0.13488180  0.36657762  0.75547789  1
  Na  Na3  1  0.13151979  0.87391083  0.08425350  1
  Na  Na4  1  0.13775523  0.87436144  0.42667382  1
  Na  Na5  1  0.12389843  0.87126416  0.74424134  1
  Na  Na6  1  0.63769965  0.36318812  0.08787150  1
  Na  Na7  1  0.65279572  0.34203133  0.40885880  1
  Na  Na8  1  0.64026348  0.35570161  0.74229544  1
  Na  Na9  1  0.63239851  0.86431823  0.08085376  1
  Na  Na10  1  0.64532941  0.86358326  0.42338664  1
  Na  Na11  1  0.62270807  0.84657983  0.73625798  1
  Na  Na12  1  0.36962546  0.14287291  0.25471022  1
  Na  Na13  1  0.36843161  0.12607302  0.58332769  1
  Na  Na14  1  0.36831325  0.13600469  0.91918692  1
  Na  Na15  1  0.36484133  0.62698576  0.24849575  1
  Na  Na16  1  0.37100340  0.63694070  0.58492655  1
  Na  Na17  1  0.36365472  0.63863787  0.91598789  1
  Na  Na18  1  0.86434578  0.14114311  0.26243274  1
  Na  Na19  1  0.84607819  0.15113658  0.58126937  1
  Na  Na20  1  0.85617376  0.13190117  0.90830024  1
  Na  Na21  1  0.87245693  0.63014849  0.25198731  1
  Na  Na22  1  0.85540527  0.62962135  0.57335245  1
  Na  Na23  1  0.85932512  0.63419268  0.90775839  1
  Na  Na24  1  0.50595276  -0.00744755  0.43158462  1
  Na  Na25  1  0.49316137  0.05436382  0.10104689  1
  Na  Na26  1  0.99285391  0.51155994  0.40046780  1
  Na  Na27  1  0.49151233  0.50021217  0.09499257  1
  Na  Na28  1  0.97487290  0.00949831  0.43791351  1
  Na  Na29  1  0.49393507  0.52402356  0.74854080  1
  Na  Na30  1  0.48048743  0.53567602  0.42212772  1
  Na  Na31  1  0.45687651  -0.00609333  0.71761674  1
  Na  Na32  1  0.98746113  0.49523558  0.75492029  1
  Na  Na33  1  0.59131309  1.01766407  0.29508692  1
  Na  Na34  1  0.00351287  0.49596624  0.58599214  1
  Na  Na35  1  0.51644231  0.49143958  0.57828096  1
  Na  Na36  1  -0.00309747  1.01457767  0.89879751  1
  Na  Na37  1  0.53849398  0.47693600  0.27802303  1
  Na  Na38  1  0.51019015  0.94950558  0.89531099  1
  Na  Na39  1  0.51422931  0.48684022  0.91674016  1
  Na  Na40  1  0.00491595  0.46074121  0.92224475  1
  Na  Na41  1  0.00533344  1.00021051  0.24157230  1
  Na  Na42  1  0.76030527  0.75782311  -0.01501008  1
  Na  Na43  1  0.27413276  0.77434694  0.66188888  1
  Na  Na44  1  0.74908809  0.24756040  -0.00273500  1
  Na  Na45  1  0.24334131  0.24580925  0.67039184  1
  Na  Na46  1  0.74240902  0.73258954  0.34122772  1
  Na  Na47  1  0.25183842  0.75525121  -0.00129743  1
  Na  Na48  1  0.24665603  0.74714466  0.33610904  1
  Na  Na49  1  0.24094733  0.25030863  0.00313535  1
  Na  Na50  1  0.73258301  0.72814120  0.67475851  1
  Na  Na51  1  0.25854089  0.26801606  0.32740245  1
  Na  Na52  1  0.24320339  0.74425127  0.17010485  1
  Na  Na53  1  0.72697222  0.72612979  0.50544380  1
  Na  Na54  1  0.26428069  0.27186149  0.16822860  1
  Na  Na55  1  0.24495824  0.24498611  0.83922520  1
  Na  Na56  1  0.73457940  0.23597576  0.18105231  1
  Na  Na57  1  0.27022012  0.77155268  0.50159562  1
  Na  Na58  1  0.75163647  0.74901767  0.16687478  1
  Na  Na59  1  0.26223552  0.76535950  0.82296657  1
  Na  Na60  1  0.77039387  0.25614063  0.81169158  1
  Na  Na61  1  0.25271939  0.25244869  0.49932505  1
  Fe  Fe62  1  0.47122526  0.30266272  0.12567417  1
  Fe  Fe63  1  0.95819158  0.30848777  0.44944183  1
  Fe  Fe64  1  0.96761638  0.80761406  0.45548135  1
  Fe  Fe65  1  0.96521263  0.80645491  0.11584353  1
  Fe  Fe66  1  0.95890539  0.31361227  0.12316785  1
  Fe  Fe67  1  0.46753632  0.30930880  0.45150991  1
  Fe  Fe68  1  0.46555470  0.81333978  0.12623554  1
  Fe  Fe69  1  0.46627508  0.30596274  0.78412573  1
  Fe  Fe70  1  0.96183959  0.80614884  0.78418688  1
  Fe  Fe71  1  0.46744298  0.80439946  0.46222761  1
  Fe  Fe72  1  0.19768797  0.53392394  0.37638864  1
  Fe  Fe73  1  0.19007623  0.03901393  0.04554087  1
  Fe  Fe74  1  0.19602570  0.53351767  0.05032071  1
  Fe  Fe75  1  0.69203091  0.53543569  0.04771284  1
  Fe  Fe76  1  0.68774052  0.03164415  0.71094480  1
  Fe  Fe77  1  0.19252141  0.03508072  0.70555498  1
  Fe  Fe78  1  0.69142481  0.03279016  0.04473777  1
  Fe  Fe79  1  0.69641861  0.53076440  0.71488049  1
  Fe  Fe80  1  0.19642562  0.03395740  0.38082692  1
  Fe  Fe81  1  0.19246803  0.53576567  0.71529694  1
  Fe  Fe82  1  0.53607454  0.18505393  0.87510476  1
  Fe  Fe83  1  0.03174689  0.19908322  0.54803702  1
  Fe  Fe84  1  0.53413069  0.69375651  0.21482357  1
  Fe  Fe85  1  0.03341917  0.69276413  0.21238195  1
  Fe  Fe86  1  0.53092507  0.70128488  0.87960661  1
  Fe  Fe87  1  0.03534312  0.69365000  0.88111074  1
  Fe  Fe88  1  0.03550275  0.69396832  0.54980642  1
  Fe  Fe89  1  0.54007096  0.18725764  0.54764397  1
  Fe  Fe90  1  0.02695423  0.19778204  0.87206399  1
  Fe  Fe91  1  0.03149431  0.19303303  0.21114383  1
  Fe  Fe92  1  0.30627393  0.46773043  0.62005851  1
  Fe  Fe93  1  0.30992146  0.96717342  0.28621001  1
  Fe  Fe94  1  0.30897300  0.46482583  0.95368240  1
  Fe  Fe95  1  0.80651264  0.96696199  0.28983359  1
  Fe  Fe96  1  0.80492680  0.96511275  0.61705039  1
  Fe  Fe97  1  0.80973493  0.96259778  0.95246093  1
  Fe  Fe98  1  0.79857803  0.46592801  0.28621292  1
  Fe  Fe99  1  0.30649454  0.96846107  0.95373690  1
  Fe  Fe100  1  0.80553265  0.45831898  0.60865799  1
  Fe  Fe101  1  0.80844414  0.46631735  0.95363920  1
  S  S102  1  0.35357775  0.14533627  0.08303607  1
  S  S103  1  0.35830485  0.14318459  0.41883171  1
  S  S104  1  0.35827406  0.14484555  0.74936543  1
  S  S105  1  0.35944397  0.64201917  0.08203270  1
  S  S106  1  0.35589852  0.64428574  0.41760936  1
  S  S107  1  0.35602332  0.64198292  0.75403447  1
  S  S108  1  0.85794920  0.13989178  0.08141572  1
  S  S109  1  0.86225857  0.13742943  0.41705044  1
  S  S110  1  0.85925607  0.13291306  0.75138492  1
  S  S111  1  0.85805609  0.64316053  0.08179781  1
  S  S112  1  0.86484881  0.63932692  0.41450732  1
  S  S113  1  0.86291744  0.63555281  0.74806994  1
  S  S114  1  0.13517753  0.36052526  0.25146898  1
  S  S115  1  0.13910737  0.36325947  0.58174748  1
  S  S116  1  0.14144388  0.36171711  0.91787667  1
  S  S117  1  0.13953014  0.86201463  0.24730043  1
  S  S118  1  0.13946338  0.85881366  0.58701824  1
  S  S119  1  0.13963308  0.86178212  0.91547843  1
  S  S120  1  0.64251330  0.35330335  0.24428724  1
  S  S121  1  0.64157153  0.35712434  0.58505205  1
  S  S122  1  0.64027478  0.35752645  0.91544405  1
  S  S123  1  0.64465033  0.85239296  0.25039237  1
  S  S124  1  0.64231891  0.85653689  0.58102663  1
  S  S125  1  0.64542189  0.85620489  0.91709484  1
  S  S126  1  0.06719513  0.17509884  0.04088068  1
  S  S127  1  0.06984429  0.16993088  0.37460271  1
  S  S128  1  0.07419916  0.17516294  0.71009855  1
  S  S129  1  0.06833152  0.67079648  0.04081987  1
  S  S130  1  0.07349194  0.67418488  0.37826721  1
  S  S131  1  0.06759410  0.66791729  0.71105677  1
  S  S132  1  0.56449854  0.16720739  0.03709503  1
  S  S133  1  0.55553267  0.16440459  0.38385437  1
  S  S134  1  0.56687603  0.16882084  0.71228288  1
  S  S135  1  0.56411824  0.67029956  0.04212590  1
  S  S136  1  0.55852708  0.66993090  0.37386310  1
  S  S137  1  0.56467151  0.65486147  0.70742109  1
  S  S138  1  0.33340632  0.43455736  0.12406891  1
  S  S139  1  0.32977238  0.43564694  0.46067760  1
  S  S140  1  0.33269170  0.43333937  0.79270471  1
  S  S141  1  0.32797893  0.93593876  0.12383403  1
  S  S142  1  0.33038838  0.93221647  0.45374962  1
  S  S143  1  0.32581359  0.94241809  0.79175532  1
  S  S144  1  0.82475284  0.43384798  0.12125619  1
  S  S145  1  0.84177196  0.43512293  0.45736210  1
  S  S146  1  0.83275217  0.43750355  0.79414688  1
  S  S147  1  0.83018883  0.93211710  0.12421158  1
  S  S148  1  0.83255039  0.92546330  0.45581102  1
  S  S149  1  0.82688388  0.92585799  0.78881238  1
  S  S150  1  0.44005195  0.33957449  0.29627120  1
  S  S151  1  0.43275423  0.33568734  0.62685044  1
  S  S152  1  0.43613522  0.33293527  0.95861377  1
  S  S153  1  0.43134346  0.82828369  0.29306156  1
  S  S154  1  0.43235194  0.83124687  0.61945342  1
  S  S155  1  0.43303959  0.83435806  0.96271621  1
  S  S156  1  0.92762963  0.32931646  0.28839448  1
  S  S157  1  0.94038186  0.33841371  0.62688134  1
  S  S158  1  0.92966231  0.32733647  0.95887814  1
  S  S159  1  0.93640009  0.83130468  0.29101233  1
  S  S160  1  0.92372677  0.82223738  0.61983262  1
  S  S161  1  0.93438191  0.82892778  0.95594818  1
  S  S162  1  0.17074778  0.07217228  0.21068645  1
  S  S163  1  0.16845854  0.07259027  0.54060061  1
  S  S164  1  0.17025018  0.07167950  0.87470764  1
  S  S165  1  0.16827388  0.57318877  0.20870495  1
  S  S166  1  0.16989418  0.57043468  0.54300276  1
  S  S167  1  0.17034157  0.56717631  0.87842433  1
  S  S168  1  0.67426163  0.06067248  0.20463181  1
  S  S169  1  0.66441346  0.06047960  0.54418573  1
  S  S170  1  0.66643948  0.06030169  0.87348904  1
  S  S171  1  0.66922891  0.56698350  0.20576851  1
  S  S172  1  0.67044321  0.54979815  0.53858285  1
  S  S173  1  0.66680434  0.56262664  0.87769194  1
  O  O174  1  0.36496260  0.22410464  0.07446745  1
  O  O175  1  0.36292146  0.22270352  0.41085765  1
  O  O176  1  0.36751157  0.22585938  0.74375701  1
  O  O177  1  0.36915048  0.72238095  0.07698431  1
  O  O178  1  0.36617457  0.72968548  0.41813600  1
  O  O179  1  0.35942379  0.72000964  0.74754185  1
  O  O180  1  0.86797185  0.21891000  0.07332494  1
  O  O181  1  0.87696389  0.21312709  0.40375601  1
  O  O182  1  0.86558318  0.21219919  0.74888429  1
  O  O183  1  0.86801493  0.72314839  0.07469169  1
  O  O184  1  0.87948936  0.71476081  0.40039255  1
  O  O185  1  0.87136910  0.71400198  0.73863757  1
  O  O186  1  0.27044017  0.13854758  0.08353967  1
  O  O187  1  0.27943714  0.13096805  0.42741765  1
  O  O188  1  0.27673656  0.13671242  0.75322550  1
  O  O189  1  0.28040078  0.63329522  0.09009137  1
  O  O190  1  0.27386457  0.63781305  0.42160940  1
  O  O191  1  0.27912192  0.62641469  0.76621668  1
  O  O192  1  0.77780003  0.13113412  0.08733182  1
  O  O193  1  0.78585404  0.12643135  0.42280312  1
  O  O194  1  0.78333385  0.11834208  0.76623632  1
  O  O195  1  0.77767870  0.63445134  0.08705103  1
  O  O196  1  0.78878139  0.63733292  0.42587872  1
  O  O197  1  0.78556532  0.62782885  0.75867354  1
  O  O198  1  0.12185464  0.28261315  0.26290238  1
  O  O199  1  0.13176093  0.28528056  0.59185501  1
  O  O200  1  0.13106966  0.28064336  0.92090561  1
  O  O201  1  0.13215047  0.78173177  0.25257925  1
  O  O202  1  0.12357561  0.78384097  0.60217680  1
  O  O203  1  0.13090163  0.78297835  0.92455107  1
  O  O204  1  0.63529270  0.27113108  0.23768971  1
  O  O205  1  0.62790725  0.28055448  0.59534787  1
  O  O206  1  0.62954082  0.27877083  0.92322707  1
  O  O207  1  0.63616849  0.76979343  0.25185077  1
  O  O208  1  0.64095496  0.77868157  0.58909462  1
  O  O209  1  0.63268726  0.77936868  0.92945136  1
  O  O210  1  0.21170830  0.36475712  0.24112817  1
  O  O211  1  0.21851008  0.37253001  0.57408288  1
  O  O212  1  0.22237222  0.36979455  0.91157347  1
  O  O213  1  0.21613814  0.87181165  0.23478372  1
  O  O214  1  0.21754926  0.86057431  0.57992346  1
  O  O215  1  0.21929638  0.87004521  0.90818710  1
  O  O216  1  0.71737387  0.37074133  0.22842686  1
  O  O217  1  0.72021519  0.36434250  0.57765143  1
  O  O218  1  0.71995690  0.36705307  0.90995243  1
  O  O219  1  0.72237302  0.86322407  0.24041200  1
  O  O220  1  0.71660689  0.87179400  0.56525719  1
  O  O221  1  0.72943435  0.86455011  0.92215553  1
  O  O222  1  0.40728774  0.13627638  0.15116777  1
  O  O223  1  0.41755649  0.13639723  0.48717333  1
  O  O224  1  0.41355372  0.13952335  0.82092077  1
  O  O225  1  0.41881293  0.63031314  0.14795843  1
  O  O226  1  0.41128388  0.63134735  0.48328566  1
  O  O227  1  0.41785295  0.63340180  0.82102830  1
  O  O228  1  0.91599500  0.13284880  0.15054847  1
  O  O229  1  0.92411804  0.13261474  0.48736638  1
  O  O230  1  0.92207268  0.12130658  0.81743191  1
  O  O231  1  0.91502745  0.63778526  0.15182955  1
  O  O232  1  0.92697211  0.62965467  0.48106726  1
  O  O233  1  0.92408552  0.62833483  0.81629668  1
  O  O234  1  0.36421682  0.08549435  0.01586955  1
  O  O235  1  0.36527298  0.08474823  0.35017243  1
  O  O236  1  0.37059353  0.08722744  0.68501986  1
  O  O237  1  0.36592030  0.58444856  0.01229308  1
  O  O238  1  0.36348934  0.59244368  0.34784408  1
  O  O239  1  0.36396317  0.58196835  0.68594260  1
  O  O240  1  0.86537852  0.08080820  0.01295590  1
  O  O241  1  0.87788833  0.07515563  0.35243218  1
  O  O242  1  0.86427026  0.07589669  0.68086239  1
  O  O243  1  0.86720588  0.58510347  0.01436302  1
  O  O244  1  0.87025669  0.57620892  0.34661597  1
  O  O245  1  0.87231223  0.57564885  0.68115832  1
  O  O246  1  0.07388586  0.36814234  0.18453264  1
  O  O247  1  0.08007025  0.36998038  0.51335948  1
  O  O248  1  0.08400102  0.37694401  0.85484536  1
  O  O249  1  0.07721108  0.87297081  0.18213341  1
  O  O250  1  0.08106176  0.86451302  0.51718366  1
  O  O251  1  0.08057963  0.86888203  0.84707004  1
  O  O252  1  0.57870487  0.37212760  0.18182460  1
  O  O253  1  0.58253437  0.36865333  0.51835243  1
  O  O254  1  0.58215378  0.36639267  0.84657665  1
  O  O255  1  0.58404158  0.86213896  0.18303741  1
  O  O256  1  0.57801387  0.86218362  0.51285273  1
  O  O257  1  0.59309356  0.86086686  0.84629315  1
  O  O258  1  0.13083490  0.42153183  0.32060930  1
  O  O259  1  0.13121403  0.42399633  0.64937945  1
  O  O260  1  0.13648797  0.41744138  0.99014932  1
  O  O261  1  0.13406397  0.91935924  0.31745801  1
  O  O262  1  0.13192492  0.92282862  0.65247633  1
  O  O263  1  0.13240864  0.92164422  0.98347957  1
  O  O264  1  0.64039818  0.40608074  0.31636061  1
  O  O265  1  0.63329304  0.41790714  0.65337106  1
  O  O266  1  0.62892013  0.41719106  0.98218898  1
  O  O267  1  0.63714681  0.90664635  0.31930898  1
  O  O268  1  0.63473799  0.91545693  0.64923131  1
  O  O269  1  0.63002115  0.91758497  0.98129333  1
  O  O270  1  0.03059011  0.19970280  0.10193159  1
  O  O271  1  0.03662654  0.20034704  0.43720320  1
  O  O272  1  0.03978096  0.19585705  0.77101036  1
  O  O273  1  0.03159345  0.70113728  0.10178649  1
  O  O274  1  0.03840157  0.70445514  0.44032274  1
  O  O275  1  0.03232826  0.70081689  0.77238645  1
  O  O276  1  0.52354673  0.19319893  0.09334957  1
  O  O277  1  0.52280932  0.20989413  0.44746632  1
  O  O278  1  0.52759468  0.20054555  0.77254871  1
  O  O279  1  0.52676977  0.69920215  0.10242686  1
  O  O280  1  0.51997248  0.70684924  0.43110001  1
  O  O281  1  0.53597700  0.67813259  0.77352437  1
  O  O282  1  0.30280731  0.47032557  0.06017167  1
  O  O283  1  0.30036094  0.47206037  0.40177846  1
  O  O284  1  0.30051054  0.46684068  0.73007759  1
  O  O285  1  0.29850957  0.97487028  0.06411440  1
  O  O286  1  0.30051254  0.96358754  0.38706263  1
  O  O287  1  0.29086465  0.98140210  0.73491590  1
  O  O288  1  0.79702563  0.47455830  0.06208271  1
  O  O289  1  0.81161359  0.46665697  0.39503068  1
  O  O290  1  0.79885639  0.47031346  0.73073778  1
  O  O291  1  0.80213449  0.97111103  0.06506186  1
  O  O292  1  0.81260264  0.95874116  0.39359037  1
  O  O293  1  0.79820089  0.95944757  0.72659390  1
  O  O294  1  0.46703925  0.30599889  0.23032520  1
  O  O295  1  0.46504149  0.30683271  0.56396797  1
  O  O296  1  0.47083463  0.30542419  0.89649887  1
  O  O297  1  0.47001527  0.79922613  0.23286482  1
  O  O298  1  0.47205022  0.79978350  0.55990311  1
  O  O299  1  0.47027418  0.80698954  0.90349001  1
  O  O300  1  0.96270153  0.29761998  0.22608773  1
  O  O301  1  0.96998237  0.30428343  0.55957410  1
  O  O302  1  0.96979419  0.30130441  0.90197212  1
  O  O303  1  0.97339031  0.80009370  0.22991601  1
  O  O304  1  0.96244103  0.79231443  0.56002870  1
  O  O305  1  0.97113333  0.79756296  0.89460612  1
  O  O306  1  0.20134597  0.03358004  0.27014269  1
  O  O307  1  0.19225574  0.03615107  0.60022521  1
  O  O308  1  0.19914799  0.03116609  0.93334878  1
  O  O309  1  0.18977046  0.53863814  0.26923995  1
  O  O310  1  0.19977249  0.53430678  0.60493048  1
  O  O311  1  0.19969060  0.53052541  0.93937186  1
  O  O312  1  0.70570857  0.02199148  0.26306664  1
  O  O313  1  0.70254587  0.03237188  0.61156127  1
  O  O314  1  0.69883009  0.02350729  0.93446374  1
  O  O315  1  0.69737407  0.53273298  0.26632490  1
  O  O316  1  0.70988166  0.52483616  0.60884071  1
  O  O317  1  0.69929838  0.52718935  0.94011084  1
  O  O318  1  0.08707769  0.09303287  0.03137513  1
  O  O319  1  0.08757992  0.08743973  0.36660677  1
  O  O320  1  0.09817786  0.09480341  0.69828971  1
  O  O321  1  0.08847010  0.59017903  0.03499586  1
  O  O322  1  0.09251064  0.59370863  0.37579462  1
  O  O323  1  0.08348279  0.58542002  0.70848158  1
  O  O324  1  0.58146052  0.08443672  0.03056249  1
  O  O325  1  0.56560468  0.08730419  0.39589014  1
  O  O326  1  0.58096809  0.08743166  0.70948097  1
  O  O327  1  0.57871018  0.58672278  0.03473846  1
  O  O328  1  0.57112281  0.59035713  0.37542606  1
  O  O329  1  0.58991090  0.57280461  0.70239900  1
  O  O330  1  0.41192545  0.40960445  0.12155241  1
  O  O331  1  0.41140421  0.41544209  0.46548134  1
  O  O332  1  0.41539885  0.41788820  0.79786171  1
  O  O333  1  0.40828263  0.91641199  0.12767770  1
  O  O334  1  0.40832887  0.90289579  0.45231867  1
  O  O335  1  0.40547259  0.92814934  0.79116926  1
  O  O336  1  0.90546662  0.41636347  0.12715466  1
  O  O337  1  0.92753586  0.42260406  0.46501469  1
  O  O338  1  0.91526227  0.42834948  0.80142826  1
  O  O339  1  0.91153813  0.91233976  0.12871769  1
  O  O340  1  0.91726065  0.91067326  0.47102759  1
  O  O341  1  0.91039914  0.90977174  0.79751087  1
  O  O342  1  0.43614185  0.42415044  0.31043801  1
  O  O343  1  0.41781908  0.41978690  0.63669303  1
  O  O344  1  0.42108920  0.41728507  0.96659617  1
  O  O345  1  0.41506265  0.91022721  0.29854533  1
  O  O346  1  0.39552313  0.90024760  0.60775729  1
  O  O347  1  0.41589279  0.91712134  0.96962093  1
  O  O348  1  0.90915537  0.41017821  0.29221341  1
  O  O349  1  0.91665537  0.41874021  0.62418870  1
  O  O350  1  0.90871282  0.40818304  0.96127336  1
  O  O351  1  0.91939509  0.91284082  0.29433416  1
  O  O352  1  0.90338477  0.90123560  0.62323389  1
  O  O353  1  0.91462381  0.90861455  0.95722288  1
  O  O354  1  0.08923867  0.08862267  0.20750468  1
  O  O355  1  0.08675722  0.09337618  0.52894766  1
  O  O356  1  0.09116220  0.09314265  0.87466496  1
  O  O357  1  0.08710005  0.59450622  0.19491213  1
  O  O358  1  0.08580843  0.58330253  0.53586519  1
  O  O359  1  0.08780946  0.58364593  0.87094705  1
  O  O360  1  0.59542636  0.07896536  0.20557143  1
  O  O361  1  0.58558072  0.08321217  0.55005107  1
  O  O362  1  0.58370511  0.07430794  0.86847037  1
  O  O363  1  0.58779104  0.58802572  0.20078545  1
  O  O364  1  0.58864733  0.56019817  0.53531919  1
  O  O365  1  0.58463629  0.57828940  0.87516219  1
  O  O366  1  0.13711795  0.23044541  0.05937707  1
  O  O367  1  0.14081091  0.22164777  0.38866076  1
  O  O368  1  0.14430607  0.23198174  0.72910571  1
  O  O369  1  0.13857456  0.72509330  0.05699487  1
  O  O370  1  0.14263985  0.72820656  0.39199103  1
  O  O371  1  0.13925706  0.71760835  0.72542386  1
  O  O372  1  0.63733562  0.21863339  0.05611489  1
  O  O373  1  0.62859619  0.20797688  0.39414211  1
  O  O374  1  0.63943656  0.21969881  0.73229765  1
  O  O375  1  0.63721030  0.72013081  0.06041201  1
  O  O376  1  0.63278619  0.71837884  0.38935728  1
  O  O377  1  0.63194941  0.70911181  0.71907941  1
  O  O378  1  0.27742616  0.36521350  0.10699214  1
  O  O379  1  0.27752686  0.36435047  0.44646729  1
  O  O380  1  0.28257906  0.36211902  0.77950397  1
  O  O381  1  0.27392755  0.86512744  0.10562644  1
  O  O382  1  0.27294276  0.86514426  0.43913289  1
  O  O383  1  0.27518590  0.86925755  0.77564553  1
  O  O384  1  0.77126970  0.36182032  0.09874054  1
  O  O385  1  0.79781201  0.36258368  0.44821215  1
  O  O386  1  0.78439229  0.36550011  0.78106835  1
  O  O387  1  0.77683348  0.86073678  0.10550522  1
  O  O388  1  0.78222025  0.85182368  0.43630731  1
  O  O389  1  0.77652111  0.85540524  0.77608557  1
  O  O390  1  0.36316607  0.29527138  0.28206938  1
  O  O391  1  0.36014296  0.28663635  0.61307348  1
  O  O392  1  0.36299739  0.28347913  0.94177240  1
  O  O393  1  0.35921119  0.77607050  0.27351234  1
  O  O394  1  0.37040135  0.76830863  0.60741293  1
  O  O395  1  0.35971399  0.78297922  0.94446333  1
  O  O396  1  0.85840290  0.27662817  0.27443603  1
  O  O397  1  0.87449606  0.28749750  0.62049387  1
  O  O398  1  0.85798789  0.27384631  0.94018338  1
  O  O399  1  0.86524667  0.77903216  0.27425297  1
  O  O400  1  0.85490239  0.76680863  0.60392913  1
  O  O401  1  0.86634367  0.77470456  0.94253013  1
  O  O402  1  0.22221388  0.14408491  0.22734170  1
  O  O403  1  0.22336953  0.14290025  0.55814453  1
  O  O404  1  0.22567709  0.14222153  0.89410752  1
  O  O405  1  0.22392433  0.64302787  0.22501885  1
  O  O406  1  0.21865766  0.64375188  0.56074107  1
  O  O407  1  0.22146548  0.63938853  0.89593233  1
  O  O408  1  0.72812529  0.12858724  0.21720722  1
  O  O409  1  0.71383720  0.12714537  0.54932395  1
  O  O410  1  0.71547634  0.13426177  0.89210225  1
  O  O411  1  0.72269406  0.63614211  0.21764966  1
  O  O412  1  0.71603859  0.62606137  0.55389619  1
  O  O413  1  0.71709964  0.63405870  0.89291929  1
  O  O414  1  0.49466531  0.33241066  0.03017440  1
  O  O415  1  0.49797295  0.32748907  0.36401260  1
  O  O416  1  0.49345022  0.33505424  0.69806451  1
  O  O417  1  0.48994160  0.83428894  0.03605342  1
  O  O418  1  0.48900900  0.82875544  0.36596568  1
  O  O419  1  0.49235570  0.84952834  0.69333446  1
  O  O420  1  0.98594208  0.33260497  0.03405054  1
  O  O421  1  0.98966172  0.33227049  0.36012726  1
  O  O422  1  1.00681901  0.35442338  0.69602135  1
  O  O423  1  0.99537911  0.83411333  0.02894988  1
  O  O424  1  0.99505138  0.83480259  0.36434205  1
  O  O425  1  0.98447518  0.82501638  0.69269417  1
  O  O426  1  0.16842229  0.01442261  0.13712250  1
  O  O427  1  0.16922354  0.01232961  0.46885771  1
  O  O428  1  0.16629129  0.01548740  0.80051829  1
  O  O429  1  0.17125760  0.51243799  0.13805416  1
  O  O430  1  0.17026699  0.51166633  0.47123670  1
  O  O431  1  0.17053888  0.50814509  0.80642449  1
  O  O432  1  0.66651778  0.00137144  0.12854226  1
  O  O433  1  0.64965057  -0.00696547  0.47578321  1
  O  O434  1  0.66697879  0.00307719  0.80146708  1
  O  O435  1  0.66080649  0.50660779  0.13054987  1
  O  O436  1  0.67637581  0.48899222  0.47305290  1
  O  O437  1  0.66428762  0.50250044  0.80599051  1
  O  O438  1  0.00828196  0.16739905  0.30260389  1
  O  O439  1  0.01440753  0.17770610  0.64003156  1
  O  O440  1  0.00756082  0.17273106  0.96820420  1
  O  O441  1  0.01259275  0.67046314  0.30571451  1
  O  O442  1  0.00790547  0.66200430  0.63753700  1
  O  O443  1  0.00806391  0.66884256  0.96872724  1
  O  O444  1  0.49639416  0.15442329  0.31109732  1
  O  O445  1  0.50917653  0.17133387  0.64099708  1
  O  O446  1  0.50864437  0.16665334  0.96266100  1
  O  O447  1  0.50371417  0.66625056  0.29765888  1
  O  O448  1  0.50041389  0.64451379  0.63815347  1
  O  O449  1  0.50665245  0.67119976  0.96963516  1
  O  O450  1  0.34035759  0.49441454  0.19443244  1
  O  O451  1  0.33546073  0.49405499  0.53578927  1
  O  O452  1  0.33549906  0.49372855  0.86516288  1
  O  O453  1  0.32995421  0.99397397  0.19692762  1
  O  O454  1  0.33852883  0.99610839  0.52142673  1
  O  O455  1  0.33042552  0.99696615  0.86849251  1
  O  O456  1  0.82278599  0.49040804  0.19334104  1
  O  O457  1  0.84551158  0.49695215  0.52992390  1
  O  O458  1  0.83005697  0.49759736  0.86611689  1
  O  O459  1  0.83452728  0.98980088  0.19804757  1
  O  O460  1  0.82519272  0.98500137  0.52370404  1
  O  O461  1  0.83061944  0.98819806  0.86143393  1
