# generated using pymatgen
data_Na31Fe20(SO4)36
_symmetry_space_group_name_H-M   'P 1'
_cell_length_a   18.07722339
_cell_length_b   18.07205134
_cell_length_c   19.71317139
_cell_angle_alpha   107.56566667
_cell_angle_beta   107.56623465
_cell_angle_gamma   90.75513689
_symmetry_Int_Tables_number   1
_chemical_formula_structural   Na31Fe20(SO4)36
_chemical_formula_sum   'Na62 Fe40 S72 O288'
_cell_volume   5814.90168577
_cell_formula_units_Z   2
loop_
 _symmetry_equiv_pos_site_id
 _symmetry_equiv_pos_as_xyz
  1  'x, y, z'
loop_
 _atom_site_type_symbol
 _atom_site_label
 _atom_site_symmetry_multiplicity
 _atom_site_fract_x
 _atom_site_fract_y
 _atom_site_fract_z
 _atom_site_occupancy
  Na  Na0  1  0.12243948  0.36339073  0.08574470  1
  Na  Na1  1  0.13629186  0.36907124  0.41964412  1
  Na  Na2  1  0.13068588  0.36708987  0.74930293  1
  Na  Na3  1  0.14798722  0.86957726  0.09384370  1
  Na  Na4  1  0.12677210  0.86219416  0.41307640  1
  Na  Na5  1  0.13217643  0.86511937  0.74916901  1
  Na  Na6  1  0.63302324  0.35887471  0.07292936  1
  Na  Na7  1  0.64523477  0.37109830  0.41743497  1
  Na  Na8  1  0.63237802  0.35934593  0.74186101  1
  Na  Na9  1  0.64116090  0.87076274  0.09491999  1
  Na  Na10  1  0.63129822  0.86758632  0.41824749  1
  Na  Na11  1  0.62707124  0.86456509  0.74161082  1
  Na  Na12  1  0.34571767  0.13311674  0.22771668  1
  Na  Na13  1  0.37021002  0.12276897  0.57499479  1
  Na  Na14  1  0.36824869  0.14654764  0.92212366  1
  Na  Na15  1  0.36446431  0.63520690  0.24844012  1
  Na  Na16  1  0.36251075  0.63668076  0.57847134  1
  Na  Na17  1  0.36808051  0.63295987  0.91714294  1
  Na  Na18  1  0.85723908  0.13889944  0.25455500  1
  Na  Na19  1  0.86132523  0.13639154  0.58526479  1
  Na  Na20  1  0.86474318  0.14052684  0.92907895  1
  Na  Na21  1  0.87577687  0.63348914  0.25807980  1
  Na  Na22  1  0.86196489  0.62872022  0.57138131  1
  Na  Na23  1  0.86641542  0.63382649  0.91668375  1
  Na  Na24  1  0.49431652  0.51210551  0.08629461  1
  Na  Na25  1  0.50244421  0.54102302  0.44863481  1
  Na  Na26  1  0.48427710  0.00958673  0.08602661  1
  Na  Na27  1  0.99295151  0.51851652  0.39614167  1
  Na  Na28  1  0.45976946  0.51415168  0.63745713  1
  Na  Na29  1  0.94146728  -0.00772593  0.39390459  1
  Na  Na30  1  1.00171873  0.02025971  0.08221639  1
  Na  Na31  1  0.49186698  0.03996542  0.74881139  1
  Na  Na32  1  0.98282466  0.01614330  0.75092765  1
  Na  Na33  1  -0.00770827  1.00504651  0.24852734  1
  Na  Na34  1  0.04543413  0.98763823  0.92394563  1
  Na  Na35  1  0.00901795  0.48525703  0.59814878  1
  Na  Na36  1  0.49528794  1.01612168  0.91115053  1
  Na  Na37  1  0.00438236  0.48946775  0.92282663  1
  Na  Na38  1  0.50453683  0.98946259  0.27636141  1
  Na  Na39  1  -0.00052327  0.94767669  0.56638455  1
  Na  Na40  1  0.51676672  0.48402368  0.89783847  1
  Na  Na41  1  0.54316660  0.49338131  0.26830848  1
  Na  Na42  1  0.25366018  0.75140546  0.32240448  1
  Na  Na43  1  0.74954021  0.25148510  -0.00145700  1
  Na  Na44  1  0.76147572  0.75613926  0.33577950  1
  Na  Na45  1  0.26128388  0.26084114  0.31715924  1
  Na  Na46  1  0.25086841  0.75150052  0.66670342  1
  Na  Na47  1  0.75081244  0.75278248  0.00398424  1
  Na  Na48  1  0.23819978  0.23382910  0.02371549  1
  Na  Na49  1  0.26263864  0.26157359  0.65791197  1
  Na  Na50  1  0.24361956  0.74182683  0.01247000  1
  Na  Na51  1  0.73514219  0.73817292  0.66714240  1
  Na  Na52  1  0.73395127  0.72957907  0.49983573  1
  Na  Na53  1  0.24882926  0.74602896  0.83777004  1
  Na  Na54  1  0.75411707  0.25855688  0.82189568  1
  Na  Na55  1  0.74701211  0.24431670  0.17474947  1
  Na  Na56  1  0.75155979  0.25204482  0.49859550  1
  Na  Na57  1  0.25036976  0.25241469  0.83218471  1
  Na  Na58  1  0.26508058  0.26788057  0.49336655  1
  Na  Na59  1  0.74584443  0.74658057  0.83258167  1
  Na  Na60  1  0.75738753  0.75910646  0.17118161  1
  Na  Na61  1  0.25458897  0.75540050  0.49467690  1
  Fe  Fe62  1  0.46877489  0.29836624  0.78538659  1
  Fe  Fe63  1  0.46417377  0.80833846  0.12226317  1
  Fe  Fe64  1  0.96616432  0.80473752  0.78662062  1
  Fe  Fe65  1  0.95995425  0.30632328  0.78495303  1
  Fe  Fe66  1  0.46671780  0.80834048  0.45950997  1
  Fe  Fe67  1  0.96676223  0.80837597  0.12012567  1
  Fe  Fe68  1  0.46475770  0.80907286  0.78819183  1
  Fe  Fe69  1  0.46858902  0.30881692  0.45366938  1
  Fe  Fe70  1  0.96521918  0.30771252  0.45172768  1
  Fe  Fe71  1  0.47003476  0.30716738  0.11890083  1
  Fe  Fe72  1  0.19670780  0.53480797  0.05110360  1
  Fe  Fe73  1  0.68835720  0.03492588  0.71013277  1
  Fe  Fe74  1  0.69424289  0.53712740  0.04811724  1
  Fe  Fe75  1  0.69192897  0.03167921  0.04850306  1
  Fe  Fe76  1  0.18626412  0.03662336  0.71095157  1
  Fe  Fe77  1  0.69742251  0.03467343  0.37930387  1
  Fe  Fe78  1  0.68796397  0.53408300  0.71021911  1
  Fe  Fe79  1  0.19032424  0.03686419  0.38161026  1
  Fe  Fe80  1  0.20071733  0.52935911  0.70923958  1
  Fe  Fe81  1  0.19448829  0.53201910  0.37826939  1
  Fe  Fe82  1  0.53857580  0.18677798  0.54313552  1
  Fe  Fe83  1  0.53417384  0.69138703  0.87905836  1
  Fe  Fe84  1  0.53450094  0.69568509  0.22100565  1
  Fe  Fe85  1  0.03054703  0.19535383  0.88880978  1
  Fe  Fe86  1  0.03169523  0.19164404  0.54889520  1
  Fe  Fe87  1  0.03102041  0.69903103  0.54018007  1
  Fe  Fe88  1  0.03739992  0.68799531  0.21131562  1
  Fe  Fe89  1  0.53864961  0.19414969  0.21569387  1
  Fe  Fe90  1  0.03649400  0.68547531  0.87618332  1
  Fe  Fe91  1  0.03105244  0.20421319  0.21462952  1
  Fe  Fe92  1  0.30506483  0.96793007  0.28674995  1
  Fe  Fe93  1  0.31048747  0.46251682  0.28605285  1
  Fe  Fe94  1  0.30413982  0.96690843  0.62037896  1
  Fe  Fe95  1  0.30791375  0.46247600  0.95276765  1
  Fe  Fe96  1  0.81021365  0.46447377  0.62092327  1
  Fe  Fe97  1  0.30039776  0.97130111  0.95652220  1
  Fe  Fe98  1  0.81253620  0.46491619  0.95793982  1
  Fe  Fe99  1  0.80467043  0.96345895  0.61693192  1
  Fe  Fe100  1  0.80818132  0.96292452  0.95240316  1
  Fe  Fe101  1  0.80169064  0.46669559  0.28792678  1
  S  S102  1  0.36426214  0.14219294  0.08163242  1
  S  S103  1  0.35869261  0.14085686  0.41432073  1
  S  S104  1  0.35296080  0.13982673  0.74985996  1
  S  S105  1  0.36284385  0.63874404  0.08121017  1
  S  S106  1  0.35650761  0.64070262  0.41648935  1
  S  S107  1  0.36038207  0.64399309  0.75202530  1
  S  S108  1  0.85839444  0.13723097  0.08554590  1
  S  S109  1  0.86098854  0.14341051  0.41806948  1
  S  S110  1  0.85770327  0.13759219  0.75164298  1
  S  S111  1  0.85992321  0.64188422  0.08232084  1
  S  S112  1  0.86048128  0.63968540  0.41419166  1
  S  S113  1  0.86033726  0.64086599  0.75047001  1
  S  S114  1  0.14576119  0.35971750  0.25466748  1
  S  S115  1  0.14020909  0.35490700  0.58543232  1
  S  S116  1  0.13901121  0.35913656  0.91837235  1
  S  S117  1  0.14075005  0.86097399  0.24874377  1
  S  S118  1  0.14109478  0.86020722  0.58463397  1
  S  S119  1  0.14249244  0.85341253  0.91739713  1
  S  S120  1  0.64192671  0.35797595  0.24762154  1
  S  S121  1  0.64185155  0.35724360  0.58392512  1
  S  S122  1  0.64073907  0.36292406  0.91423476  1
  S  S123  1  0.63811662  0.85970390  0.25260957  1
  S  S124  1  0.64259487  0.85931112  0.58258418  1
  S  S125  1  0.63997979  0.85835343  0.91720620  1
  S  S126  1  0.06216497  0.16514575  0.04309183  1
  S  S127  1  0.06771572  0.17276689  0.37857398  1
  S  S128  1  0.06137892  0.16817747  0.71144961  1
  S  S129  1  0.06973105  0.66918992  0.03978630  1
  S  S130  1  0.07362039  0.66908402  0.37356358  1
  S  S131  1  0.07041238  0.66983324  0.70767228  1
  S  S132  1  0.56647556  0.16545589  0.04039625  1
  S  S133  1  0.56877676  0.17223890  0.37589525  1
  S  S134  1  0.56494918  0.16753801  0.70638464  1
  S  S135  1  0.56851423  0.67225534  0.04358725  1
  S  S136  1  0.55834369  0.67028001  0.37774646  1
  S  S137  1  0.56280925  0.67155115  0.71125057  1
  S  S138  1  0.33480428  0.43235713  0.12444625  1
  S  S139  1  0.33753644  0.43737781  0.45905017  1
  S  S140  1  0.32980979  0.42942771  0.79134706  1
  S  S141  1  0.33786015  0.93456708  0.12645420  1
  S  S142  1  0.32372881  0.92829715  0.45442946  1
  S  S143  1  0.32612667  0.93498160  0.79309304  1
  S  S144  1  0.82464259  0.43404021  0.12128953  1
  S  S145  1  0.83620773  0.43025223  0.46335836  1
  S  S146  1  0.82987181  0.43385039  0.79287986  1
  S  S147  1  0.83305760  0.93493110  0.12310914  1
  S  S148  1  0.82690790  0.93392693  0.45651825  1
  S  S149  1  0.83506765  0.93142874  0.79374277  1
  S  S150  1  0.43765949  0.33037929  0.29132227  1
  S  S151  1  0.43282876  0.31763808  0.61881997  1
  S  S152  1  0.43456747  0.33499505  0.95735988  1
  S  S153  1  0.42820701  0.82910355  0.29263353  1
  S  S154  1  0.42880320  0.83780613  0.62993806  1
  S  S155  1  0.43300849  0.83439556  0.95943064  1
  S  S156  1  0.93237839  0.33299756  0.29311108  1
  S  S157  1  0.93321973  0.33000975  0.62625868  1
  S  S158  1  0.93175408  0.32966151  0.95531328  1
  S  S159  1  0.94046611  0.82948496  0.28406157  1
  S  S160  1  0.93207582  0.82919991  0.62665594  1
  S  S161  1  0.93502322  0.82816487  0.95656193  1
  S  S162  1  0.16181899  0.06588106  0.21130250  1
  S  S163  1  0.16564781  0.06750322  0.54238044  1
  S  S164  1  0.16756580  0.06769966  0.87469008  1
  S  S165  1  0.17332761  0.56505275  0.20851552  1
  S  S166  1  0.16613176  0.57071284  0.54100326  1
  S  S167  1  0.17536709  0.56566787  0.87647315  1
  S  S168  1  0.66581867  0.06742834  0.20798761  1
  S  S169  1  0.67465069  0.06926423  0.54116336  1
  S  S170  1  0.66887826  0.05927690  0.87530981  1
  S  S171  1  0.66720571  0.56880504  0.20688046  1
  S  S172  1  0.67332768  0.56404557  0.55030087  1
  S  S173  1  0.67192421  0.57055274  0.87685362  1
  O  O174  1  0.37806078  0.21963406  0.07019382  1
  O  O175  1  0.36759063  0.22180068  0.40950998  1
  O  O176  1  0.36352261  0.22105642  0.74739647  1
  O  O177  1  0.37370709  0.71692893  0.07147161  1
  O  O178  1  0.36290226  0.72172284  0.41150136  1
  O  O179  1  0.36679736  0.72747048  0.75188839  1
  O  O180  1  0.85959227  0.20995310  0.06830503  1
  O  O181  1  0.87210463  0.22423703  0.41580789  1
  O  O182  1  0.86562995  0.21604435  0.74382415  1
  O  O183  1  0.87106224  0.71996135  0.07173370  1
  O  O184  1  0.87172287  0.71164612  0.39721181  1
  O  O185  1  0.86838330  0.72064042  0.74293587  1
  O  O186  1  0.28768661  0.13645411  0.09037501  1
  O  O187  1  0.28178576  0.13255417  0.42746574  1
  O  O188  1  0.27146309  0.13092680  0.75394854  1
  O  O189  1  0.28249916  0.63030334  0.08474353  1
  O  O190  1  0.27634872  0.63015410  0.42362429  1
  O  O191  1  0.28078841  0.63149486  0.75873244  1
  O  O192  1  0.78015278  0.12199078  0.09488754  1
  O  O193  1  0.78158766  0.13411593  0.42500337  1
  O  O194  1  0.77886790  0.12639306  0.75923396  1
  O  O195  1  0.77924354  0.63732008  0.08842929  1
  O  O196  1  0.78595831  0.63066016  0.42733083  1
  O  O197  1  0.78123077  0.63208239  0.75890922  1
  O  O198  1  0.13307820  0.28141877  0.26485756  1
  O  O199  1  0.12551266  0.27886135  0.59894174  1
  O  O200  1  0.12934149  0.28116606  0.92797456  1
  O  O201  1  0.13392091  0.78098874  0.25448015  1
  O  O202  1  0.13069556  0.78246693  0.59519429  1
  O  O203  1  0.13477958  0.76961266  0.91518707  1
  O  O204  1  0.63368029  0.27668728  0.24982677  1
  O  O205  1  0.63215109  0.27917366  0.59233618  1
  O  O206  1  0.63469386  0.28864150  0.92774321  1
  O  O207  1  0.62726847  0.78294199  0.26620474  1
  O  O208  1  0.63465714  0.78297950  0.59226358  1
  O  O209  1  0.63082714  0.77910888  0.92521663  1
  O  O210  1  0.22928904  0.36551313  0.25469071  1
  O  O211  1  0.21866527  0.35903424  0.57964271  1
  O  O212  1  0.21796164  0.36718340  0.90979807  1
  O  O213  1  0.21866188  0.87393948  0.24006971  1
  O  O214  1  0.22328513  0.86792604  0.58275387  1
  O  O215  1  0.22188418  0.86706327  0.91127727  1
  O  O216  1  0.71996783  0.36877404  0.23790066  1
  O  O217  1  0.72154843  0.36805083  0.57804789  1
  O  O218  1  0.71959532  0.37627817  0.90609279  1
  O  O219  1  0.71476944  0.86691215  0.24395030  1
  O  O220  1  0.72078238  0.86907940  0.57085703  1
  O  O221  1  0.71886730  0.86519976  0.90812475  1
  O  O222  1  0.42543681  0.13277328  0.14858332  1
  O  O223  1  0.42024380  0.12852892  0.47773025  1
  O  O224  1  0.40928666  0.12535116  0.81422363  1
  O  O225  1  0.42016761  0.63172401  0.15059382  1
  O  O226  1  0.41502030  0.63092861  0.48184635  1
  O  O227  1  0.41818655  0.63564475  0.82112094  1
  O  O228  1  0.91814350  0.13706094  0.15692609  1
  O  O229  1  0.91847147  0.13280489  0.48742495  1
  O  O230  1  0.91685937  0.12844990  0.81952971  1
  O  O231  1  0.91638018  0.63415826  0.15079117  1
  O  O232  1  0.92441935  0.63434432  0.48274751  1
  O  O233  1  0.91885898  0.63548107  0.82008119  1
  O  O234  1  0.37213823  0.08116612  0.01328481  1
  O  O235  1  0.36007539  0.08438184  0.34198160  1
  O  O236  1  0.35938965  0.08432773  0.67842322  1
  O  O237  1  0.37471042  0.57845556  0.01558787  1
  O  O238  1  0.36222587  0.58419739  0.34553152  1
  O  O239  1  0.36963286  0.59116281  0.68384950  1
  O  O240  1  0.87231183  0.07239518  0.02301643  1
  O  O241  1  0.87129559  0.08647419  0.35162685  1
  O  O242  1  0.86816456  0.07815437  0.68450348  1
  O  O243  1  0.86707453  0.58221499  0.01443508  1
  O  O244  1  0.86988354  0.57272551  0.34960921  1
  O  O245  1  0.87016734  0.58277060  0.68380331  1
  O  O246  1  0.09195332  0.36817385  0.18762252  1
  O  O247  1  0.08190544  0.36208857  0.51632265  1
  O  O248  1  0.07973521  0.36669304  0.85009919  1
  O  O249  1  0.08048616  0.86941265  0.18128636  1
  O  O250  1  0.08608860  0.86852740  0.51695787  1
  O  O251  1  0.08377368  0.86488958  0.84963955  1
  O  O252  1  0.58239453  0.36843238  0.17906353  1
  O  O253  1  0.58416363  0.36417923  0.51458377  1
  O  O254  1  0.58168157  0.36676986  0.84309326  1
  O  O255  1  0.57704507  0.86265418  0.18234648  1
  O  O256  1  0.58227611  0.86921044  0.51665259  1
  O  O257  1  0.58130450  0.86778002  0.84991641  1
  O  O258  1  0.13900641  0.41885319  0.32445632  1
  O  O259  1  0.13053371  0.41840091  0.65112528  1
  O  O260  1  0.13179799  0.42068140  0.98541154  1
  O  O261  1  0.13188263  0.91814802  0.31746183  1
  O  O262  1  0.13078100  0.92012558  0.65234585  1
  O  O263  1  0.13189394  0.90589167  0.98537697  1
  O  O264  1  0.63314728  0.41426425  0.31467018  1
  O  O265  1  0.63212342  0.41728994  0.65106509  1
  O  O266  1  0.62704466  0.42737359  0.97700640  1
  O  O267  1  0.62598399  0.92212394  0.31690476  1
  O  O268  1  0.63976212  0.92099258  0.65230582  1
  O  O269  1  0.63261437  0.91633534  0.98589843  1
  O  O270  1  0.02854946  0.19208112  0.10471266  1
  O  O271  1  0.03163867  0.20014202  0.44028067  1
  O  O272  1  0.02573996  0.19781856  0.77313836  1
  O  O273  1  0.03294408  0.69746043  0.10031876  1
  O  O274  1  0.04194820  0.69817902  0.43593574  1
  O  O275  1  0.03059480  0.69700129  0.76703331  1
  O  O276  1  0.53639553  0.20070009  0.10559915  1
  O  O277  1  0.52938576  0.20091035  0.43515095  1
  O  O278  1  0.52237091  0.19320314  0.76185308  1
  O  O279  1  0.53373022  0.69907387  0.10566664  1
  O  O280  1  0.52287622  0.70956826  0.43584906  1
  O  O281  1  0.53145313  0.70563565  0.77715450  1
  O  O282  1  0.30333100  0.47062335  0.06420331  1
  O  O283  1  0.30652366  0.47250009  0.39641126  1
  O  O284  1  0.30160070  0.46803219  0.73392574  1
  O  O285  1  0.31967051  0.97025173  0.06615263  1
  O  O286  1  0.29644159  0.96958413  0.39666460  1
  O  O287  1  0.29730331  0.97156860  0.73236266  1
  O  O288  1  0.79070006  0.47478802  0.06078009  1
  O  O289  1  0.81039705  0.45874499  0.39893146  1
  O  O290  1  0.80121849  0.47035908  0.73207971  1
  O  O291  1  0.79432102  0.95973016  0.05478303  1
  O  O292  1  0.79616584  0.97422414  0.39991073  1
  O  O293  1  0.80640892  0.96536507  0.73138897  1
  O  O294  1  0.47367223  0.30002511  0.22940313  1
  O  O295  1  0.47261201  0.28757923  0.55936905  1
  O  O296  1  0.46940566  0.31557433  0.89685522  1
  O  O297  1  0.46433323  0.79772092  0.23054759  1
  O  O298  1  0.46151852  0.81768144  0.56829843  1
  O  O299  1  0.47146966  0.80445483  0.90019744  1
  O  O300  1  0.97090327  0.30520714  0.23559633  1
  O  O301  1  0.97106667  0.30071616  0.56641691  1
  O  O302  1  0.96535932  0.29616656  0.89026269  1
  O  O303  1  0.97472660  0.78874482  0.22085864  1
  O  O304  1  0.96935553  0.80398935  0.56762787  1
  O  O305  1  0.97220119  0.79804695  0.89604603  1
  O  O306  1  0.19578701  0.03431434  0.27692252  1
  O  O307  1  0.19594703  0.02770694  0.60146794  1
  O  O308  1  0.19470369  0.02879048  0.93249227  1
  O  O309  1  0.20181747  0.52549847  0.26728978  1
  O  O310  1  0.18515437  0.53547631  0.60172167  1
  O  O311  1  0.20515295  0.52700402  0.93622104  1
  O  O312  1  0.69014964  0.03540837  0.27040883  1
  O  O313  1  0.70488994  0.03328019  0.60343487  1
  O  O314  1  0.70472818  0.02442081  0.93770686  1
  O  O315  1  0.69764628  0.53166651  0.26494945  1
  O  O316  1  0.71243540  0.52901793  0.61371321  1
  O  O317  1  0.70460260  0.53649608  0.93851032  1
  O  O318  1  0.07857012  0.08336843  0.03318612  1
  O  O319  1  0.08242630  0.08919981  0.36943652  1
  O  O320  1  0.07548659  0.08469799  0.70414029  1
  O  O321  1  0.09188766  0.58877709  0.03531368  1
  O  O322  1  0.09099520  0.58661729  0.36620454  1
  O  O323  1  0.09194292  0.58985523  0.70412449  1
  O  O324  1  0.58372514  0.08288403  0.03903795  1
  O  O325  1  0.59097311  0.09257154  0.37424135  1
  O  O326  1  0.58600331  0.08720200  0.70621424  1
  O  O327  1  0.58365080  0.58888608  0.03309622  1
  O  O328  1  0.56827940  0.58986884  0.37907688  1
  O  O329  1  0.58626191  0.59276017  0.71374288  1
  O  O330  1  0.41785492  0.41882432  0.12938033  1
  O  O331  1  0.41663667  0.41335221  0.45766029  1
  O  O332  1  0.40881560  0.40471305  0.79332103  1
  O  O333  1  0.42347070  0.92080676  0.14477821  1
  O  O334  1  0.40158415  0.90465469  0.45631285  1
  O  O335  1  0.40839552  0.91718493  0.80049784  1
  O  O336  1  0.90159882  0.41689986  0.12028417  1
  O  O337  1  0.92093855  0.41492985  0.47724751  1
  O  O338  1  0.91148847  0.41429305  0.79838544  1
  O  O339  1  0.91349240  0.91484352  0.12084107  1
  O  O340  1  0.90549397  0.91444800  0.45509537  1
  O  O341  1  0.91879567  0.91660858  0.80203435  1
  O  O342  1  0.42015504  0.41191959  0.29495436  1
  O  O343  1  0.40884851  0.39383003  0.61828911  1
  O  O344  1  0.41742161  0.41925933  0.97361739  1
  O  O345  1  0.40927803  0.90983045  0.29370099  1
  O  O346  1  0.41010297  0.92114351  0.64709639  1
  O  O347  1  0.41301765  0.91508664  0.96158659  1
  O  O348  1  0.90929182  0.41290621  0.29672501  1
  O  O349  1  0.91735423  0.41222410  0.63156779  1
  O  O350  1  0.91381785  0.41049852  0.95389706  1
  O  O351  1  0.92439189  0.90711763  0.27621279  1
  O  O352  1  0.91524153  0.91280731  0.63475644  1
  O  O353  1  0.91900148  0.91043387  0.96247422  1
  O  O354  1  0.08156436  0.08837322  0.21173788  1
  O  O355  1  0.08441744  0.08394449  0.53956498  1
  O  O356  1  0.08479949  0.08555016  0.86942310  1
  O  O357  1  0.09473241  0.58830263  0.20569063  1
  O  O358  1  0.08320215  0.58965711  0.52513387  1
  O  O359  1  0.09450219  0.58312145  0.87383722  1
  O  O360  1  0.58182810  0.08445899  0.19599273  1
  O  O361  1  0.59449052  0.08777035  0.53790395  1
  O  O362  1  0.58602129  0.06541095  0.86854704  1
  O  O363  1  0.58488642  0.58692831  0.20530581  1
  O  O364  1  0.59985983  0.58871674  0.56129943  1
  O  O365  1  0.59015258  0.58639669  0.87463858  1
  O  O366  1  0.13077167  0.21846030  0.05525995  1
  O  O367  1  0.14033664  0.22342332  0.39715409  1
  O  O368  1  0.13424105  0.21796569  0.72870472  1
  O  O369  1  0.13703809  0.72416603  0.05286197  1
  O  O370  1  0.14464294  0.72024093  0.38581048  1
  O  O371  1  0.14079760  0.72545631  0.72786873  1
  O  O372  1  0.63913335  0.21370501  0.05281530  1
  O  O373  1  0.63696060  0.22731842  0.39199973  1
  O  O374  1  0.63533037  0.22141369  0.72555858  1
  O  O375  1  0.64073609  0.72364333  0.06065256  1
  O  O376  1  0.63261214  0.71573025  0.38895293  1
  O  O377  1  0.63293701  0.72490354  0.72482896  1
  O  O378  1  0.28503660  0.36027176  0.10714625  1
  O  O379  1  0.28282048  0.36744651  0.44302748  1
  O  O380  1  0.27386989  0.36075192  0.77717273  1
  O  O381  1  0.28755978  0.86135625  0.10559030  1
  O  O382  1  0.26622901  0.86007409  0.43646153  1
  O  O383  1  0.27386975  0.86350243  0.77615935  1
  O  O384  1  0.76817000  0.36395349  0.10174584  1
  O  O385  1  0.78631707  0.36059628  0.45415400  1
  O  O386  1  0.77700477  0.36443209  0.77826223  1
  O  O387  1  0.78404994  0.86404644  0.11520755  1
  O  O388  1  0.77331527  0.86395086  0.44172506  1
  O  O389  1  0.78500339  0.85902445  0.77868966  1
  O  O390  1  0.36768320  0.27778619  0.27591598  1
  O  O391  1  0.36421537  0.25998179  0.60128397  1
  O  O392  1  0.36234473  0.28308160  0.93830481  1
  O  O393  1  0.35829730  0.77706363  0.27794849  1
  O  O394  1  0.35810495  0.78336617  0.61265002  1
  O  O395  1  0.36310384  0.78054341  0.94353147  1
  O  O396  1  0.86395916  0.27816404  0.27931341  1
  O  O397  1  0.86200030  0.27891210  0.60971494  1
  O  O398  1  0.85800234  0.27955294  0.93719304  1
  O  O399  1  0.86774891  0.77978206  0.26989572  1
  O  O400  1  0.86059293  0.77821867  0.61119519  1
  O  O401  1  0.86208594  0.77726916  0.93856317  1
  O  O402  1  0.21442157  0.13468140  0.22326438  1
  O  O403  1  0.21810952  0.13843946  0.55994402  1
  O  O404  1  0.21897018  0.13988935  0.89201927  1
  O  O405  1  0.22913450  0.63303479  0.22396278  1
  O  O406  1  0.22070533  0.64183406  0.56053803  1
  O  O407  1  0.22830768  0.63786991  0.89610939  1
  O  O408  1  0.71667671  0.13735379  0.22009016  1
  O  O409  1  0.72728255  0.13868087  0.55516053  1
  O  O410  1  0.71513406  0.13462334  0.89287895  1
  O  O411  1  0.71681604  0.64074890  0.21950458  1
  O  O412  1  0.72881535  0.63271183  0.56285926  1
  O  O413  1  0.72138034  0.64375811  0.89166603  1
  O  O414  1  0.49372036  0.33054757  0.02766801  1
  O  O415  1  0.49774421  0.33283536  0.36334405  1
  O  O416  1  0.49056396  0.32134591  0.69284520  1
  O  O417  1  0.49122160  0.84015301  0.03383447  1
  O  O418  1  0.48901171  0.83394770  0.36464554  1
  O  O419  1  0.48939261  0.83380673  0.70003606  1
  O  O420  1  0.99064370  0.33207443  0.02428580  1
  O  O421  1  0.99206662  0.34128754  0.36901239  1
  O  O422  1  0.99160403  0.33132629  0.69937662  1
  O  O423  1  0.99301556  0.82785465  0.02841615  1
  O  O424  1  0.99790707  0.83720845  0.35650962  1
  O  O425  1  0.99128205  0.83220552  0.70054256  1
  O  O426  1  0.15283872  0.00249571  0.14157980  1
  O  O427  1  0.16351781  0.00970541  0.46904676  1
  O  O428  1  0.16293954  0.01017393  0.79987830  1
  O  O429  1  0.16872894  0.50528050  0.13495309  1
  O  O430  1  0.17146285  0.51082638  0.47157570  1
  O  O431  1  0.17413596  0.50948215  0.80334070  1
  O  O432  1  0.66553122  0.00468479  0.13704432  1
  O  O433  1  0.67135851  0.00810883  0.46923601  1
  O  O434  1  0.67366827  0.00340924  0.80331571  1
  O  O435  1  0.65704763  0.51095155  0.13042173  1
  O  O436  1  0.66243939  0.50361305  0.47862883  1
  O  O437  1  0.67006867  0.51206962  0.80452889  1
  O  O438  1  0.00858339  0.17448298  0.30772138  1
  O  O439  1  0.00338669  0.16889360  0.63964729  1
  O  O440  1  0.00041244  0.16510175  0.97025227  1
  O  O441  1  0.01283809  0.66777403  0.30190257  1
  O  O442  1  0.01313233  0.66762051  0.63459395  1
  O  O443  1  0.00820026  0.66147246  0.96597237  1
  O  O444  1  0.50884397  0.16467577  0.30185195  1
  O  O445  1  0.50996276  0.16015855  0.63025013  1
  O  O446  1  0.50475758  0.15860427  0.97001269  1
  O  O447  1  0.50192741  0.66540418  0.30122808  1
  O  O448  1  0.49955654  0.66338877  0.64246805  1
  O  O449  1  0.50915303  0.67429896  0.97254483  1
  O  O450  1  0.33553769  0.49058250  0.19698337  1
  O  O451  1  0.34614901  0.49762051  0.53065151  1
  O  O452  1  0.33868238  0.48813076  0.86736667  1
  O  O453  1  0.32984369  0.99260978  0.19563177  1
  O  O454  1  0.32792148  0.98644809  0.52847748  1
  O  O455  1  0.32773020  0.99418871  0.86548713  1
  O  O456  1  0.82270175  0.49156856  0.19375550  1
  O  O457  1  0.83706961  0.49393092  0.53408095  1
  O  O458  1  0.83491291  0.49479817  0.86601306  1
  O  O459  1  0.84179614  1.00009926  0.19107983  1
  O  O460  1  0.83587183  0.99087191  0.53369666  1
  O  O461  1  0.83511058  0.99107717  0.86541138  1
