# generated using pymatgen
data_Na31Fe20(SO4)36
_symmetry_space_group_name_H-M   'P 1'
_cell_length_a   18.07830021
_cell_length_b   18.07259135
_cell_length_c   19.72106406
_cell_angle_alpha   107.55708739
_cell_angle_beta   107.58792214
_cell_angle_gamma   90.70549224
_symmetry_Int_Tables_number   1
_chemical_formula_structural   Na31Fe20(SO4)36
_chemical_formula_sum   'Na62 Fe40 S72 O288'
_cell_volume   5817.91610781
_cell_formula_units_Z   2
loop_
 _symmetry_equiv_pos_site_id
 _symmetry_equiv_pos_as_xyz
  1  'x, y, z'
loop_
 _atom_site_type_symbol
 _atom_site_label
 _atom_site_symmetry_multiplicity
 _atom_site_fract_x
 _atom_site_fract_y
 _atom_site_fract_z
 _atom_site_occupancy
  Na  Na0  1  0.13486439  0.35491338  0.08518265  1
  Na  Na1  1  0.13639483  0.37213496  0.41916282  1
  Na  Na2  1  0.13075578  0.37061078  0.74861039  1
  Na  Na3  1  0.13733439  0.85560269  0.08978954  1
  Na  Na4  1  0.14368368  0.85778704  0.41277905  1
  Na  Na5  1  0.13569234  0.86571582  0.74982094  1
  Na  Na6  1  0.63100928  0.37378690  0.09151724  1
  Na  Na7  1  0.62719945  0.35681593  0.40270032  1
  Na  Na8  1  0.55535495  0.47240075  0.71650622  1
  Na  Na9  1  0.63734095  0.86538945  0.08022675  1
  Na  Na10  1  0.64057788  0.85745865  0.40912721  1
  Na  Na11  1  0.63556605  0.86208162  0.75055584  1
  Na  Na12  1  0.36686490  0.14070576  0.24880289  1
  Na  Na13  1  0.36966141  0.14280547  0.58916744  1
  Na  Na14  1  0.36413942  0.13464867  0.91315184  1
  Na  Na15  1  0.34963657  0.65293303  0.25460475  1
  Na  Na16  1  0.36490613  0.61171116  0.57223304  1
  Na  Na17  1  0.38042365  0.63735176  0.92426627  1
  Na  Na18  1  0.86549470  0.13207630  0.24804462  1
  Na  Na19  1  0.86996012  0.13327363  0.58465707  1
  Na  Na20  1  0.85869726  0.13313577  0.91182844  1
  Na  Na21  1  0.86578891  0.62827097  0.25372706  1
  Na  Na22  1  0.86497206  0.63417274  0.58810520  1
  Na  Na23  1  0.86665699  0.63780029  0.92549997  1
  Na  Na24  1  0.98529495  0.51059371  0.10180570  1
  Na  Na25  1  0.49552111  0.05378231  0.09366777  1
  Na  Na26  1  0.98914731  0.50981600  0.38055281  1
  Na  Na27  1  0.49285809  0.01355668  0.41640426  1
  Na  Na28  1  0.99730095  -0.00103718  0.43320179  1
  Na  Na29  1  0.99414731  0.01167253  0.73762776  1
  Na  Na30  1  0.48363068  0.01515842  0.74946875  1
  Na  Na31  1  1.00878941  -0.01838885  0.08861871  1
  Na  Na32  1  0.48487456  0.49664735  0.43500521  1
  Na  Na33  1  0.00767515  0.95760710  0.24490457  1
  Na  Na34  1  0.52327333  0.49229073  0.23759848  1
  Na  Na35  1  0.00674592  0.49359691  0.58789277  1
  Na  Na36  1  0.50781915  0.99759824  0.24465101  1
  Na  Na37  1  0.50869053  0.48280906  0.88786464  1
  Na  Na38  1  0.51565008  0.97930100  0.91718940  1
  Na  Na39  1  0.00640794  0.98951974  0.91461310  1
  Na  Na40  1  0.50778780  0.98213311  0.57968841  1
  Na  Na41  1  0.02742775  0.50062056  0.90533314  1
  Na  Na42  1  0.74399388  0.74228841  0.00917635  1
  Na  Na43  1  0.75412039  0.26191180  0.66713478  1
  Na  Na44  1  0.73891901  0.73078147  0.67394843  1
  Na  Na45  1  0.24790212  0.73946867  0.66622662  1
  Na  Na46  1  0.24236293  0.73911987  0.01493917  1
  Na  Na47  1  0.28437596  0.28648399  0.66709188  1
  Na  Na48  1  0.24724673  0.24491072  0.00164318  1
  Na  Na49  1  0.74930864  0.25944895  -0.00501258  1
  Na  Na50  1  0.25569292  0.25609665  0.31772123  1
  Na  Na51  1  0.75029227  0.25844424  0.32452839  1
  Na  Na52  1  0.26489518  0.26485086  0.82554706  1
  Na  Na53  1  0.74097530  0.26060239  0.82425920  1
  Na  Na54  1  0.25907781  0.75112724  0.83913525  1
  Na  Na55  1  0.75805209  0.75140975  0.49040597  1
  Na  Na56  1  0.74627811  0.25293928  0.49593729  1
  Na  Na57  1  0.75482788  0.26423052  0.16433524  1
  Na  Na58  1  0.71326325  0.71203044  0.83096772  1
  Na  Na59  1  0.24187261  0.73390229  0.49747573  1
  Na  Na60  1  0.26365323  0.26703740  0.49399379  1
  Na  Na61  1  0.74673520  0.74021748  0.18182583  1
  Fe  Fe62  1  0.46494633  0.30133444  0.12549431  1
  Fe  Fe63  1  0.96607952  0.80613584  0.78406976  1
  Fe  Fe64  1  0.96197674  0.31157041  0.12634467  1
  Fe  Fe65  1  0.46880275  0.80636847  0.11563221  1
  Fe  Fe66  1  0.96750025  0.30635957  0.78848391  1
  Fe  Fe67  1  0.96223020  0.81088657  0.45288458  1
  Fe  Fe68  1  0.46775197  0.80045670  0.78791248  1
  Fe  Fe69  1  0.46652651  0.80296798  0.44556695  1
  Fe  Fe70  1  0.46698278  0.31072348  0.45522908  1
  Fe  Fe71  1  0.96510169  0.30531652  0.45331882  1
  Fe  Fe72  1  0.19072901  0.03499528  0.71294449  1
  Fe  Fe73  1  0.69451494  0.03735238  0.04887572  1
  Fe  Fe74  1  0.70293917  0.52871402  0.37600124  1
  Fe  Fe75  1  0.19834505  0.54244074  0.07020962  1
  Fe  Fe76  1  0.69407466  0.03616824  0.38066865  1
  Fe  Fe77  1  0.19310143  0.03459963  0.05130056  1
  Fe  Fe78  1  0.19491412  0.03366886  0.38241989  1
  Fe  Fe79  1  0.69379750  0.03345190  0.71507950  1
  Fe  Fe80  1  0.69284794  0.53367017  0.05002064  1
  Fe  Fe81  1  0.19948732  0.53548021  0.70796796  1
  Fe  Fe82  1  0.03392245  0.69325500  0.54524986  1
  Fe  Fe83  1  0.03556248  0.19319798  0.88654332  1
  Fe  Fe84  1  0.53845812  0.19405890  0.55193960  1
  Fe  Fe85  1  0.03415499  0.69355536  0.88244635  1
  Fe  Fe86  1  0.53670213  0.68826455  0.54470682  1
  Fe  Fe87  1  0.03660474  0.19457891  0.55189817  1
  Fe  Fe88  1  0.53486857  0.69205191  0.21249487  1
  Fe  Fe89  1  0.03375688  0.70245824  0.21545737  1
  Fe  Fe90  1  0.03678470  0.18930378  0.21515211  1
  Fe  Fe91  1  0.52734574  0.20271021  0.87520583  1
  Fe  Fe92  1  0.80261624  0.46920162  0.62782070  1
  Fe  Fe93  1  0.30990215  0.96012508  0.28433303  1
  Fe  Fe94  1  0.29275365  0.46829481  0.29000122  1
  Fe  Fe95  1  0.30599546  0.96315192  0.61434713  1
  Fe  Fe96  1  0.80790773  0.96347170  0.28255689  1
  Fe  Fe97  1  0.30889249  0.46971410  0.95841176  1
  Fe  Fe98  1  0.81171589  0.96433329  0.95255287  1
  Fe  Fe99  1  0.80595069  0.96284200  0.61502179  1
  Fe  Fe100  1  0.30815640  0.96764451  0.95415879  1
  Fe  Fe101  1  0.80595538  0.46341543  0.95282759  1
  S  S102  1  0.35267647  0.14075847  0.08202429  1
  S  S103  1  0.36075111  0.13604130  0.41533470  1
  S  S104  1  0.35621445  0.13811125  0.74762232  1
  S  S105  1  0.36140272  0.64358908  0.08371586  1
  S  S106  1  0.36295877  0.63678023  0.41451540  1
  S  S107  1  0.35568710  0.64501710  0.75139710  1
  S  S108  1  0.85993166  0.14019116  0.08283717  1
  S  S109  1  0.86263503  0.13772153  0.41792809  1
  S  S110  1  0.86197281  0.13773397  0.74996664  1
  S  S111  1  0.86229576  0.63901539  0.08611350  1
  S  S112  1  0.86253897  0.64522547  0.42222435  1
  S  S113  1  0.86160796  0.64263665  0.75147674  1
  S  S114  1  0.13477257  0.35586464  0.24818725  1
  S  S115  1  0.13892381  0.35912666  0.58683756  1
  S  S116  1  0.14222483  0.36183255  0.92004214  1
  S  S117  1  0.14502169  0.86091391  0.25144288  1
  S  S118  1  0.14020700  0.86188525  0.58238266  1
  S  S119  1  0.14078640  0.86128812  0.91802860  1
  S  S120  1  0.63646872  0.35792971  0.25073376  1
  S  S121  1  0.64201608  0.35645120  0.58083114  1
  S  S122  1  0.63800912  0.36177834  0.91769382  1
  S  S123  1  0.64023132  0.86218844  0.24960825  1
  S  S124  1  0.64012519  0.85789459  0.58251869  1
  S  S125  1  0.64482689  0.86264788  0.91386109  1
  S  S126  1  0.06201290  0.16070292  0.03835592  1
  S  S127  1  0.06768883  0.16403343  0.37604343  1
  S  S128  1  0.06887475  0.17102653  0.71433086  1
  S  S129  1  0.07024493  0.66578926  0.04169505  1
  S  S130  1  0.06206677  0.67745064  0.37849591  1
  S  S131  1  0.07361587  0.67522381  0.71244682  1
  S  S132  1  0.56640496  0.17036158  0.03715326  1
  S  S133  1  0.56322573  0.16125762  0.37411938  1
  S  S134  1  0.56665734  0.15460398  0.70389234  1
  S  S135  1  0.57121814  0.67496300  0.04589912  1
  S  S136  1  0.57066073  0.67080428  0.37497095  1
  S  S137  1  0.56169431  0.66934667  0.70397626  1
  S  S138  1  0.32293132  0.43055042  0.12573337  1
  S  S139  1  0.32347023  0.42810184  0.45230817  1
  S  S140  1  0.32604931  0.43919528  0.79303689  1
  S  S141  1  0.33038865  0.93284745  0.12326707  1
  S  S142  1  0.33553529  0.93279141  0.45878866  1
  S  S143  1  0.33022253  0.93243058  0.78950206  1
  S  S144  1  0.82988044  0.43383523  0.12590335  1
  S  S145  1  0.83101462  0.42986494  0.46283387  1
  S  S146  1  0.84164844  0.42982009  0.79818695  1
  S  S147  1  0.83367248  0.93791228  0.12224156  1
  S  S148  1  0.82970457  0.93521207  0.45883647  1
  S  S149  1  0.83172685  0.93216368  0.78727214  1
  S  S150  1  0.42254475  0.33507655  0.29203008  1
  S  S151  1  0.44341008  0.32729315  0.61984956  1
  S  S152  1  0.42507127  0.32545979  0.96112803  1
  S  S153  1  0.43984997  0.83752066  0.29294180  1
  S  S154  1  0.43117971  0.82855789  0.62331125  1
  S  S155  1  0.43859710  0.84926986  0.96497363  1
  S  S156  1  0.93228223  0.32327023  0.28964066  1
  S  S157  1  0.92930222  0.32680891  0.62381069  1
  S  S158  1  0.92954451  0.32386456  0.95689013  1
  S  S159  1  0.93597012  0.83685194  0.29614305  1
  S  S160  1  0.93447991  0.83297682  0.62496105  1
  S  S161  1  0.93759611  0.83370431  0.95663404  1
  S  S162  1  0.16977954  0.06343489  0.21016751  1
  S  S163  1  0.17444392  0.07208617  0.54651867  1
  S  S164  1  0.16519595  0.06389953  0.87422244  1
  S  S165  1  0.15950987  0.55872561  0.20217083  1
  S  S166  1  0.15380783  0.56373855  0.53817407  1
  S  S167  1  0.17800726  0.57327365  0.87512950  1
  S  S168  1  0.67014658  0.06444037  0.20994302  1
  S  S169  1  0.67195634  0.06489143  0.54329611  1
  S  S170  1  0.66743394  0.06867539  0.87478882  1
  S  S171  1  0.66825487  0.57121166  0.21059513  1
  S  S172  1  0.67424816  0.56653635  0.53771869  1
  S  S173  1  0.67307022  0.56014610  0.88244766  1
  O  O174  1  0.36472966  0.22084202  0.07792809  1
  O  O175  1  0.36963407  0.21410616  0.40642228  1
  O  O176  1  0.36140568  0.21463133  0.73823962  1
  O  O177  1  0.37389188  0.72066961  0.07150682  1
  O  O178  1  0.37872993  0.71353015  0.40406060  1
  O  O179  1  0.36325503  0.73118352  0.75752106  1
  O  O180  1  0.86938725  0.21943531  0.07530974  1
  O  O181  1  0.87024289  0.21654076  0.40942356  1
  O  O182  1  0.87004990  0.21577379  0.74033457  1
  O  O183  1  0.86803019  0.71196362  0.06983160  1
  O  O184  1  0.86601204  0.72754992  0.42033513  1
  O  O185  1  0.87683533  0.71792194  0.73584061  1
  O  O186  1  0.27125302  0.13104176  0.08403796  1
  O  O187  1  0.28277136  0.12826362  0.42645764  1
  O  O188  1  0.27998773  0.12530158  0.76118600  1
  O  O189  1  0.27889742  0.63640294  0.08218996  1
  O  O190  1  0.29324329  0.63457258  0.43589656  1
  O  O191  1  0.26891499  0.63484381  0.74998383  1
  O  O192  1  0.78231545  0.13391619  0.09479744  1
  O  O193  1  0.78493074  0.12941437  0.42916361  1
  O  O194  1  0.78415260  0.12842387  0.76006437  1
  O  O195  1  0.78461146  0.62818645  0.09753421  1
  O  O196  1  0.78188669  0.62812520  0.42381417  1
  O  O197  1  0.78339919  0.64035828  0.75794879  1
  O  O198  1  0.13186489  0.27307036  0.25064879  1
  O  O199  1  0.12416907  0.28502639  0.60297515  1
  O  O200  1  0.12959075  0.28296863  0.92841711  1
  O  O201  1  0.13269364  0.78261009  0.25824261  1
  O  O202  1  0.13178665  0.78269461  0.59032170  1
  O  O203  1  0.13224570  0.78250816  0.92590728  1
  O  O204  1  0.62309155  0.28513407  0.26577652  1
  O  O205  1  0.63697977  0.27367046  0.58421286  1
  O  O206  1  0.62654031  0.27953852  0.92070218  1
  O  O207  1  0.62989869  0.78483611  0.25847530  1
  O  O208  1  0.63137058  0.77946438  0.59054423  1
  O  O209  1  0.64200932  0.78495551  0.92157840  1
  O  O210  1  0.21472614  0.37146908  0.24156831  1
  O  O211  1  0.21662379  0.36190856  0.57939629  1
  O  O212  1  0.22182146  0.36842285  0.91344064  1
  O  O213  1  0.22456268  0.86990133  0.24494695  1
  O  O214  1  0.21885771  0.86998211  0.57225094  1
  O  O215  1  0.21876788  0.87120566  0.90823632  1
  O  O216  1  0.71238136  0.36456588  0.23920291  1
  O  O217  1  0.72415360  0.36799299  0.57815098  1
  O  O218  1  0.72018152  0.36604388  0.91364824  1
  O  O219  1  0.71835156  0.86981096  0.23908989  1
  O  O220  1  0.71734456  0.86704086  0.57112156  1
  O  O221  1  0.72088246  0.87852101  0.90139617  1
  O  O222  1  0.40931674  0.12733589  0.14667024  1
  O  O223  1  0.42126911  0.12452162  0.48083693  1
  O  O224  1  0.41874535  0.12978771  0.81433942  1
  O  O225  1  0.41386944  0.64201098  0.15731772  1
  O  O226  1  0.43025981  0.61928868  0.47217290  1
  O  O227  1  0.40587585  0.63172838  0.81833604  1
  O  O228  1  0.92039821  0.12853942  0.14786213  1
  O  O229  1  0.92357693  0.12889168  0.48488012  1
  O  O230  1  0.92231098  0.12959440  0.81729277  1
  O  O231  1  0.92276404  0.63696253  0.15710895  1
  O  O232  1  0.91724940  0.64092358  0.49512582  1
  O  O233  1  0.92034340  0.63831850  0.82162004  1
  O  O234  1  0.36088661  0.08493346  0.01089508  1
  O  O235  1  0.36547303  0.07581414  0.34588845  1
  O  O236  1  0.36461573  0.07629396  0.68039108  1
  O  O237  1  0.37529397  0.58163063  0.02103769  1
  O  O238  1  0.35657898  0.57646593  0.34000798  1
  O  O239  1  0.36266714  0.59669354  0.68092939  1
  O  O240  1  0.86300150  0.08207418  0.01197024  1
  O  O241  1  0.86926666  0.07881570  0.34961568  1
  O  O242  1  0.87016402  0.07768498  0.68234938  1
  O  O243  1  0.87396742  0.57294060  0.02363017  1
  O  O244  1  0.88066612  0.59105034  0.35935234  1
  O  O245  1  0.86995765  0.57921376  0.68616219  1
  O  O246  1  0.07759926  0.35891997  0.17645775  1
  O  O247  1  0.07868223  0.36451426  0.51786026  1
  O  O248  1  0.08402829  0.36831236  0.85012027  1
  O  O249  1  0.08688323  0.87477041  0.18726582  1
  O  O250  1  0.08081394  0.87236567  0.51668123  1
  O  O251  1  0.08033372  0.87077124  0.85095011  1
  O  O252  1  0.57440164  0.36621080  0.18239284  1
  O  O253  1  0.58774193  0.35898435  0.50721101  1
  O  O254  1  0.58132602  0.37581237  0.85475927  1
  O  O255  1  0.58040590  0.87365883  0.18331307  1
  O  O256  1  0.57844479  0.86857814  0.51703934  1
  O  O257  1  0.58189016  0.87099132  0.84741293  1
  O  O258  1  0.12180462  0.40927539  0.31350591  1
  O  O259  1  0.13047663  0.42454129  0.65243014  1
  O  O260  1  0.13282669  0.42276587  0.98542689  1
  O  O261  1  0.13872501  0.91977445  0.32266161  1
  O  O262  1  0.13621543  0.91986743  0.65293911  1
  O  O263  1  0.13323309  0.92045378  0.98636786  1
  O  O264  1  0.62881311  0.42457633  0.31569730  1
  O  O265  1  0.62945260  0.41212640  0.64458254  1
  O  O266  1  0.63453373  0.41582091  0.99079502  1
  O  O267  1  0.63426122  0.92289331  0.31815903  1
  O  O268  1  0.63459371  0.91706930  0.65193523  1
  O  O269  1  0.63594111  0.92226490  0.98219885  1
  O  O270  1  0.02986900  0.19277898  0.10097341  1
  O  O271  1  0.03298120  0.19667840  0.43806287  1
  O  O272  1  0.03067981  0.20126971  0.77447233  1
  O  O273  1  0.03669280  0.68571266  0.10288818  1
  O  O274  1  0.02424725  0.71178788  0.44018910  1
  O  O275  1  0.03908438  0.70141448  0.77494184  1
  O  O276  1  0.52842671  0.19495423  0.09585325  1
  O  O277  1  0.53292055  0.19238387  0.43927493  1
  O  O278  1  0.53424381  0.18402588  0.76538263  1
  O  O279  1  0.53624316  0.70551825  0.11031797  1
  O  O280  1  0.53745428  0.70322862  0.43865321  1
  O  O281  1  0.52382601  0.70372852  0.76197599  1
  O  O282  1  0.29790402  0.47677918  0.07110074  1
  O  O283  1  0.29872942  0.46276416  0.38912997  1
  O  O284  1  0.29145375  0.47880489  0.73522594  1
  O  O285  1  0.30093572  0.97136312  0.06329571  1
  O  O286  1  0.30333488  0.96737949  0.39696737  1
  O  O287  1  0.30006895  0.96733756  0.72763641  1
  O  O288  1  0.79669346  0.46454730  0.06062652  1
  O  O289  1  0.80411469  0.46524528  0.40288698  1
  O  O290  1  0.81445513  0.46023696  0.73512237  1
  O  O291  1  0.79719235  0.97338536  0.06051634  1
  O  O292  1  0.79803090  0.96878940  0.39587120  1
  O  O293  1  0.80035365  0.96842809  0.72606978  1
  O  O294  1  0.45741747  0.31656330  0.23171202  1
  O  O295  1  0.47305240  0.28769182  0.55156610  1
  O  O296  1  0.46200356  0.29857029  0.90176400  1
  O  O297  1  0.47211241  0.80445838  0.22979884  1
  O  O298  1  0.46626505  0.79771841  0.56165208  1
  O  O299  1  0.47235948  0.82979234  0.90353249  1
  O  O300  1  0.96979710  0.28794011  0.22900648  1
  O  O301  1  0.96437911  0.29457156  0.56159991  1
  O  O302  1  0.96804468  0.29546459  0.89669486  1
  O  O303  1  0.97250875  0.80939657  0.23696418  1
  O  O304  1  0.97306148  0.80533962  0.56615065  1
  O  O305  1  0.96877180  0.80011828  0.89110865  1
  O  O306  1  0.20049142  0.02888746  0.27204300  1
  O  O307  1  0.20220834  0.03348889  0.60628222  1
  O  O308  1  0.19545934  0.02814735  0.93517412  1
  O  O309  1  0.19717746  0.53047074  0.26641384  1
  O  O310  1  0.18187794  0.53296963  0.60344049  1
  O  O311  1  0.20398941  0.52930651  0.92971209  1
  O  O312  1  0.70845039  0.02999327  0.27185631  1
  O  O313  1  0.70201692  0.02878100  0.60492404  1
  O  O314  1  0.69923423  0.03765011  0.93895928  1
  O  O315  1  0.69302137  0.53586666  0.27081122  1
  O  O316  1  0.70315062  0.53176416  0.59801122  1
  O  O317  1  0.70931329  0.52733230  0.94811431  1
  O  O318  1  0.08071565  0.07860332  0.03596235  1
  O  O319  1  0.08281963  0.08134041  0.37202883  1
  O  O320  1  0.08592112  0.08963285  0.71202069  1
  O  O321  1  0.09300150  0.58351944  0.02828700  1
  O  O322  1  0.07360629  0.59724731  0.37450392  1
  O  O323  1  0.09498906  0.59393067  0.70384561  1
  O  O324  1  0.58494168  0.08684326  0.03080430  1
  O  O325  1  0.58372981  0.07852585  0.37233622  1
  O  O326  1  0.57977628  0.06910894  0.69617256  1
  O  O327  1  0.59186147  0.59493761  0.04273881  1
  O  O328  1  0.58530919  0.58861768  0.36751066  1
  O  O329  1  0.58445797  0.59342941  0.70667286  1
  O  O330  1  0.40540993  0.41659667  0.13658682  1
  O  O331  1  0.40579340  0.40874419  0.45946622  1
  O  O332  1  0.40107928  0.41567439  0.78714160  1
  O  O333  1  0.41203074  0.91487967  0.12888183  1
  O  O334  1  0.41772129  0.91563803  0.46075765  1
  O  O335  1  0.41278614  0.91696432  0.79537303  1
  O  O336  1  0.91038746  0.41276340  0.12387165  1
  O  O337  1  0.91390302  0.41087421  0.47037358  1
  O  O338  1  0.92606188  0.41344758  0.80934295  1
  O  O339  1  0.91513255  0.92846403  0.12566221  1
  O  O340  1  0.91119690  0.91846742  0.46257539  1
  O  O341  1  0.91489788  0.91817628  0.79273222  1
  O  O342  1  0.39761842  0.41667174  0.30406105  1
  O  O343  1  0.43077442  0.40678099  0.62059637  1
  O  O344  1  0.40329316  0.40543556  0.96545945  1
  O  O345  1  0.42511942  0.92099588  0.29653412  1
  O  O346  1  0.41652672  0.91238443  0.62817585  1
  O  O347  1  0.42292816  0.93461925  0.98026267  1
  O  O348  1  0.91567324  0.40148776  0.29011518  1
  O  O349  1  0.91156698  0.40703642  0.62749800  1
  O  O350  1  0.91466907  0.40630580  0.96611721  1
  O  O351  1  0.91720510  0.92015739  0.30021020  1
  O  O352  1  0.91387743  0.91406986  0.62940373  1
  O  O353  1  0.91955388  0.91637067  0.95702818  1
  O  O354  1  0.08743036  0.08048942  0.20507802  1
  O  O355  1  0.09244027  0.08972802  0.54005053  1
  O  O356  1  0.08186706  0.07914946  0.86825119  1
  O  O357  1  0.08857552  0.59454716  0.21175502  1
  O  O358  1  0.07110318  0.58386861  0.53423783  1
  O  O359  1  0.09751834  0.59311848  0.87303895  1
  O  O360  1  0.58882372  0.07228427  0.20768373  1
  O  O361  1  0.58948310  0.08047628  0.53779963  1
  O  O362  1  0.58423781  0.08199335  0.86618377  1
  O  O363  1  0.58513530  0.58910611  0.20209942  1
  O  O364  1  0.59179249  0.58443562  0.52997723  1
  O  O365  1  0.59351964  0.57517184  0.88173346  1
  O  O366  1  0.13033043  0.21037625  0.04509771  1
  O  O367  1  0.13969693  0.21324303  0.38969001  1
  O  O368  1  0.13989150  0.22253058  0.73114866  1
  O  O369  1  0.13753545  0.72137483  0.05572786  1
  O  O370  1  0.13536312  0.72786522  0.39841745  1
  O  O371  1  0.14296197  0.73043556  0.72907735  1
  O  O372  1  0.63853484  0.22169985  0.05444893  1
  O  O373  1  0.63531656  0.21044139  0.38664758  1
  O  O374  1  0.64038109  0.19888609  0.71488236  1
  O  O375  1  0.64353034  0.72915506  0.06639335  1
  O  O376  1  0.64180500  0.72176259  0.38998754  1
  O  O377  1  0.63172682  0.72490227  0.71821365  1
  O  O378  1  0.26980219  0.35822850  0.09821792  1
  O  O379  1  0.27122576  0.35397546  0.42958671  1
  O  O380  1  0.26947031  0.37025652  0.77802749  1
  O  O381  1  0.27753253  0.86270029  0.10608488  1
  O  O382  1  0.28662212  0.86308867  0.44925549  1
  O  O383  1  0.27844166  0.86160831  0.77452000  1
  O  O384  1  0.77953562  0.36090225  0.11105452  1
  O  O385  1  0.77942319  0.35706575  0.44574894  1
  O  O386  1  0.79392577  0.35681451  0.78544541  1
  O  O387  1  0.78554806  0.86484469  0.10756222  1
  O  O388  1  0.77946742  0.86550547  0.44786763  1
  O  O389  1  0.78245742  0.85983540  0.77084977  1
  O  O390  1  0.35672035  0.27734557  0.27643543  1
  O  O391  1  0.36820729  0.27698439  0.60092082  1
  O  O392  1  0.35416765  0.27056394  0.94341109  1
  O  O393  1  0.36918826  0.79110638  0.28403618  1
  O  O394  1  0.35820642  0.78020610  0.60856516  1
  O  O395  1  0.36622178  0.79881948  0.94791980  1
  O  O396  1  0.86100473  0.26975883  0.27305286  1
  O  O397  1  0.85858298  0.27337002  0.60821103  1
  O  O398  1  0.85611318  0.27213192  0.93517233  1
  O  O399  1  0.86565265  0.78674027  0.28395904  1
  O  O400  1  0.86428967  0.78022562  0.60923117  1
  O  O401  1  0.86620706  0.78536790  0.94489231  1
  O  O402  1  0.22105870  0.13280683  0.22247875  1
  O  O403  1  0.22660048  0.14293747  0.56347212  1
  O  O404  1  0.21429039  0.13621699  0.88923920  1
  O  O405  1  0.21533137  0.61334819  0.19270187  1
  O  O406  1  0.20520508  0.63566320  0.55378094  1
  O  O407  1  0.23233251  0.64462637  0.89636005  1
  O  O408  1  0.71667400  0.13860617  0.22423859  1
  O  O409  1  0.72321383  0.13649144  0.56002164  1
  O  O410  1  0.71656929  0.14095054  0.88758290  1
  O  O411  1  0.72038217  0.64151763  0.22589600  1
  O  O412  1  0.72475375  0.63991398  0.55405337  1
  O  O413  1  0.72494505  0.63431661  0.90258510  1
  O  O414  1  0.48270903  0.32837213  0.03494847  1
  O  O415  1  0.48584125  0.33810435  0.36370561  1
  O  O416  1  0.50252592  0.32153011  0.68619457  1
  O  O417  1  0.49822452  0.84439659  0.03461135  1
  O  O418  1  0.50228041  0.84299524  0.36554206  1
  O  O419  1  0.48991610  0.83200645  0.69619444  1
  O  O420  1  0.98640091  0.31917478  0.02750505  1
  O  O421  1  0.99058038  0.32387485  0.36276605  1
  O  O422  1  0.98946217  0.32723296  0.69532139  1
  O  O423  1  1.00097796  0.84179286  0.02616906  1
  O  O424  1  0.99559146  0.84673127  0.37168735  1
  O  O425  1  0.99412437  0.83852436  0.69888957  1
  O  O426  1  0.16424116  0.00191098  0.13713451  1
  O  O427  1  0.17274791  0.01151383  0.47458101  1
  O  O428  1  0.16312929  0.00483116  0.80160182  1
  O  O429  1  0.13438954  0.49107805  0.12964338  1
  O  O430  1  0.14870085  0.50309440  0.46878396  1
  O  O431  1  0.17338623  0.51941965  0.79879688  1
  O  O432  1  0.67051824  0.00736133  0.13649961  1
  O  O433  1  0.67045220  0.00559615  0.47137514  1
  O  O434  1  0.66992753  0.00713961  0.80479665  1
  O  O435  1  0.66689153  0.51071114  0.13867164  1
  O  O436  1  0.67224283  0.50842852  0.46436863  1
  O  O437  1  0.67611394  0.50298071  0.81364372  1
  O  O438  1  0.00803273  0.16122533  0.30346132  1
  O  O439  1  0.01030027  0.16703534  0.64100472  1
  O  O440  1  -0.00081098  0.15197684  0.96486823  1
  O  O441  1  0.00562036  0.68316581  0.30741688  1
  O  O442  1  0.01213862  0.67476396  0.64225500  1
  O  O443  1  0.00810274  0.66311662  0.96933849  1
  O  O444  1  0.50142615  0.15399670  0.30418522  1
  O  O445  1  0.50698159  0.15177943  0.63095223  1
  O  O446  1  0.50892151  0.16650768  0.96300873  1
  O  O447  1  0.50900843  0.67257823  0.30479041  1
  O  O448  1  0.50460525  0.66406537  0.62789649  1
  O  O449  1  0.51222556  0.67577661  0.97744990  1
  O  O450  1  0.31499825  0.48308043  0.19801334  1
  O  O451  1  0.31917812  0.48437192  0.52021353  1
  O  O452  1  0.33546427  0.49566655  0.86966845  1
  O  O453  1  0.33297537  0.99228118  0.19598697  1
  O  O454  1  0.34252193  0.99524717  0.53170731  1
  O  O455  1  0.33137264  0.99218892  0.86177232  1
  O  O456  1  0.83562150  0.49380021  0.19562723  1
  O  O457  1  0.83455109  0.48789942  0.53679940  1
  O  O458  1  0.84231268  0.49066397  0.86952473  1
  O  O459  1  0.83310476  0.99560228  0.19525305  1
  O  O460  1  0.83318624  0.99704897  0.53075317  1
  O  O461  1  0.83346881  0.99165266  0.85959905  1
