# generated using pymatgen
data_Na31Fe20(SO4)36
_symmetry_space_group_name_H-M   'P 1'
_cell_length_a   18.09048254
_cell_length_b   18.08045327
_cell_length_c   19.71774972
_cell_angle_alpha   107.58281712
_cell_angle_beta   107.59752720
_cell_angle_gamma   90.73343129
_symmetry_Int_Tables_number   1
_chemical_formula_structural   Na31Fe20(SO4)36
_chemical_formula_sum   'Na62 Fe40 S72 O288'
_cell_volume   5821.74463572
_cell_formula_units_Z   2
loop_
 _symmetry_equiv_pos_site_id
 _symmetry_equiv_pos_as_xyz
  1  'x, y, z'
loop_
 _atom_site_type_symbol
 _atom_site_label
 _atom_site_symmetry_multiplicity
 _atom_site_fract_x
 _atom_site_fract_y
 _atom_site_fract_z
 _atom_site_occupancy
  Na  Na0  1  0.14279888  0.36657837  0.09074319  1
  Na  Na1  1  0.11380020  0.34864895  0.39529206  1
  Na  Na2  1  0.13101873  0.37989697  0.74586422  1
  Na  Na3  1  0.13708628  0.89235193  0.09193499  1
  Na  Na4  1  0.13927792  0.86344689  0.41771684  1
  Na  Na5  1  0.13817189  0.85022665  0.74160296  1
  Na  Na6  1  0.64055186  0.36918636  0.09195950  1
  Na  Na7  1  0.64555515  0.36424430  0.43255205  1
  Na  Na8  1  0.63188332  0.35919813  0.74357297  1
  Na  Na9  1  0.62634310  0.87456636  0.08437314  1
  Na  Na10  1  0.62975843  0.86070452  0.41794086  1
  Na  Na11  1  0.63243319  0.86250147  0.74791494  1
  Na  Na12  1  0.36280821  0.13871569  0.25328637  1
  Na  Na13  1  0.36161231  0.13363697  0.58275092  1
  Na  Na14  1  0.37405132  0.13286880  0.92652953  1
  Na  Na15  1  0.36862700  0.63739950  0.25733838  1
  Na  Na16  1  0.36214612  0.64101287  0.59150451  1
  Na  Na17  1  0.35845349  0.62891992  0.90367541  1
  Na  Na18  1  0.87899861  0.16791360  0.27892430  1
  Na  Na19  1  0.85349752  0.13732078  0.57501248  1
  Na  Na20  1  0.87389622  0.12967799  0.92085132  1
  Na  Na21  1  0.86799734  0.63648647  0.25377033  1
  Na  Na22  1  0.86203059  0.62616913  0.57981910  1
  Na  Na23  1  0.86444034  0.62990986  0.91117063  1
  Na  Na24  1  0.48439855  0.51038696  0.08942868  1
  Na  Na25  1  1.00690274  0.46489975  0.58237136  1
  Na  Na26  1  0.48566902  0.00426223  0.76496996  1
  Na  Na27  1  0.48375240  0.51294568  0.74795484  1
  Na  Na28  1  0.99858567  0.01975625  0.40102136  1
  Na  Na29  1  0.99810979  0.50393871  0.08610856  1
  Na  Na30  1  0.45775787  -0.00095550  0.38854583  1
  Na  Na31  1  0.48567380  0.52066343  0.41871353  1
  Na  Na32  1  1.00538899  -0.01494123  0.78122907  1
  Na  Na33  1  -0.01574246  1.04704523  0.18597758  1
  Na  Na34  1  0.51137717  0.47048060  0.25544447  1
  Na  Na35  1  0.50904351  0.95897851  0.57002720  1
  Na  Na36  1  0.01111737  0.49840060  0.89111083  1
  Na  Na37  1  0.00467193  0.47947329  0.27031344  1
  Na  Na38  1  0.00685139  0.99463948  0.58317872  1
  Na  Na39  1  0.51555049  0.48981216  0.58267556  1
  Na  Na40  1  0.51201362  0.49020140  0.92016290  1
  Na  Na41  1  0.47934363  1.04400908  0.19558602  1
  Na  Na42  1  0.74535637  0.24432016  0.00528365  1
  Na  Na43  1  0.75967122  0.75709609  -0.00390397  1
  Na  Na44  1  0.73999793  0.24477785  0.35201169  1
  Na  Na45  1  0.75825556  0.75295646  0.65277822  1
  Na  Na46  1  0.25400826  0.76075620  -0.00376714  1
  Na  Na47  1  0.75834900  0.27222200  0.64256041  1
  Na  Na48  1  0.23983793  0.23217931  0.01267374  1
  Na  Na49  1  0.25140552  0.25639303  0.66190862  1
  Na  Na50  1  0.27636052  0.77453546  0.33296854  1
  Na  Na51  1  0.73963617  0.74056970  0.35022609  1
  Na  Na52  1  0.24490703  0.74292770  0.82048093  1
  Na  Na53  1  0.26288577  0.76705349  0.16334883  1
  Na  Na54  1  0.24877534  0.25805018  0.48195526  1
  Na  Na55  1  0.76072209  0.75852689  0.82625503  1
  Na  Na56  1  0.74819784  0.74922581  0.16880225  1
  Na  Na57  1  0.24710680  0.74292242  0.50987787  1
  Na  Na58  1  0.21971682  0.22382858  0.17954412  1
  Na  Na59  1  0.24877770  0.24750192  0.83839797  1
  Na  Na60  1  0.75683369  0.25427555  0.82718136  1
  Na  Na61  1  0.72952039  0.23664316  0.17685492  1
  Fe  Fe62  1  0.46516788  0.81172783  0.12277815  1
  Fe  Fe63  1  0.46487131  0.81112263  0.79109099  1
  Fe  Fe64  1  0.96475510  0.80442698  0.78586873  1
  Fe  Fe65  1  0.45917543  0.30458251  0.44821422  1
  Fe  Fe66  1  0.97069758  0.81138523  0.12356749  1
  Fe  Fe67  1  0.96558287  0.30532200  0.78233448  1
  Fe  Fe68  1  0.96882389  0.30119843  0.11941457  1
  Fe  Fe69  1  0.47047929  0.29700004  0.12169167  1
  Fe  Fe70  1  0.96476531  0.80569814  0.45327016  1
  Fe  Fe71  1  0.46711237  0.30417974  0.78545599  1
  Fe  Fe72  1  0.69876356  0.53050487  0.71229143  1
  Fe  Fe73  1  0.69262081  0.03420866  0.71455366  1
  Fe  Fe74  1  0.19388411  0.53615585  0.04863360  1
  Fe  Fe75  1  0.69622013  0.53616547  0.04923350  1
  Fe  Fe76  1  0.19924286  0.02959773  0.37031479  1
  Fe  Fe77  1  0.19434651  0.53489928  0.38542389  1
  Fe  Fe78  1  0.69251362  0.03716266  0.04962675  1
  Fe  Fe79  1  0.68524223  0.03655291  0.37974985  1
  Fe  Fe80  1  0.69669329  0.53515192  0.39056688  1
  Fe  Fe81  1  0.19433897  0.03290517  0.71336546  1
  Fe  Fe82  1  0.53211711  0.18765285  0.54533863  1
  Fe  Fe83  1  0.53704909  0.19326676  0.88259567  1
  Fe  Fe84  1  0.53702745  0.69601657  0.88365150  1
  Fe  Fe85  1  0.03658561  0.19160117  0.87879827  1
  Fe  Fe86  1  0.03620054  0.68890733  0.87469760  1
  Fe  Fe87  1  0.53551441  0.69358844  0.21837467  1
  Fe  Fe88  1  0.03550121  0.68452932  0.54681216  1
  Fe  Fe89  1  0.03071487  0.20028259  0.54378564  1
  Fe  Fe90  1  0.53016464  0.70162499  0.54675669  1
  Fe  Fe91  1  0.03568120  0.69404663  0.21649542  1
  Fe  Fe92  1  0.30580519  0.46534666  0.28634312  1
  Fe  Fe93  1  0.80694978  0.96430230  0.61807701  1
  Fe  Fe94  1  0.80994628  0.46519395  0.95474123  1
  Fe  Fe95  1  0.80698310  0.96491080  0.28794565  1
  Fe  Fe96  1  0.81269739  0.96607506  0.95883718  1
  Fe  Fe97  1  0.30607515  0.96210514  0.61884081  1
  Fe  Fe98  1  0.81347906  0.46653146  0.29428991  1
  Fe  Fe99  1  0.29734756  0.46796245  0.62005428  1
  Fe  Fe100  1  0.30114068  0.96803607  0.95717787  1
  Fe  Fe101  1  0.30615848  0.46652769  0.95045244  1
  S  S102  1  0.35698053  0.14181522  0.08227374  1
  S  S103  1  0.35823711  0.14234254  0.41959495  1
  S  S104  1  0.36053274  0.13891334  0.75174475  1
  S  S105  1  0.36106459  0.63939991  0.08288065  1
  S  S106  1  0.35831270  0.64148900  0.41805219  1
  S  S107  1  0.36672909  0.63902884  0.75203742  1
  S  S108  1  0.85489026  0.14366478  0.08477990  1
  S  S109  1  0.85942759  0.13442632  0.41922124  1
  S  S110  1  0.85919391  0.13841775  0.74883005  1
  S  S111  1  0.86297852  0.64198207  0.08415386  1
  S  S112  1  0.85859275  0.64318196  0.41671168  1
  S  S113  1  0.85741982  0.64181489  0.75340735  1
  S  S114  1  0.13651009  0.36600337  0.24567135  1
  S  S115  1  0.14035386  0.35425193  0.57761452  1
  S  S116  1  0.14178387  0.36083372  0.91775538  1
  S  S117  1  0.14288288  0.85562141  0.25451366  1
  S  S118  1  0.13717530  0.85808009  0.58245179  1
  S  S119  1  0.13956817  0.85612966  0.91066369  1
  S  S120  1  0.64332739  0.36419861  0.25018901  1
  S  S121  1  0.63092725  0.35933562  0.58483985  1
  S  S122  1  0.64242789  0.36016286  0.91703255  1
  S  S123  1  0.64310543  0.85843010  0.25156378  1
  S  S124  1  0.64404514  0.85978620  0.58675204  1
  S  S125  1  0.64239540  0.86075591  0.92045291  1
  S  S126  1  0.06482247  0.17319853  0.03907846  1
  S  S127  1  0.06774239  0.15477567  0.37524601  1
  S  S128  1  0.07093666  0.17222766  0.70793877  1
  S  S129  1  0.06817959  0.66632261  0.04091801  1
  S  S130  1  0.06756430  0.67002005  0.37814695  1
  S  S131  1  0.05611469  0.66428833  0.70492331  1
  S  S132  1  0.57227336  0.17403170  0.04188044  1
  S  S133  1  0.56109263  0.16710048  0.37698481  1
  S  S134  1  0.56579089  0.16606431  0.71058655  1
  S  S135  1  0.56728185  0.66756790  0.04295635  1
  S  S136  1  0.56624555  0.66190560  0.37337901  1
  S  S137  1  0.56961302  0.67138982  0.71119452  1
  S  S138  1  0.33447748  0.43352589  0.12335962  1
  S  S139  1  0.32948784  0.43383052  0.46065555  1
  S  S140  1  0.33915884  0.43047420  0.79354652  1
  S  S141  1  0.33199461  0.93380180  0.12128419  1
  S  S142  1  0.33124816  0.93880838  0.46134974  1
  S  S143  1  0.32727008  0.92933030  0.79284134  1
  S  S144  1  0.83426097  0.43537997  0.12377074  1
  S  S145  1  0.82737439  0.43906215  0.45870554  1
  S  S146  1  0.82649957  0.42901414  0.79164114  1
  S  S147  1  0.82806150  0.93132821  0.12488302  1
  S  S148  1  0.83019023  0.92977342  0.45881199  1
  S  S149  1  0.82783231  0.93190571  0.79132206  1
  S  S150  1  0.42976896  0.33621675  0.29144686  1
  S  S151  1  0.42890179  0.33080942  0.62515238  1
  S  S152  1  0.43699770  0.33279997  0.95924641  1
  S  S153  1  0.43749790  0.82706142  0.28566948  1
  S  S154  1  0.43546014  0.83464472  0.62988566  1
  S  S155  1  0.42525866  0.82668855  0.95505292  1
  S  S156  1  0.92604189  0.33364214  0.28452591  1
  S  S157  1  0.93782205  0.32926110  0.62789063  1
  S  S158  1  0.93404551  0.33050266  0.95727520  1
  S  S159  1  0.93231209  0.82916594  0.29138877  1
  S  S160  1  0.93457807  0.83543118  0.62783241  1
  S  S161  1  0.93395227  0.82629915  0.95813429  1
  S  S162  1  0.17642538  0.07314822  0.21756489  1
  S  S163  1  0.17041271  0.06342641  0.54319386  1
  S  S164  1  0.17468416  0.06621512  0.87409533  1
  S  S165  1  0.17210363  0.57358466  0.21108837  1
  S  S166  1  0.17063182  0.56624310  0.54061729  1
  S  S167  1  0.17430104  0.56732716  0.87952870  1
  S  S168  1  0.67722227  0.07000542  0.21603967  1
  S  S169  1  0.66610269  0.06504632  0.54470988  1
  S  S170  1  0.67220042  0.06579927  0.87636613  1
  S  S171  1  0.67144157  0.57100630  0.20887867  1
  S  S172  1  0.65724885  0.56739947  0.54291288  1
  S  S173  1  0.66942203  0.56636020  0.87712230  1
  O  O174  1  0.37716336  0.21380327  0.06334734  1
  O  O175  1  0.36336014  0.22388987  0.41710573  1
  O  O176  1  0.37062620  0.21700322  0.74205823  1
  O  O177  1  0.36957372  0.71883746  0.07639335  1
  O  O178  1  0.36593494  0.71553222  0.40491628  1
  O  O179  1  0.37985527  0.71592523  0.74168612  1
  O  O180  1  0.86797915  0.22085571  0.07294525  1
  O  O181  1  0.86394416  0.20773799  0.40356770  1
  O  O182  1  0.86810494  0.21962828  0.74623096  1
  O  O183  1  0.87301194  0.72136983  0.07795832  1
  O  O184  1  0.86965836  0.72187115  0.40717109  1
  O  O185  1  0.86127067  0.72726321  0.75684033  1
  O  O186  1  0.27760702  0.14518605  0.08612842  1
  O  O187  1  0.27849519  0.12873975  0.42726712  1
  O  O188  1  0.28111523  0.13126583  0.75857685  1
  O  O189  1  0.28370591  0.63074143  0.09382471  1
  O  O190  1  0.27964977  0.62918918  0.42660460  1
  O  O191  1  0.29392993  0.63181920  0.76750978  1
  O  O192  1  0.77100214  0.13797360  0.08313050  1
  O  O193  1  0.78233569  0.11952624  0.42915770  1
  O  O194  1  0.78194993  0.12912158  0.76080311  1
  O  O195  1  0.78395299  0.63351133  0.09236107  1
  O  O196  1  0.77863063  0.63605640  0.42181435  1
  O  O197  1  0.78116636  0.62853541  0.76782110  1
  O  O198  1  0.12959802  0.28941705  0.25320229  1
  O  O199  1  0.13182121  0.27243766  0.58508155  1
  O  O200  1  0.13391956  0.27945557  0.92028332  1
  O  O201  1  0.12508464  0.78037088  0.26794749  1
  O  O202  1  0.12603460  0.78004913  0.58974197  1
  O  O203  1  0.13444060  0.77121136  0.90700498  1
  O  O204  1  0.64416504  0.28648896  0.25792216  1
  O  O205  1  0.61711246  0.28308853  0.59854125  1
  O  O206  1  0.63365565  0.28104639  0.92415650  1
  O  O207  1  0.63554793  0.77928728  0.26025396  1
  O  O208  1  0.63133884  0.78137084  0.59540917  1
  O  O209  1  0.63153953  0.78211545  0.93024238  1
  O  O210  1  0.21322344  0.38020871  0.23327635  1
  O  O211  1  0.22540547  0.36335934  0.58166678  1
  O  O212  1  0.21931504  0.37119261  0.90674591  1
  O  O213  1  0.22190200  0.85719131  0.25039699  1
  O  O214  1  0.21627313  0.86719874  0.57465968  1
  O  O215  1  0.21926413  0.86920707  0.90081984  1
  O  O216  1  0.71613941  0.38311698  0.23402568  1
  O  O217  1  0.70687984  0.36354151  0.57493651  1
  O  O218  1  0.72169740  0.36979694  0.91036142  1
  O  O219  1  0.72197074  0.86718295  0.24269162  1
  O  O220  1  0.72679531  0.86784598  0.58803146  1
  O  O221  1  0.72236738  0.86631808  0.91307221  1
  O  O222  1  0.41389055  0.13645984  0.15041144  1
  O  O223  1  0.41605050  0.13566667  0.49038340  1
  O  O224  1  0.41896588  0.13212152  0.82095689  1
  O  O225  1  0.42188144  0.62686249  0.14782875  1
  O  O226  1  0.41729221  0.63678135  0.48867458  1
  O  O227  1  0.43228144  0.62805901  0.81698301  1
  O  O228  1  0.90599232  0.13850222  0.15558515  1
  O  O229  1  0.92033498  0.13293936  0.49042621  1
  O  O230  1  0.92112683  0.12537520  0.81249030  1
  O  O231  1  0.92196846  0.63122843  0.15119467  1
  O  O232  1  0.91584354  0.63712754  0.48574168  1
  O  O233  1  0.91974783  0.63154584  0.81922003  1
  O  O234  1  0.36101779  0.07484764  0.01443970  1
  O  O235  1  0.37046236  0.08631088  0.35464572  1
  O  O236  1  0.36989965  0.07801188  0.68577473  1
  O  O237  1  0.36770137  0.58144060  0.01310242  1
  O  O238  1  0.36898786  0.57644001  0.35365876  1
  O  O239  1  0.37200690  0.57722508  0.68341685  1
  O  O240  1  0.86449759  0.08207528  0.01853034  1
  O  O241  1  0.87359611  0.07001264  0.35665393  1
  O  O242  1  0.86170562  0.08278696  0.67682925  1
  O  O243  1  0.87012602  0.58323981  0.01552257  1
  O  O244  1  0.86766354  0.58493809  0.34866472  1
  O  O245  1  0.85975159  0.59186031  0.68222097  1
  O  O246  1  0.07474540  0.37675270  0.17874742  1
  O  O247  1  0.08939751  0.35747565  0.50598029  1
  O  O248  1  0.08001714  0.37375207  0.85401378  1
  O  O249  1  0.08597085  0.86145111  0.18401874  1
  O  O250  1  0.07860020  0.86833062  0.51441157  1
  O  O251  1  0.08032654  0.86634509  0.84289619  1
  O  O252  1  0.57782738  0.37006431  0.18334550  1
  O  O253  1  0.56906190  0.36875681  0.51816176  1
  O  O254  1  0.58373547  0.36843095  0.84870114  1
  O  O255  1  0.58476367  0.86419285  0.18242315  1
  O  O256  1  0.58981897  0.86882102  0.51891734  1
  O  O257  1  0.58455034  0.86723594  0.85160247  1
  O  O258  1  0.12895098  0.42755608  0.31361958  1
  O  O259  1  0.12625940  0.41124185  0.64178050  1
  O  O260  1  0.13776634  0.41627876  0.98944120  1
  O  O261  1  0.13421553  0.91886519  0.32071282  1
  O  O262  1  0.12885162  0.91854974  0.64980354  1
  O  O263  1  0.13317964  0.90625803  0.97976153  1
  O  O264  1  0.63277143  0.42277990  0.31774116  1
  O  O265  1  0.62374876  0.42184447  0.65287572  1
  O  O266  1  0.63285112  0.41933901  0.98458132  1
  O  O267  1  0.63564373  0.91721709  0.31946944  1
  O  O268  1  0.63247009  0.91944920  0.65431408  1
  O  O269  1  0.63582992  0.92028113  0.98812834  1
  O  O270  1  0.02388799  0.20673323  0.09609768  1
  O  O271  1  0.03564458  0.16894000  0.43941038  1
  O  O272  1  0.03219157  0.19999861  0.76785606  1
  O  O273  1  0.03340908  0.69754676  0.10294294  1
  O  O274  1  0.02923758  0.69788823  0.43807841  1
  O  O275  1  0.01851117  0.70069364  0.76606529  1
  O  O276  1  0.53847073  0.20204361  0.10272234  1
  O  O277  1  0.52820783  0.20241375  0.44166327  1
  O  O278  1  0.53028779  0.19811694  0.77289595  1
  O  O279  1  0.53257841  0.69784278  0.10427588  1
  O  O280  1  0.53186052  0.68394164  0.43427435  1
  O  O281  1  0.53948819  0.70514469  0.77605092  1
  O  O282  1  0.30514609  0.47128470  0.06290680  1
  O  O283  1  0.29781245  0.46777924  0.39768930  1
  O  O284  1  0.31432569  0.46349734  0.73229363  1
  O  O285  1  0.30028823  0.95438234  0.05014696  1
  O  O286  1  0.29254817  0.97440107  0.40222960  1
  O  O287  1  0.29815369  0.96798248  0.73274070  1
  O  O288  1  0.80238654  0.47475588  0.06410254  1
  O  O289  1  0.79324367  0.47496507  0.39321535  1
  O  O290  1  0.79733621  0.46428436  0.73213952  1
  O  O291  1  0.79791045  0.97002744  0.06530122  1
  O  O292  1  0.79863780  0.96118394  0.39547342  1
  O  O293  1  0.80208609  0.97216546  0.73298880  1
  O  O294  1  0.46604024  0.31706313  0.23159543  1
  O  O295  1  0.46163488  0.30107924  0.56263541  1
  O  O296  1  0.47338183  0.30250616  0.89776518  1
  O  O297  1  0.47335126  0.78940960  0.22233949  1
  O  O298  1  0.47400044  0.80823830  0.57193981  1
  O  O299  1  0.46602169  0.80031343  0.89639125  1
  O  O300  1  0.95681025  0.32140423  0.21962226  1
  O  O301  1  0.97528008  0.29493324  0.56826184  1
  O  O302  1  0.97055958  0.30074263  0.89657776  1
  O  O303  1  0.96733901  0.79990312  0.22922450  1
  O  O304  1  0.96795904  0.80478891  0.56531571  1
  O  O305  1  0.97375954  0.79861693  0.89981374  1
  O  O306  1  0.20022326  0.02709011  0.27427968  1
  O  O307  1  0.20184198  0.02670324  0.60493417  1
  O  O308  1  0.20365804  0.02739022  0.93167925  1
  O  O309  1  0.20342083  0.54022988  0.27334822  1
  O  O310  1  0.20291455  0.53271060  0.60168820  1
  O  O311  1  0.20308959  0.53262488  0.94433639  1
  O  O312  1  0.70643545  0.02809655  0.27430293  1
  O  O313  1  0.69836045  0.02736800  0.60531192  1
  O  O314  1  0.70002801  0.02757426  0.93574147  1
  O  O315  1  0.69924205  0.53927180  0.27160841  1
  O  O316  1  0.68002058  0.53259460  0.60372477  1
  O  O317  1  0.70047875  0.53030636  0.93871144  1
  O  O318  1  0.08336047  0.09655612  0.03797767  1
  O  O319  1  0.10205148  0.07719440  0.37119802  1
  O  O320  1  0.08819501  0.09012994  0.70188840  1
  O  O321  1  0.08106322  0.58208744  0.03455814  1
  O  O322  1  0.08611036  0.58864487  0.37067951  1
  O  O323  1  0.06335657  0.58309493  0.69830603  1
  O  O324  1  0.59482271  0.09469584  0.03638928  1
  O  O325  1  0.58314389  0.08799471  0.38140844  1
  O  O326  1  0.58058195  0.08372513  0.70564186  1
  O  O327  1  0.58408382  0.58454639  0.03765772  1
  O  O328  1  0.58645838  0.57876674  0.36242122  1
  O  O329  1  0.58194214  0.58790245  0.70530029  1
  O  O330  1  0.41714686  0.41813385  0.12893223  1
  O  O331  1  0.41255325  0.41875319  0.46505841  1
  O  O332  1  0.42375425  0.41426068  0.80482404  1
  O  O333  1  0.41238627  0.90971432  0.12458368  1
  O  O334  1  0.41084882  0.92774474  0.45889283  1
  O  O335  1  0.41040468  0.91706989  0.79929121  1
  O  O336  1  0.91530756  0.41856963  0.12439119  1
  O  O337  1  0.90745889  0.42553651  0.46240475  1
  O  O338  1  0.90787868  0.40897340  0.79887463  1
  O  O339  1  0.90811712  0.91138695  0.12605770  1
  O  O340  1  0.91303780  0.91332961  0.46469517  1
  O  O341  1  0.90752511  0.90923298  0.79458993  1
  O  O342  1  0.41578834  0.42227152  0.30640323  1
  O  O343  1  0.41210187  0.41324391  0.63203660  1
  O  O344  1  0.42272831  0.41640260  0.96555338  1
  O  O345  1  0.41360309  0.90141729  0.27723048  1
  O  O346  1  0.41817114  0.91792474  0.63638845  1
  O  O347  1  0.39934807  0.90442681  0.95652071  1
  O  O348  1  0.91647207  0.41994103  0.30780077  1
  O  O349  1  0.92024077  0.40686746  0.62754500  1
  O  O350  1  0.91845229  0.41355085  0.96383271  1
  O  O351  1  0.91383990  0.91047579  0.29778284  1
  O  O352  1  0.91736776  0.91815364  0.63249560  1
  O  O353  1  0.90890731  0.90404748  0.95923980  1
  O  O354  1  0.10172299  0.10214063  0.21889743  1
  O  O355  1  0.08786459  0.07747904  0.53889256  1
  O  O356  1  0.09501674  0.08879480  0.87186792  1
  O  O357  1  0.08863436  0.58748829  0.20377286  1
  O  O358  1  0.09057961  0.58637066  0.53948703  1
  O  O359  1  0.09346868  0.58768676  0.87746667  1
  O  O360  1  0.60090544  0.09292779  0.21623854  1
  O  O361  1  0.58350077  0.07839844  0.54038921  1
  O  O362  1  0.59113563  0.08629220  0.87009305  1
  O  O363  1  0.58796819  0.58715693  0.19853431  1
  O  O364  1  0.57486964  0.58898497  0.53561194  1
  O  O365  1  0.58649299  0.58081639  0.87208621  1
  O  O366  1  0.13429915  0.23075067  0.05712173  1
  O  O367  1  0.12855484  0.21678865  0.39001756  1
  O  O368  1  0.14242895  0.22505065  0.72747297  1
  O  O369  1  0.14129143  0.71406840  0.05586772  1
  O  O370  1  0.13831871  0.72353190  0.39721064  1
  O  O371  1  0.13014341  0.71342375  0.72397627  1
  O  O372  1  0.64080717  0.22956731  0.05470301  1
  O  O373  1  0.63009541  0.21890116  0.38861082  1
  O  O374  1  0.63808380  0.21634271  0.72757852  1
  O  O375  1  0.63933974  0.71737884  0.05721467  1
  O  O376  1  0.63459339  0.71593574  0.38748380  1
  O  O377  1  0.64293183  0.71849287  0.72385876  1
  O  O378  1  0.28361365  0.36167840  0.10545716  1
  O  O379  1  0.28011698  0.36310863  0.44731032  1
  O  O380  1  0.28911624  0.35886259  0.78015615  1
  O  O381  1  0.27879225  0.86612723  0.11337943  1
  O  O382  1  0.28420870  0.86518678  0.44892615  1
  O  O383  1  0.27850031  0.85630994  0.77423434  1
  O  O384  1  0.78186671  0.36439801  0.10533008  1
  O  O385  1  0.77455069  0.36676033  0.43748030  1
  O  O386  1  0.77391940  0.35781683  0.77689839  1
  O  O387  1  0.77434684  0.86044754  0.10728488  1
  O  O388  1  0.78010269  0.85993992  0.44847349  1
  O  O389  1  0.77202526  0.86220597  0.77182412  1
  O  O390  1  0.35684512  0.28712687  0.27240028  1
  O  O391  1  0.35874475  0.27898659  0.61249467  1
  O  O392  1  0.36374853  0.28378238  0.94103279  1
  O  O393  1  0.36869142  0.77063830  0.27041417  1
  O  O394  1  0.36407715  0.78382006  0.61347196  1
  O  O395  1  0.35764695  0.76862699  0.93669168  1
  O  O396  1  0.84924528  0.28716912  0.25979256  1
  O  O397  1  0.87013153  0.27468821  0.61648680  1
  O  O398  1  0.86148962  0.28005166  0.94000666  1
  O  O399  1  0.86169546  0.77614093  0.27485209  1
  O  O400  1  0.86575500  0.78451525  0.61759420  1
  O  O401  1  0.86467700  0.76965501  0.94076597  1
  O  O402  1  0.23788164  0.13928028  0.24305199  1
  O  O403  1  0.22108505  0.13592241  0.56169843  1
  O  O404  1  0.22875980  0.13600580  0.88902828  1
  O  O405  1  0.22105496  0.64534416  0.22387325  1
  O  O406  1  0.22149220  0.63603275  0.55022585  1
  O  O407  1  0.22687917  0.63897016  0.89843891  1
  O  O408  1  0.73539680  0.13800170  0.23504796  1
  O  O409  1  0.71488054  0.13848606  0.56306067  1
  O  O410  1  0.72586722  0.13618043  0.89299536  1
  O  O411  1  0.72195665  0.64275046  0.22241501  1
  O  O412  1  0.71140049  0.63535124  0.55614996  1
  O  O413  1  0.71882247  0.63951677  0.89472975  1
  O  O414  1  0.49496323  0.33308539  0.03121581  1
  O  O415  1  0.48848734  0.33240276  0.36245175  1
  O  O416  1  0.49072489  0.33272754  0.69713218  1
  O  O417  1  0.48548228  0.83015183  0.02731023  1
  O  O418  1  0.49730347  0.83509858  0.35708561  1
  O  O419  1  0.49313709  0.83967652  0.70524416  1
  O  O420  1  0.99153791  0.33275017  0.03067854  1
  O  O421  1  0.98237151  0.31418335  0.34460188  1
  O  O422  1  0.99846916  0.33322027  0.70268636  1
  O  O423  1  0.99223293  0.83145789  0.03206685  1
  O  O424  1  0.99226997  0.83068449  0.36314829  1
  O  O425  1  0.99652432  0.84254467  0.70108763  1
  O  O426  1  0.17200776  0.01745574  0.14515907  1
  O  O427  1  0.17059271  0.00554230  0.47115637  1
  O  O428  1  0.16496237  0.00728542  0.79827279  1
  O  O429  1  0.16986694  0.51252349  0.13866063  1
  O  O430  1  0.16348467  0.50457348  0.46699356  1
  O  O431  1  0.17348503  0.50778791  0.81106231  1
  O  O432  1  0.67371562  0.01207900  0.14170460  1
  O  O433  1  0.66721774  0.00724469  0.47290966  1
  O  O434  1  0.66865860  0.00657693  0.80308872  1
  O  O435  1  0.67138778  0.51008406  0.13725196  1
  O  O436  1  0.65111996  0.50602283  0.46974072  1
  O  O437  1  0.66863946  0.50848917  0.80489209  1
  O  O438  1  0.00223728  0.14066540  0.30622458  1
  O  O439  1  0.01341408  0.17015476  0.63470082  1
  O  O440  1  0.00755894  0.17265112  0.96376049  1
  O  O441  1  0.00855317  0.66871915  0.30546587  1
  O  O442  1  0.00001751  0.67289227  0.63413519  1
  O  O443  1  0.00908516  0.66476256  0.96847942  1
  O  O444  1  0.49839362  0.15630502  0.30651636  1
  O  O445  1  0.50661464  0.16652771  0.63950615  1
  O  O446  1  0.51134609  0.16965979  0.96832905  1
  O  O447  1  0.50515071  0.65886052  0.30066928  1
  O  O448  1  0.50877504  0.67303580  0.64113438  1
  O  O449  1  0.50805253  0.66418416  0.97006093  1
  O  O450  1  0.33555504  0.49192374  0.19621053  1
  O  O451  1  0.33315411  0.49488646  0.53276909  1
  O  O452  1  0.34055665  0.49087221  0.86596713  1
  O  O453  1  0.34103751  1.00193301  0.18632587  1
  O  O454  1  0.33579064  0.99520877  0.53707613  1
  O  O455  1  0.32581644  0.98724190  0.86556229  1
  O  O456  1  0.83881514  0.49265531  0.19777951  1
  O  O457  1  0.82105899  0.49800382  0.52569811  1
  O  O458  1  0.83090652  0.48877240  0.86605598  1
  O  O459  1  0.83375409  0.98931705  0.19828107  1
  O  O460  1  0.83450439  0.99240195  0.53071407  1
  O  O461  1  0.83133278  0.98923409  0.86490569  1
