# generated using pymatgen
data_Na31Fe20(SO4)36
_symmetry_space_group_name_H-M   'P 1'
_cell_length_a   18.06786850
_cell_length_b   18.07627953
_cell_length_c   19.70404805
_cell_angle_alpha   107.60730043
_cell_angle_beta   107.57256606
_cell_angle_gamma   90.70688821
_symmetry_Int_Tables_number   1
_chemical_formula_structural   Na31Fe20(SO4)36
_chemical_formula_sum   'Na62 Fe40 S72 O288'
_cell_volume   5809.44545130
_cell_formula_units_Z   2
loop_
 _symmetry_equiv_pos_site_id
 _symmetry_equiv_pos_as_xyz
  1  'x, y, z'
loop_
 _atom_site_type_symbol
 _atom_site_label
 _atom_site_symmetry_multiplicity
 _atom_site_fract_x
 _atom_site_fract_y
 _atom_site_fract_z
 _atom_site_occupancy
  Na  Na0  1  0.13851392  0.36724994  0.09036137  1
  Na  Na1  1  0.13961429  0.36053660  0.41597783  1
  Na  Na2  1  0.14046224  0.36470218  0.75647661  1
  Na  Na3  1  0.14036075  0.87088357  0.08914626  1
  Na  Na4  1  0.13371685  0.85852220  0.40665005  1
  Na  Na5  1  0.14167653  0.86197019  0.75665268  1
  Na  Na6  1  0.62001022  0.37222220  0.08642046  1
  Na  Na7  1  0.61024177  0.36856966  0.40374399  1
  Na  Na8  1  0.63745470  0.35894388  0.74932291  1
  Na  Na9  1  0.63470971  0.86497621  0.08304852  1
  Na  Na10  1  0.62685222  0.87157394  0.40447439  1
  Na  Na11  1  0.63368275  0.87029882  0.75553253  1
  Na  Na12  1  0.36939059  0.13447461  0.24152326  1
  Na  Na13  1  0.36375790  0.14019520  0.58506541  1
  Na  Na14  1  0.38160265  0.13519707  0.93258832  1
  Na  Na15  1  0.37656891  0.62253834  0.24877792  1
  Na  Na16  1  0.36817727  0.62690828  0.57824059  1
  Na  Na17  1  0.34995322  0.63294909  0.90309474  1
  Na  Na18  1  0.86578615  0.13152749  0.25088621  1
  Na  Na19  1  0.86307420  0.12840439  0.57335130  1
  Na  Na20  1  0.86884701  0.13359584  0.91966357  1
  Na  Na21  1  0.86411140  0.63615137  0.24984622  1
  Na  Na22  1  0.86657828  0.63281355  0.58302630  1
  Na  Na23  1  0.86526693  0.64341613  0.92387481  1
  Na  Na24  1  0.47945698  0.00681673  0.76875191  1
  Na  Na25  1  1.00321857  0.00376390  0.10078552  1
  Na  Na26  1  0.98935319  0.51449489  0.07670392  1
  Na  Na27  1  0.55132346  0.01416067  0.28399639  1
  Na  Na28  1  0.99472019  0.50662719  0.40986948  1
  Na  Na29  1  0.99438540  0.01251344  0.39631245  1
  Na  Na30  1  0.98610532  0.50790980  0.74365918  1
  Na  Na31  1  0.99464792  0.00885331  0.75424145  1
  Na  Na32  1  0.50734126  0.47619349  0.76814889  1
  Na  Na33  1  0.50596280  1.06852601  1.09613962  1
  Na  Na34  1  0.01801513  0.48774972  0.58112212  1
  Na  Na35  1  0.02167218  0.48602159  0.91438088  1
  Na  Na36  1  0.47881988  0.42703892  0.22336687  1
  Na  Na37  1  0.04820727  0.99368663  0.93792835  1
  Na  Na38  1  0.02889608  0.49526374  0.24658442  1
  Na  Na39  1  0.50642225  0.99705156  0.56517872  1
  Na  Na40  1  0.01386581  0.99103278  0.58070079  1
  Na  Na41  1  0.44683511  0.51246148  0.99109706  1
  Na  Na42  1  0.25271678  0.74871507  -0.00487085  1
  Na  Na43  1  0.74744063  0.24278142  0.67001035  1
  Na  Na44  1  0.28439124  0.27506333  -0.00238820  1
  Na  Na45  1  0.24401102  0.73969597  0.67321031  1
  Na  Na46  1  0.74623049  0.25413667  0.00528149  1
  Na  Na47  1  0.25498720  0.25287342  0.32999467  1
  Na  Na48  1  0.26908778  0.26777020  0.65591872  1
  Na  Na49  1  0.73342920  0.74144705  0.33402849  1
  Na  Na50  1  0.74113943  0.74458525  0.67421019  1
  Na  Na51  1  0.72978041  0.23496521  0.34049874  1
  Na  Na52  1  0.26151716  0.75880914  0.48814206  1
  Na  Na53  1  0.73829873  0.74201688  0.84923157  1
  Na  Na54  1  0.72815271  0.22468575  0.49687706  1
  Na  Na55  1  0.73152123  0.23993277  0.17457640  1
  Na  Na56  1  0.26471424  0.25842506  0.15678550  1
  Na  Na57  1  0.25053607  0.74739495  0.17527245  1
  Na  Na58  1  0.74315769  0.74426356  0.50250712  1
  Na  Na59  1  0.73938276  0.74550448  0.16317749  1
  Na  Na60  1  0.74385349  0.24268894  0.83905444  1
  Na  Na61  1  0.28273276  0.28007154  0.83133367  1
  Fe  Fe62  1  0.46192471  0.80472409  0.44604841  1
  Fe  Fe63  1  0.96674178  0.30365618  0.78469780  1
  Fe  Fe64  1  0.96595541  0.80293573  0.44915561  1
  Fe  Fe65  1  0.96267998  0.30949725  0.11840634  1
  Fe  Fe66  1  0.96736744  0.30509208  0.44859455  1
  Fe  Fe67  1  0.46117196  0.30875301  0.45782327  1
  Fe  Fe68  1  0.46650524  0.80244269  0.12723546  1
  Fe  Fe69  1  0.96672071  0.80766646  0.78581595  1
  Fe  Fe70  1  0.46217331  0.81117390  0.79281107  1
  Fe  Fe71  1  0.96124015  0.81157863  0.11916662  1
  Fe  Fe72  1  0.20852307  0.52977798  0.37697244  1
  Fe  Fe73  1  0.19899611  0.53267950  0.04585190  1
  Fe  Fe74  1  0.68870516  0.53422359  0.70946290  1
  Fe  Fe75  1  0.69572269  0.03219497  0.71254811  1
  Fe  Fe76  1  0.19158826  0.03909134  0.38111561  1
  Fe  Fe77  1  0.19386417  0.53751945  0.71889524  1
  Fe  Fe78  1  0.19384205  0.03452048  0.71903358  1
  Fe  Fe79  1  0.68377757  0.53774908  0.04444183  1
  Fe  Fe80  1  0.69287899  0.03319117  0.04526047  1
  Fe  Fe81  1  0.68670236  0.53682992  0.37261793  1
  Fe  Fe82  1  0.03449194  0.69629432  0.21485255  1
  Fe  Fe83  1  0.53546497  0.18841864  0.54472405  1
  Fe  Fe84  1  0.53171691  0.20292900  0.87357829  1
  Fe  Fe85  1  0.03875706  0.19329766  0.54936402  1
  Fe  Fe86  1  0.03633175  0.69100532  0.54749233  1
  Fe  Fe87  1  0.03386298  0.69412568  0.88114726  1
  Fe  Fe88  1  0.03613869  0.19303669  0.21723382  1
  Fe  Fe89  1  0.03833006  0.19063287  0.88868855  1
  Fe  Fe90  1  0.53271792  0.69398605  0.88138959  1
  Fe  Fe91  1  0.53391327  0.68850860  0.54173720  1
  Fe  Fe92  1  0.30735304  0.96926766  0.28722513  1
  Fe  Fe93  1  0.80649434  0.96318326  0.61395958  1
  Fe  Fe94  1  0.30536812  0.96432598  0.61803790  1
  Fe  Fe95  1  0.80654180  0.46793175  0.95050156  1
  Fe  Fe96  1  0.31287358  0.46204372  0.62231248  1
  Fe  Fe97  1  0.80506501  0.46197656  0.61254334  1
  Fe  Fe98  1  0.80807562  0.46486921  0.28104380  1
  Fe  Fe99  1  0.80729271  0.96365119  0.95143943  1
  Fe  Fe100  1  0.80151022  0.96515325  0.28435445  1
  Fe  Fe101  1  0.30287789  0.96541800  0.96136976  1
  S  S102  1  0.35433566  0.13566574  0.08098476  1
  S  S103  1  0.35799062  0.14150110  0.42048201  1
  S  S104  1  0.35684283  0.13781627  0.74898381  1
  S  S105  1  0.35241623  0.64503220  0.08052189  1
  S  S106  1  0.35982893  0.64552238  0.42015633  1
  S  S107  1  0.35902943  0.64205190  0.74805643  1
  S  S108  1  0.85991200  0.13903445  0.08349950  1
  S  S109  1  0.86571345  0.13899993  0.41607492  1
  S  S110  1  0.86479771  0.13717127  0.75027594  1
  S  S111  1  0.85927062  0.64126745  0.08148508  1
  S  S112  1  0.86169434  0.63812423  0.41588126  1
  S  S113  1  0.85956286  0.63994024  0.74845559  1
  S  S114  1  0.13820479  0.36126323  0.24947981  1
  S  S115  1  0.13864485  0.36201050  0.58583582  1
  S  S116  1  0.13768906  0.35666814  0.91855731  1
  S  S117  1  0.13570711  0.86420377  0.25078691  1
  S  S118  1  0.13996337  0.85859580  0.58356589  1
  S  S119  1  0.14101489  0.85580348  0.91637265  1
  S  S120  1  0.64663297  0.36146702  0.25017535  1
  S  S121  1  0.64235163  0.35838086  0.58250062  1
  S  S122  1  0.64549170  0.36369828  0.91381462  1
  S  S123  1  0.64010039  0.85753968  0.24432550  1
  S  S124  1  0.63986750  0.85851996  0.58276231  1
  S  S125  1  0.63832515  0.86050189  0.91528012  1
  S  S126  1  0.06030248  0.16968039  0.04861883  1
  S  S127  1  0.06880472  0.17218278  0.37665053  1
  S  S128  1  0.06831186  0.16826939  0.71052569  1
  S  S129  1  0.06520198  0.67170427  0.04191841  1
  S  S130  1  0.06632175  0.66727593  0.37586195  1
  S  S131  1  0.06449126  0.66755157  0.70692240  1
  S  S132  1  0.57825417  0.17299574  0.03435364  1
  S  S133  1  0.56497841  0.17552630  0.38502972  1
  S  S134  1  0.56979675  0.16295905  0.70624345  1
  S  S135  1  0.55974182  0.67155113  0.03980135  1
  S  S136  1  0.56784874  0.67652337  0.37757269  1
  S  S137  1  0.56987751  0.67546456  0.71218970  1
  S  S138  1  0.32326985  0.43441013  0.11884249  1
  S  S139  1  0.32680948  0.42876651  0.45976457  1
  S  S140  1  0.32755219  0.44036136  0.78664356  1
  S  S141  1  0.32891253  0.92409299  0.12448757  1
  S  S142  1  0.32660136  0.93379888  0.45876970  1
  S  S143  1  0.32427818  0.92890614  0.79224119  1
  S  S144  1  0.84039135  0.43883907  0.12491336  1
  S  S145  1  0.83894996  0.43182678  0.45687318  1
  S  S146  1  0.83402353  0.43371529  0.78905948  1
  S  S147  1  0.82930716  0.93222648  0.12152852  1
  S  S148  1  0.83703641  0.92696623  0.45746702  1
  S  S149  1  0.83572098  0.93341350  0.79100880  1
  S  S150  1  0.42520120  0.32862021  0.29622243  1
  S  S151  1  0.44066867  0.33082288  0.62718363  1
  S  S152  1  0.43525345  0.32388495  0.94749652  1
  S  S153  1  0.43182568  0.83534274  0.29153309  1
  S  S154  1  0.43393203  0.83362967  0.62809793  1
  S  S155  1  0.42189936  0.82452688  0.95863981  1
  S  S156  1  0.93212448  0.33107960  0.28914539  1
  S  S157  1  0.93097383  0.32790693  0.62217251  1
  S  S158  1  0.93230714  0.33176145  0.95679484  1
  S  S159  1  0.92825761  0.82862330  0.28816123  1
  S  S160  1  0.93490481  0.83028260  0.62361565  1
  S  S161  1  0.93440136  0.83362657  0.95644620  1
  S  S162  1  0.16845102  0.06731101  0.21223848  1
  S  S163  1  0.16642272  0.06560231  0.54373430  1
  S  S164  1  0.16858676  0.06295642  0.87732535  1
  S  S165  1  0.16380241  0.57257825  0.20446010  1
  S  S166  1  0.16665104  0.56483517  0.54010094  1
  S  S167  1  0.15619938  0.56345082  0.87303703  1
  S  S168  1  0.67326823  0.06725353  0.21032870  1
  S  S169  1  0.67342619  0.06236901  0.54461048  1
  S  S170  1  0.67417874  0.07047943  0.87470637  1
  S  S171  1  0.67368246  0.56930515  0.20986298  1
  S  S172  1  0.67635879  0.57009483  0.54414291  1
  S  S173  1  0.67173089  0.56825346  0.87422919  1
  O  O174  1  0.36476427  0.20590556  0.06067429  1
  O  O175  1  0.36750628  0.22336277  0.41685605  1
  O  O176  1  0.36114213  0.21391187  0.73839570  1
  O  O177  1  0.36566824  0.73171678  0.08730515  1
  O  O178  1  0.36476535  0.73045585  0.42517090  1
  O  O179  1  0.37042156  0.72188831  0.74183524  1
  O  O180  1  0.86830527  0.21692318  0.07281633  1
  O  O181  1  0.87722037  0.21491007  0.40173230  1
  O  O182  1  0.87299000  0.21569086  0.74030514  1
  O  O183  1  0.87025598  0.71810973  0.07120702  1
  O  O184  1  0.86947082  0.71586887  0.40497467  1
  O  O185  1  0.87018112  0.71754168  0.73778512  1
  O  O186  1  0.27782778  0.12601380  0.09018349  1
  O  O187  1  0.28088744  0.13173162  0.43132365  1
  O  O188  1  0.28117134  0.12523846  0.76289399  1
  O  O189  1  0.26696947  0.63689980  0.07796456  1
  O  O190  1  0.28230085  0.63122203  0.43217607  1
  O  O191  1  0.27995829  0.63493776  0.75642168  1
  O  O192  1  0.78229239  0.13130136  0.09401300  1
  O  O193  1  0.78976175  0.13385210  0.42700289  1
  O  O194  1  0.78656604  0.12992128  0.75999679  1
  O  O195  1  0.77983960  0.63095380  0.08725031  1
  O  O196  1  0.78256567  0.62894222  0.42325193  1
  O  O197  1  0.77883622  0.63173079  0.75258593  1
  O  O198  1  0.12418451  0.28570941  0.26313703  1
  O  O199  1  0.12775799  0.28471825  0.59735239  1
  O  O200  1  0.12382119  0.28069393  0.93144916  1
  O  O201  1  0.12492641  0.78677989  0.26151319  1
  O  O202  1  0.13029883  0.78008670  0.59257298  1
  O  O203  1  0.13256626  0.77333753  0.91645275  1
  O  O204  1  0.64357134  0.28407728  0.25856890  1
  O  O205  1  0.63548268  0.27887380  0.59085017  1
  O  O206  1  0.63577177  0.28014640  0.91295681  1
  O  O207  1  0.63776529  0.78029515  0.25301092  1
  O  O208  1  0.63241580  0.77783194  0.58754568  1
  O  O209  1  0.63027870  0.77923205  0.91736100  1
  O  O210  1  0.21159561  0.36453072  0.23444605  1
  O  O211  1  0.21783383  0.36923567  0.58026650  1
  O  O212  1  0.21352898  0.36086359  0.90780035  1
  O  O213  1  0.21408832  0.87205852  0.24164997  1
  O  O214  1  0.22007097  0.86786897  0.57843265  1
  O  O215  1  0.22040061  0.86915487  0.90998518  1
  O  O216  1  0.72405650  0.37387086  0.23621513  1
  O  O217  1  0.71961841  0.36634437  0.56987455  1
  O  O218  1  0.72737918  0.37096473  0.90775571  1
  O  O219  1  0.71515109  0.87131333  0.22821157  1
  O  O220  1  0.71858827  0.86833471  0.57340228  1
  O  O221  1  0.71546572  0.87173556  0.90262520  1
  O  O222  1  0.41767660  0.12920521  0.14554214  1
  O  O223  1  0.41905565  0.13071215  0.48605434  1
  O  O224  1  0.42184503  0.12882171  0.81395996  1
  O  O225  1  0.40364624  0.62872471  0.14497623  1
  O  O226  1  0.42067542  0.63574089  0.48749916  1
  O  O227  1  0.41868948  0.63251557  0.81473437  1
  O  O228  1  0.92059505  0.13046830  0.15043882  1
  O  O229  1  0.92801819  0.13312901  0.48467562  1
  O  O230  1  0.92466452  0.12952305  0.81843529  1
  O  O231  1  0.91795125  0.63372462  0.15056118  1
  O  O232  1  0.92013974  0.63309253  0.48594350  1
  O  O233  1  0.91603223  0.63474900  0.81918509  1
  O  O234  1  0.36252322  0.06708018  0.01173571  1
  O  O235  1  0.36268887  0.08650731  0.34937007  1
  O  O236  1  0.36259969  0.07590907  0.68014309  1
  O  O237  1  0.35935469  0.59834898  0.00823700  1
  O  O238  1  0.36483446  0.59480774  0.35026089  1
  O  O239  1  0.36458210  0.58445963  0.67841094  1
  O  O240  1  0.86596403  0.07871895  0.01488939  1
  O  O241  1  0.87483839  0.07556540  0.35058078  1
  O  O242  1  0.87335628  0.07715378  0.68296480  1
  O  O243  1  0.87064519  0.57988691  0.01509501  1
  O  O244  1  0.87430133  0.57782037  0.35084952  1
  O  O245  1  0.87182755  0.57825181  0.68366032  1
  O  O246  1  0.07332372  0.37259694  0.18523015  1
  O  O247  1  0.08021036  0.36842956  0.51582732  1
  O  O248  1  0.07587241  0.36412696  0.84963856  1
  O  O249  1  0.07594450  0.86952491  0.18155063  1
  O  O250  1  0.08250987  0.86511580  0.51372929  1
  O  O251  1  0.08246751  0.86581554  0.84754783  1
  O  O252  1  0.58416526  0.37329012  0.18863592  1
  O  O253  1  0.58024514  0.36828825  0.51794419  1
  O  O254  1  0.58995680  0.37966321  0.85090344  1
  O  O255  1  0.57626303  0.86048035  0.17398335  1
  O  O256  1  0.57897090  0.87123286  0.51866990  1
  O  O257  1  0.57666365  0.87245879  0.85066370  1
  O  O258  1  0.13457291  0.42433114  0.31868918  1
  O  O259  1  0.12551827  0.42324559  0.65056381  1
  O  O260  1  0.12772549  0.41987104  0.98417203  1
  O  O261  1  0.12808282  0.92496200  0.31820839  1
  O  O262  1  0.12856137  0.91855241  0.64967985  1
  O  O263  1  0.12955838  0.90945649  0.98359349  1
  O  O264  1  0.64651451  0.42104494  0.32334126  1
  O  O265  1  0.64090260  0.41654545  0.65389396  1
  O  O266  1  0.64442010  0.41581605  0.98817385  1
  O  O267  1  0.63234367  0.91910845  0.30916550  1
  O  O268  1  0.63612170  0.91453150  0.65438237  1
  O  O269  1  0.63548220  0.91588266  0.98662888  1
  O  O270  1  0.02596010  0.21040643  0.11017504  1
  O  O271  1  0.03810879  0.20668573  0.44193234  1
  O  O272  1  0.03326864  0.19757073  0.77264256  1
  O  O273  1  0.02912852  0.70116692  0.10309362  1
  O  O274  1  0.02868605  0.69823873  0.43681088  1
  O  O275  1  0.02823053  0.69846311  0.76771621  1
  O  O276  1  0.54478117  0.19348790  0.09461547  1
  O  O277  1  0.52625368  0.21306786  0.44668463  1
  O  O278  1  0.53625775  0.18844527  0.76748095  1
  O  O279  1  0.51897269  0.70152553  0.09628481  1
  O  O280  1  0.53150004  0.70763246  0.44094692  1
  O  O281  1  0.53073650  0.70355545  0.77121042  1
  O  O282  1  0.28877025  0.47548394  0.06029199  1
  O  O283  1  0.30559108  0.46829970  0.40255726  1
  O  O284  1  0.29065765  0.47559555  0.72236146  1
  O  O285  1  0.30721920  0.95569739  0.06059074  1
  O  O286  1  0.29741490  0.96883629  0.39698426  1
  O  O287  1  0.29710447  0.96859467  0.73310232  1
  O  O288  1  0.80750970  0.47255925  0.06314601  1
  O  O289  1  0.81043913  0.46773803  0.39654199  1
  O  O290  1  0.80334719  0.46815532  0.72706426  1
  O  O291  1  0.79713152  0.96900838  0.05995195  1
  O  O292  1  0.81183714  0.95779427  0.39474271  1
  O  O293  1  0.80492265  0.96755413  0.72848548  1
  O  O294  1  0.46650212  0.30272707  0.24160574  1
  O  O295  1  0.47201324  0.29896970  0.56035826  1
  O  O296  1  0.47448723  0.29387533  0.88688726  1
  O  O297  1  0.47224905  0.81287721  0.23348370  1
  O  O298  1  0.47383868  0.80620537  0.57039961  1
  O  O299  1  0.46502203  0.80049160  0.90157506  1
  O  O300  1  0.96359307  0.29631794  0.22565592  1
  O  O301  1  0.96589192  0.29833110  0.56046497  1
  O  O302  1  0.96346168  0.29673464  0.89312298  1
  O  O303  1  0.96295569  0.79817273  0.22582684  1
  O  O304  1  0.96985828  0.79838338  0.56195055  1
  O  O305  1  0.97111689  0.80225820  0.89525430  1
  O  O306  1  0.20275369  0.03484397  0.27711172  1
  O  O307  1  0.19459001  0.02676750  0.60321965  1
  O  O308  1  0.19821439  0.02205318  0.93352813  1
  O  O309  1  0.18528966  0.53804220  0.26547721  1
  O  O310  1  0.19405638  0.53017329  0.60203913  1
  O  O311  1  0.17483308  0.52788193  0.93342747  1
  O  O312  1  0.70902604  0.03134235  0.26917015  1
  O  O313  1  0.70708622  0.03063206  0.61101416  1
  O  O314  1  0.70178811  0.03298199  0.93474100  1
  O  O315  1  0.71235743  0.53370962  0.27201592  1
  O  O316  1  0.70602382  0.53033849  0.60373712  1
  O  O317  1  0.70064212  0.53307648  0.93670525  1
  O  O318  1  0.06475883  0.08836699  0.04775995  1
  O  O319  1  0.08434045  0.09078912  0.37546376  1
  O  O320  1  0.08240486  0.08440874  0.70329987  1
  O  O321  1  0.08170442  0.58890566  0.03551467  1
  O  O322  1  0.08195370  0.58546298  0.37180050  1
  O  O323  1  0.08055086  0.58493433  0.70292539  1
  O  O324  1  0.59708594  0.08961727  0.02024562  1
  O  O325  1  0.60217635  0.10973908  0.40429167  1
  O  O326  1  0.58609824  0.07925469  0.69431385  1
  O  O327  1  0.57945002  0.59078256  0.03901865  1
  O  O328  1  0.59506429  0.60023429  0.38306000  1
  O  O329  1  0.59247860  0.59623902  0.71029248  1
  O  O330  1  0.39555781  0.40742593  0.10644320  1
  O  O331  1  0.40765829  0.40486482  0.46963618  1
  O  O332  1  0.40444447  0.42119032  0.78278567  1
  O  O333  1  0.41009041  0.90102473  0.13628594  1
  O  O334  1  0.40625001  0.91027452  0.46274509  1
  O  O335  1  0.40766590  0.91626625  0.80016952  1
  O  O336  1  0.92450986  0.42606245  0.12964583  1
  O  O337  1  0.92367113  0.41812186  0.46453570  1
  O  O338  1  0.91725564  0.41824748  0.79490228  1
  O  O339  1  0.91116896  0.91690399  0.12226655  1
  O  O340  1  0.92145501  0.90990507  0.46948201  1
  O  O341  1  0.91892791  0.91868892  0.79656123  1
  O  O342  1  0.41137823  0.41016510  0.30998844  1
  O  O343  1  0.41704432  0.41019822  0.62924766  1
  O  O344  1  0.39634128  0.39053498  0.93223198  1
  O  O345  1  0.40905617  0.91572476  0.29915766  1
  O  O346  1  0.41587576  0.91635809  0.63396432  1
  O  O347  1  0.39948914  0.90468425  0.96215038  1
  O  O348  1  0.91826506  0.41390809  0.29259832  1
  O  O349  1  0.91492212  0.41090953  0.62800679  1
  O  O350  1  0.91752028  0.41429937  0.95947473  1
  O  O351  1  0.90987168  0.90966209  0.29372300  1
  O  O352  1  0.92059912  0.91349392  0.62981511  1
  O  O353  1  0.91978522  0.91638644  0.96196186  1
  O  O354  1  0.08943742  0.09167477  0.21571746  1
  O  O355  1  0.08225306  0.07955847  0.53662463  1
  O  O356  1  0.08595946  0.08027168  0.87720476  1
  O  O357  1  0.07783341  0.58745951  0.19245677  1
  O  O358  1  0.08177450  0.57954126  0.53271462  1
  O  O359  1  0.07151827  0.58171575  0.86035920  1
  O  O360  1  0.59429036  0.08320235  0.21196072  1
  O  O361  1  0.59446069  0.08489117  0.54649298  1
  O  O362  1  0.59332586  0.09064735  0.86466640  1
  O  O363  1  0.59635443  0.58478165  0.21124551  1
  O  O364  1  0.59853093  0.59234753  0.54456828  1
  O  O365  1  0.59136039  0.58918677  0.86896145  1
  O  O366  1  0.13431358  0.21420331  0.06170934  1
  O  O367  1  0.13885376  0.22006394  0.38541321  1
  O  O368  1  0.14020252  0.21770342  0.72557941  1
  O  O369  1  0.13551763  0.72362198  0.05694805  1
  O  O370  1  0.13686813  0.71913690  0.39255261  1
  O  O371  1  0.13487854  0.71747172  0.71975275  1
  O  O372  1  0.64981541  0.22667716  0.05129335  1
  O  O373  1  0.62649772  0.23694668  0.39370143  1
  O  O374  1  0.64285855  0.21413695  0.72315066  1
  O  O375  1  0.63068939  0.72345690  0.05573723  1
  O  O376  1  0.63794515  0.73304596  0.39605182  1
  O  O377  1  0.64072731  0.73096356  0.73141956  1
  O  O378  1  0.26540591  0.36529581  0.10119226  1
  O  O379  1  0.27094945  0.35981830  0.44086621  1
  O  O380  1  0.27324875  0.36856664  0.76766209  1
  O  O381  1  0.27217128  0.85620435  0.10810846  1
  O  O382  1  0.27101914  0.86779146  0.44775912  1
  O  O383  1  0.27435451  0.85538130  0.76994759  1
  O  O384  1  0.79529278  0.36490826  0.11186498  1
  O  O385  1  0.79169194  0.35918928  0.44327621  1
  O  O386  1  0.78525935  0.36067812  0.77438469  1
  O  O387  1  0.78038433  0.86038194  0.10633071  1
  O  O388  1  0.78661685  0.85644617  0.44623573  1
  O  O389  1  0.78650278  0.86095147  0.77627964  1
  O  O390  1  0.35312193  0.27425607  0.27715732  1
  O  O391  1  0.37338422  0.27615832  0.61459551  1
  O  O392  1  0.37323954  0.26013357  0.93351962  1
  O  O393  1  0.36461074  0.77826316  0.27387523  1
  O  O394  1  0.36190150  0.78154464  0.60962599  1
  O  O395  1  0.35357420  0.76850167  0.93897972  1
  O  O396  1  0.86084370  0.28326107  0.27884465  1
  O  O397  1  0.85942778  0.27748555  0.60780243  1
  O  O398  1  0.86042518  0.28335767  0.94556844  1
  O  O399  1  0.85827688  0.77620925  0.27435578  1
  O  O400  1  0.86220892  0.78141451  0.60888398  1
  O  O401  1  0.86220488  0.78349868  0.93923193  1
  O  O402  1  0.22092275  0.13585325  0.22347829  1
  O  O403  1  0.21560797  0.13858503  0.56282771  1
  O  O404  1  0.21776927  0.13388432  0.89094577  1
  O  O405  1  0.21288165  0.64389896  0.21904226  1
  O  O406  1  0.21480179  0.63868819  0.55727318  1
  O  O407  1  0.20846422  0.63349491  0.88951186  1
  O  O408  1  0.72482869  0.13920023  0.22437890  1
  O  O409  1  0.72712902  0.13363113  0.56140649  1
  O  O410  1  0.72935832  0.14068653  0.89275744  1
  O  O411  1  0.72762276  0.63982315  0.22420171  1
  O  O412  1  0.73238714  0.64058659  0.56378341  1
  O  O413  1  0.72690541  0.63560992  0.88787192  1
  O  O414  1  0.49445883  0.34274861  0.02088926  1
  O  O415  1  0.48091245  0.32135656  0.37168420  1
  O  O416  1  0.50589801  0.33852361  0.69520026  1
  O  O417  1  0.48017422  0.82810025  0.03277134  1
  O  O418  1  0.49165869  0.83800616  0.36467382  1
  O  O419  1  0.49015879  0.83762030  0.70316874  1
  O  O420  1  0.99304645  0.33553952  0.02873332  1
  O  O421  1  0.99468465  0.33592579  0.36112548  1
  O  O422  1  0.99134829  0.33086022  0.69466498  1
  O  O423  1  0.99278219  0.83467583  0.02896121  1
  O  O424  1  0.99026882  0.83093548  0.35973361  1
  O  O425  1  0.99442915  0.83140075  0.69586198  1
  O  O426  1  0.15548260  0.00382709  0.14182141  1
  O  O427  1  0.16535753  0.00847410  0.47043112  1
  O  O428  1  0.15711731  0.00497684  0.80005603  1
  O  O429  1  0.16273682  0.51210184  0.13163701  1
  O  O430  1  0.16577361  0.50717547  0.46775553  1
  O  O431  1  0.15565164  0.50377412  0.80081426  1
  O  O432  1  0.66699943  0.01068197  0.13385518  1
  O  O433  1  0.67037737  0.00084742  0.47677836  1
  O  O434  1  0.67502545  0.01011925  0.80309738  1
  O  O435  1  0.67456768  0.51003965  0.13715075  1
  O  O436  1  0.67457538  0.51276917  0.47157277  1
  O  O437  1  0.66680454  0.50595304  0.80172754  1
  O  O438  1  0.00444045  0.16902779  0.30671731  1
  O  O439  1  0.00805870  0.16670150  0.63833322  1
  O  O440  1  0.00265269  0.17001899  0.97479933  1
  O  O441  1  0.00695371  0.66499007  0.30292593  1
  O  O442  1  0.00409829  0.66265681  0.63362492  1
  O  O443  1  0.00480993  0.66936161  0.96945742  1
  O  O444  1  0.50376936  0.15108330  0.31245250  1
  O  O445  1  0.51053605  0.16550124  0.63534417  1
  O  O446  1  0.51972683  0.17459408  0.96159709  1
  O  O447  1  0.50910437  0.66946966  0.30720195  1
  O  O448  1  0.51326668  0.67244236  0.63868641  1
  O  O449  1  0.50324315  0.66358913  0.96355532  1
  O  O450  1  0.33512449  0.48963707  0.19377347  1
  O  O451  1  0.32859175  0.48758703  0.53332373  1
  O  O452  1  0.32850245  0.49938667  0.85646145  1
  O  O453  1  0.32777275  0.98742263  0.19297280  1
  O  O454  1  0.33471326  0.99649182  0.53195344  1
  O  O455  1  0.32015712  0.98358327  0.86474693  1
  O  O456  1  0.84293525  0.49772224  0.19768670  1
  O  O457  1  0.84111823  0.49147560  0.53029289  1
  O  O458  1  0.83523544  0.49333042  0.86107067  1
  O  O459  1  0.83347489  0.99158715  0.19433970  1
  O  O460  1  0.83909518  0.98941108  0.52943960  1
  O  O461  1  0.83604776  0.99263470  0.86269994  1
