# generated using pymatgen
data_Na31Fe20(SO4)36
_symmetry_space_group_name_H-M   'P 1'
_cell_length_a   18.06953849
_cell_length_b   18.07251091
_cell_length_c   19.70067402
_cell_angle_alpha   107.59755818
_cell_angle_beta   107.57313644
_cell_angle_gamma   90.72761126
_symmetry_Int_Tables_number   1
_chemical_formula_structural   Na31Fe20(SO4)36
_chemical_formula_sum   'Na62 Fe40 S72 O288'
_cell_volume   5807.84184512
_cell_formula_units_Z   2
loop_
 _symmetry_equiv_pos_site_id
 _symmetry_equiv_pos_as_xyz
  1  'x, y, z'
loop_
 _atom_site_type_symbol
 _atom_site_label
 _atom_site_symmetry_multiplicity
 _atom_site_fract_x
 _atom_site_fract_y
 _atom_site_fract_z
 _atom_site_occupancy
  Na  Na0  1  0.13340992  0.36614213  0.07741587  1
  Na  Na1  1  0.16027500  0.33310994  0.41565949  1
  Na  Na2  1  0.12755831  0.35821221  0.73776363  1
  Na  Na3  1  0.12984269  0.87102575  0.09559753  1
  Na  Na4  1  0.15682996  0.86040569  0.43079043  1
  Na  Na5  1  0.13480437  0.86220706  0.75034812  1
  Na  Na6  1  0.62141973  0.37043085  0.07777094  1
  Na  Na7  1  0.63172103  0.36742270  0.41741873  1
  Na  Na8  1  0.62862630  0.36604878  0.74739591  1
  Na  Na9  1  0.64475427  0.86701280  0.08918761  1
  Na  Na10  1  0.63716343  0.86630962  0.41697105  1
  Na  Na11  1  0.63909470  0.86762042  0.74935588  1
  Na  Na12  1  0.35088418  0.13919716  0.25059611  1
  Na  Na13  1  0.30675526  0.11383080  0.51906071  1
  Na  Na14  1  0.35779824  0.13313108  0.91541835  1
  Na  Na15  1  0.35854985  0.63122095  0.23709202  1
  Na  Na16  1  0.36539720  0.63614702  0.57926496  1
  Na  Na17  1  0.37423729  0.62976929  0.92112455  1
  Na  Na18  1  0.86894433  0.12983623  0.24605728  1
  Na  Na19  1  0.86114521  0.13402608  0.57896739  1
  Na  Na20  1  0.87785180  0.15141390  0.92832661  1
  Na  Na21  1  0.86807777  0.63313144  0.25268793  1
  Na  Na22  1  0.86776808  0.63511414  0.58324630  1
  Na  Na23  1  0.87518466  0.63832268  0.92958693  1
  Na  Na24  1  0.48790089  0.50537652  0.75247960  1
  Na  Na25  1  1.02463537  0.48082931  0.39595141  1
  Na  Na26  1  0.48934716  0.51182097  0.42368518  1
  Na  Na27  1  0.44998354  0.00683797  0.40633099  1
  Na  Na28  1  0.97514048  0.02984121  0.74979742  1
  Na  Na29  1  1.04381688  -0.01697425  0.39715065  1
  Na  Na30  1  0.48897962  0.00557835  0.08488615  1
  Na  Na31  1  1.03645989  -0.02048952  0.22706817  1
  Na  Na32  1  0.48842946  0.02051685  0.74473531  1
  Na  Na33  1  0.52462799  0.99899022  0.58142123  1
  Na  Na34  1  0.00003672  1.00708178  0.92609931  1
  Na  Na35  1  0.04063580  0.48965528  0.92815304  1
  Na  Na36  1  -0.01824490  1.01321990  0.57316798  1
  Na  Na37  1  0.50324528  0.50253043  0.23786692  1
  Na  Na38  1  0.51603732  0.99303413  0.91545054  1
  Na  Na39  1  0.01051810  0.46381967  0.12914447  1
  Na  Na40  1  0.00079161  0.47710254  0.60059732  1
  Na  Na41  1  0.47978153  1.00897050  0.25817252  1
  Na  Na42  1  0.24849280  0.75126646  0.34071510  1
  Na  Na43  1  0.23935641  0.73453922  0.01274230  1
  Na  Na44  1  0.26028497  0.75728050  0.65782485  1
  Na  Na45  1  0.23311799  0.23978205  0.00357004  1
  Na  Na46  1  0.75344617  0.24943908  0.32878286  1
  Na  Na47  1  0.76382827  0.75691671  0.00120402  1
  Na  Na48  1  0.76352917  0.26776646  -0.00572942  1
  Na  Na49  1  0.76383016  0.76703520  0.65642613  1
  Na  Na50  1  0.24904188  0.24925203  0.65323674  1
  Na  Na51  1  0.74912732  0.24801591  0.66418044  1
  Na  Na52  1  0.76182262  0.75959470  0.83011988  1
  Na  Na53  1  0.75830742  0.25900793  0.82960720  1
  Na  Na54  1  0.23236922  0.24146049  0.83375799  1
  Na  Na55  1  0.24672001  0.74003302  0.83870109  1
  Na  Na56  1  0.75971680  0.26091373  0.15890530  1
  Na  Na57  1  0.74926155  0.25229882  0.49495742  1
  Na  Na58  1  0.23232641  0.24416820  0.18126316  1
  Na  Na59  1  0.76500268  0.76688956  0.48638144  1
  Na  Na60  1  0.74941127  0.74315914  0.18064598  1
  Na  Na61  1  0.24316306  0.74700629  0.17691705  1
  Fe  Fe62  1  0.46888407  0.80711378  0.78428203  1
  Fe  Fe63  1  0.46844335  0.80914511  0.11999833  1
  Fe  Fe64  1  0.46053417  0.31890561  0.45606898  1
  Fe  Fe65  1  0.96537146  0.80853879  0.78626661  1
  Fe  Fe66  1  0.96806171  0.29426441  0.45500975  1
  Fe  Fe67  1  0.46657458  0.80524754  0.45060577  1
  Fe  Fe68  1  0.45899011  0.30986019  0.78616737  1
  Fe  Fe69  1  0.96952260  0.30032628  0.79079286  1
  Fe  Fe70  1  0.96576608  0.80813666  0.45270686  1
  Fe  Fe71  1  0.46220812  0.30723585  0.11768052  1
  Fe  Fe72  1  0.69940557  0.03376762  0.71198375  1
  Fe  Fe73  1  0.19353451  0.53586641  0.71367486  1
  Fe  Fe74  1  0.69318797  0.03245929  0.37974165  1
  Fe  Fe75  1  0.18430660  0.03488503  0.71480883  1
  Fe  Fe76  1  0.19172628  0.53648012  0.38095575  1
  Fe  Fe77  1  0.69209674  0.53621309  0.71533142  1
  Fe  Fe78  1  0.69448427  0.53635956  0.38282872  1
  Fe  Fe79  1  0.69488856  0.03679973  0.05148026  1
  Fe  Fe80  1  0.19270009  0.03139575  0.04868701  1
  Fe  Fe81  1  0.69004313  0.53558595  0.04906394  1
  Fe  Fe82  1  0.03074098  0.69376808  0.20754549  1
  Fe  Fe83  1  0.03606604  0.69200716  0.54572168  1
  Fe  Fe84  1  0.53547151  0.69465498  0.55081300  1
  Fe  Fe85  1  0.54127099  0.69185592  0.21472556  1
  Fe  Fe86  1  0.03274520  0.69128023  0.88316843  1
  Fe  Fe87  1  0.02996829  0.19693104  0.20405547  1
  Fe  Fe88  1  0.53282119  0.19639873  0.88257638  1
  Fe  Fe89  1  0.54025422  0.69508563  0.88333653  1
  Fe  Fe90  1  0.52831981  0.19584136  0.54466898  1
  Fe  Fe91  1  0.53312596  0.19654629  0.21648243  1
  Fe  Fe92  1  0.81674759  0.96335517  0.28843416  1
  Fe  Fe93  1  0.30100176  0.46939031  0.95516273  1
  Fe  Fe94  1  0.30173224  0.46598813  0.28265884  1
  Fe  Fe95  1  0.80984139  0.46511780  0.28773456  1
  Fe  Fe96  1  0.30505697  0.46496196  0.61433375  1
  Fe  Fe97  1  0.80899978  0.46472626  0.95716340  1
  Fe  Fe98  1  0.30792933  0.96064834  0.95049639  1
  Fe  Fe99  1  0.80771135  0.46455261  0.62418728  1
  Fe  Fe100  1  0.81746517  0.96692541  0.96116196  1
  Fe  Fe101  1  0.30594723  0.96500968  0.61751294  1
  S  S102  1  0.36076372  0.13830643  0.08241075  1
  S  S103  1  0.36463097  0.14781017  0.40839998  1
  S  S104  1  0.35813812  0.13978378  0.75317610  1
  S  S105  1  0.36594785  0.64255407  0.08396719  1
  S  S106  1  0.36204836  0.63868960  0.41552644  1
  S  S107  1  0.36340108  0.64004839  0.75088662  1
  S  S108  1  0.85481420  0.14492891  0.08130982  1
  S  S109  1  0.85485593  0.13884497  0.41725915  1
  S  S110  1  0.85559570  0.14387508  0.74948677  1
  S  S111  1  0.85765855  0.63959845  0.08602527  1
  S  S112  1  0.86155837  0.63939172  0.41993585  1
  S  S113  1  0.85805011  0.64100826  0.74959542  1
  S  S114  1  0.13593002  0.36479323  0.25312007  1
  S  S115  1  0.13689416  0.36281244  0.58161515  1
  S  S116  1  0.14275169  0.35632443  0.90926913  1
  S  S117  1  0.14327799  0.85200890  0.26174237  1
  S  S118  1  0.14251734  0.85644394  0.58539270  1
  S  S119  1  0.14238227  0.85431603  0.91622553  1
  S  S120  1  0.64023971  0.36174003  0.25090221  1
  S  S121  1  0.63658268  0.36224402  0.58448120  1
  S  S122  1  0.63596919  0.36140152  0.91609843  1
  S  S123  1  0.64288714  0.86022859  0.24836341  1
  S  S124  1  0.64129026  0.85808432  0.58506296  1
  S  S125  1  0.64387797  0.86368195  0.91737538  1
  S  S126  1  0.06890019  0.17146180  0.04147075  1
  S  S127  1  0.05561023  0.16213959  0.36230963  1
  S  S128  1  0.05795252  0.16643075  0.70718795  1
  S  S129  1  0.06924510  0.66779446  0.04614976  1
  S  S130  1  0.06911373  0.67052796  0.37588544  1
  S  S131  1  0.06643854  0.66938883  0.70896861  1
  S  S132  1  0.56554251  0.16887187  0.04299751  1
  S  S133  1  0.56992524  0.17273338  0.37513315  1
  S  S134  1  0.56645695  0.17108842  0.71014999  1
  S  S135  1  0.57481472  0.67526782  0.04504920  1
  S  S136  1  0.56748517  0.66648530  0.37645169  1
  S  S137  1  0.56965980  0.67144329  0.71314379  1
  S  S138  1  0.32906042  0.42853862  0.12332282  1
  S  S139  1  0.33537650  0.44016099  0.45932976  1
  S  S140  1  0.32680438  0.43297989  0.78742971  1
  S  S141  1  0.33290423  0.93394594  0.12232022  1
  S  S142  1  0.34531119  0.93558575  0.46625927  1
  S  S143  1  0.33670658  0.93288947  0.79206368  1
  S  S144  1  0.81980889  0.43040408  0.12184617  1
  S  S145  1  0.83023397  0.42768675  0.45969201  1
  S  S146  1  0.82734287  0.42821985  0.79094826  1
  S  S147  1  0.83226376  0.93626004  0.12485087  1
  S  S148  1  0.82863808  0.93509598  0.45522988  1
  S  S149  1  0.83197227  0.93712346  0.79374248  1
  S  S150  1  0.43298074  0.33495077  0.28956043  1
  S  S151  1  0.42675265  0.32987969  0.62447270  1
  S  S152  1  0.42323400  0.32602198  0.95247590  1
  S  S153  1  0.44100169  0.82791080  0.28880638  1
  S  S154  1  0.43570147  0.83057900  0.62808410  1
  S  S155  1  0.43923510  0.83221847  0.95649502  1
  S  S156  1  0.92889832  0.32443248  0.29215501  1
  S  S157  1  0.92591229  0.32712572  0.62488467  1
  S  S158  1  0.93745158  0.34077152  0.95934249  1
  S  S159  1  0.93566601  0.82514949  0.29180586  1
  S  S160  1  0.93975444  0.83447826  0.62489019  1
  S  S161  1  0.93800132  0.83158195  0.95700304  1
  S  S162  1  0.16047521  0.07040467  0.20307807  1
  S  S163  1  0.16376352  0.05371751  0.54724698  1
  S  S164  1  0.16701099  0.05501227  0.87575073  1
  S  S165  1  0.16831798  0.56812392  0.21040152  1
  S  S166  1  0.17210156  0.57069119  0.54411481  1
  S  S167  1  0.17247231  0.56991065  0.87497083  1
  S  S168  1  0.66202647  0.06695225  0.20767503  1
  S  S169  1  0.65764339  0.06804596  0.53668671  1
  S  S170  1  0.66848912  0.07095081  0.87583675  1
  S  S171  1  0.67181218  0.56678020  0.21264701  1
  S  S172  1  0.67273411  0.56981853  0.54567844  1
  S  S173  1  0.67184618  0.56874773  0.87695797  1
  O  O174  1  0.36953532  0.21506920  0.06998459  1
  O  O175  1  0.38014133  0.22797810  0.40339559  1
  O  O176  1  0.36503768  0.21867253  0.74488889  1
  O  O177  1  0.38046819  0.71856201  0.06943345  1
  O  O178  1  0.37232295  0.71680303  0.40603252  1
  O  O179  1  0.37294092  0.71892365  0.74250112  1
  O  O180  1  0.85755779  0.22155270  0.07160610  1
  O  O181  1  0.86349831  0.22217501  0.41551406  1
  O  O182  1  0.86719586  0.22942894  0.75200616  1
  O  O183  1  0.86450659  0.71548350  0.07602747  1
  O  O184  1  0.86922045  0.71987445  0.41640520  1
  O  O185  1  0.86600202  0.72006965  0.74029200  1
  O  O186  1  0.28129220  0.12938775  0.08820456  1
  O  O187  1  0.28555373  0.13575642  0.40840316  1
  O  O188  1  0.28141668  0.12877754  0.76506388  1
  O  O189  1  0.29115901  0.64336451  0.09863557  1
  O  O190  1  0.28538606  0.63046927  0.42628479  1
  O  O191  1  0.28432107  0.63190910  0.75852463  1
  O  O192  1  0.77901262  0.13069859  0.09592707  1
  O  O193  1  0.77346889  0.13099762  0.42336328  1
  O  O194  1  0.77141996  0.13712345  0.74833954  1
  O  O195  1  0.78143131  0.62755945  0.09984490  1
  O  O196  1  0.78361309  0.62841832  0.43074946  1
  O  O197  1  0.77812886  0.63165760  0.75627452  1
  O  O198  1  0.12314347  0.28205784  0.25412724  1
  O  O199  1  0.13283713  0.29083706  0.59931185  1
  O  O200  1  0.14219636  0.27609668  0.91147069  1
  O  O201  1  0.12515004  0.76552204  0.25911966  1
  O  O202  1  0.13320087  0.77682214  0.59289846  1
  O  O203  1  0.13383606  0.77409609  0.92186204  1
  O  O204  1  0.62964608  0.28288940  0.25903292  1
  O  O205  1  0.62654677  0.28425064  0.59474361  1
  O  O206  1  0.62754842  0.28317397  0.92729636  1
  O  O207  1  0.63639367  0.78049068  0.25437652  1
  O  O208  1  0.62677941  0.78189417  0.59875877  1
  O  O209  1  0.63652952  0.78467845  0.92552704  1
  O  O210  1  0.21819411  0.37187300  0.25009302  1
  O  O211  1  0.21306456  0.37729824  0.56979411  1
  O  O212  1  0.21656014  0.37495991  0.89392325  1
  O  O213  1  0.22613405  0.85556695  0.26754946  1
  O  O214  1  0.22230799  0.86596952  0.57954657  1
  O  O215  1  0.22093580  0.86297065  0.90605414  1
  O  O216  1  0.71979732  0.36880157  0.24405775  1
  O  O217  1  0.71539283  0.36912645  0.57500819  1
  O  O218  1  0.71629826  0.36901027  0.90961328  1
  O  O219  1  0.71989159  0.87235892  0.23729406  1
  O  O220  1  0.71902884  0.86178924  0.57795060  1
  O  O221  1  0.72272894  0.87456902  0.90992310  1
  O  O222  1  0.41914703  0.13405331  0.15290565  1
  O  O223  1  0.41958637  0.14126191  0.48235591  1
  O  O224  1  0.42043179  0.13288839  0.82120969  1
  O  O225  1  0.42850123  0.63295781  0.14957118  1
  O  O226  1  0.42387995  0.63065786  0.48306122  1
  O  O227  1  0.42258983  0.63257791  0.81953191  1
  O  O228  1  0.91775633  0.13901158  0.14830291  1
  O  O229  1  0.91205037  0.12569110  0.48050322  1
  O  O230  1  0.90703157  0.13064286  0.81684506  1
  O  O231  1  0.92020055  0.63170730  0.15389395  1
  O  O232  1  0.92203580  0.62810804  0.48568084  1
  O  O233  1  0.91537224  0.63495262  0.81885486  1
  O  O234  1  0.37330095  0.07636959  0.01776929  1
  O  O235  1  0.38547628  0.09060292  0.34730895  1
  O  O236  1  0.36784351  0.08012404  0.68678677  1
  O  O237  1  0.36643327  0.57982981  0.01479803  1
  O  O238  1  0.37024472  0.57849276  0.34761462  1
  O  O239  1  0.37243570  0.58014732  0.68385147  1
  O  O240  1  0.86056019  0.08443186  0.01279043  1
  O  O241  1  0.85620748  0.08601078  0.34314757  1
  O  O242  1  0.86593220  0.09237047  0.68072071  1
  O  O243  1  0.86293243  0.57778756  0.01796416  1
  O  O244  1  0.86661936  0.58215508  0.34969081  1
  O  O245  1  0.86609453  0.58199402  0.68169983  1
  O  O246  1  0.08152400  0.37931395  0.18860615  1
  O  O247  1  0.07437251  0.36310702  0.51093839  1
  O  O248  1  0.07739313  0.36343369  0.84073828  1
  O  O249  1  0.09286505  0.86358508  0.19265563  1
  O  O250  1  0.08434468  0.86374358  0.51686211  1
  O  O251  1  0.08312146  0.86356174  0.84875700  1
  O  O252  1  0.58152495  0.37040517  0.18295876  1
  O  O253  1  0.57791375  0.36941304  0.51601413  1
  O  O254  1  0.57846263  0.36465456  0.84554685  1
  O  O255  1  0.58172404  0.86989248  0.18167887  1
  O  O256  1  0.58138292  0.86425065  0.51623199  1
  O  O257  1  0.58444664  0.87146922  0.84906337  1
  O  O258  1  0.13149375  0.41823584  0.32632223  1
  O  O259  1  0.12465940  0.42888849  0.64477491  1
  O  O260  1  0.13369765  0.41222525  0.97656047  1
  O  O261  1  0.12648602  0.90304896  0.32799103  1
  O  O262  1  0.13373902  0.91378754  0.65400045  1
  O  O263  1  0.13555278  0.91185347  0.98487414  1
  O  O264  1  0.63281147  0.42128151  0.31926086  1
  O  O265  1  0.63087548  0.42260145  0.65255205  1
  O  O266  1  0.62640158  0.42166893  0.98181860  1
  O  O267  1  0.63495188  0.91740130  0.31751938  1
  O  O268  1  0.63238615  0.92102099  0.65152219  1
  O  O269  1  0.63252657  0.92245538  0.98428729  1
  O  O270  1  0.03456369  0.19755299  0.10430655  1
  O  O271  1  0.01515970  0.19532232  0.41976754  1
  O  O272  1  0.02188924  0.20143969  0.76818012  1
  O  O273  1  0.03026131  0.69236005  0.10560062  1
  O  O274  1  0.02912761  0.70083276  0.43482188  1
  O  O275  1  0.02865040  0.69727137  0.76900647  1
  O  O276  1  0.53081298  0.20052478  0.10506587  1
  O  O277  1  0.54101186  0.20576415  0.43988753  1
  O  O278  1  0.52744657  0.19954882  0.76953731  1
  O  O279  1  0.53931954  0.70622517  0.10623985  1
  O  O280  1  0.53242153  0.69840845  0.43836919  1
  O  O281  1  0.53294634  0.70401066  0.77439170  1
  O  O282  1  0.30495475  0.46066306  0.06139963  1
  O  O283  1  0.30034250  0.47353900  0.39666521  1
  O  O284  1  0.29705302  0.47142455  0.72712589  1
  O  O285  1  0.29852257  0.96370842  0.05594459  1
  O  O286  1  0.32587005  0.97474358  0.41011762  1
  O  O287  1  0.30476033  0.96701622  0.73086440  1
  O  O288  1  0.78705493  0.46840842  0.06127119  1
  O  O289  1  0.80416034  0.46611354  0.39988717  1
  O  O290  1  0.80035800  0.46730062  0.73108649  1
  O  O291  1  0.79572142  0.97246521  0.06273097  1
  O  O292  1  0.79833193  0.96644704  0.38884650  1
  O  O293  1  0.80171203  0.97337999  0.73452398  1
  O  O294  1  0.47144114  0.30375722  0.22944249  1
  O  O295  1  0.46504684  0.30410190  0.56446743  1
  O  O296  1  0.46490125  0.29852995  0.89411288  1
  O  O297  1  0.47791613  0.79298792  0.22793892  1
  O  O298  1  0.46654500  0.79865071  0.56352344  1
  O  O299  1  0.47575752  0.80168820  0.89530557  1
  O  O300  1  0.96622659  0.29621025  0.23342895  1
  O  O301  1  0.96280621  0.30649384  0.56539197  1
  O  O302  1  0.96935711  0.31620601  0.89491764  1
  O  O303  1  0.97112175  0.79064700  0.23223024  1
  O  O304  1  0.97505431  0.79682368  0.56350842  1
  O  O305  1  0.96841591  0.79636460  0.89024090  1
  O  O306  1  0.17230914  0.03443074  0.26105020  1
  O  O307  1  0.20438171  0.02704659  0.61609140  1
  O  O308  1  0.20551535  0.02180807  0.93868500  1
  O  O309  1  0.19887971  0.53728333  0.27700998  1
  O  O310  1  0.20456411  0.53670502  0.60654969  1
  O  O311  1  0.20142397  0.53476621  0.93506971  1
  O  O312  1  0.69238881  0.03225266  0.26857270  1
  O  O313  1  0.67595063  0.03404536  0.59828247  1
  O  O314  1  0.69556216  0.03567290  0.93734776  1
  O  O315  1  0.70355747  0.52930723  0.27348495  1
  O  O316  1  0.70059005  0.53184255  0.60572095  1
  O  O317  1  0.69946390  0.53253981  0.93779503  1
  O  O318  1  0.09378132  0.09096546  0.03469982  1
  O  O319  1  0.05329402  0.07745324  0.34804241  1
  O  O320  1  0.08053277  0.08770673  0.71522452  1
  O  O321  1  0.08943352  0.58856003  0.03655078  1
  O  O322  1  0.08373209  0.58820466  0.37238367  1
  O  O323  1  0.08501903  0.58775353  0.70133022  1
  O  O324  1  0.58174336  0.08624080  0.03855506  1
  O  O325  1  0.58668214  0.09031268  0.36759333  1
  O  O326  1  0.58546464  0.08946201  0.70739124  1
  O  O327  1  0.59275252  0.59487639  0.04099352  1
  O  O328  1  0.58276342  0.58343815  0.37251130  1
  O  O329  1  0.58642246  0.59084059  0.71166585  1
  O  O330  1  0.41267477  0.40992333  0.13605177  1
  O  O331  1  0.41877230  0.42969307  0.46295104  1
  O  O332  1  0.40898330  0.41716306  0.79092870  1
  O  O333  1  0.41505871  0.91530555  0.12220322  1
  O  O334  1  0.42963373  0.91519506  0.47727816  1
  O  O335  1  0.42048259  0.91883149  0.79753407  1
  O  O336  1  0.89481422  0.40548467  0.11885179  1
  O  O337  1  0.90974136  0.40339726  0.46564855  1
  O  O338  1  0.90587031  0.40257095  0.79406464  1
  O  O339  1  0.91283596  0.92650105  0.12969590  1
  O  O340  1  0.90767627  0.90922254  0.45635158  1
  O  O341  1  0.91423363  0.91902022  0.79800959  1
  O  O342  1  0.41791423  0.41770764  0.29480244  1
  O  O343  1  0.40943797  0.41254772  0.63238285  1
  O  O344  1  0.40103279  0.40413167  0.95512294  1
  O  O345  1  0.43003533  0.90900750  0.29177493  1
  O  O346  1  0.41825677  0.91252978  0.63511194  1
  O  O347  1  0.42261484  0.91465411  0.96001891  1
  O  O348  1  0.90962906  0.40636921  0.29688018  1
  O  O349  1  0.91039216  0.41108300  0.63918654  1
  O  O350  1  0.91571954  0.42259464  0.96753171  1
  O  O351  1  0.91746666  0.90584369  0.29084272  1
  O  O352  1  0.93272624  0.91644831  0.63052564  1
  O  O353  1  0.91688829  0.91115745  0.95398917  1
  O  O354  1  0.07876576  0.09728130  0.18696125  1
  O  O355  1  0.07962969  0.05065313  0.53596416  1
  O  O356  1  0.08406971  0.05797129  0.86791444  1
  O  O357  1  0.08872163  0.59437481  0.20900380  1
  O  O358  1  0.09008252  0.58664406  0.53960446  1
  O  O359  1  0.09195493  0.59073974  0.87208149  1
  O  O360  1  0.57909549  0.08420708  0.20206981  1
  O  O361  1  0.57302442  0.08394650  0.52008743  1
  O  O362  1  0.58386390  0.08537280  0.86753284  1
  O  O363  1  0.59183817  0.58634123  0.21403434  1
  O  O364  1  0.59139444  0.58906019  0.53934384  1
  O  O365  1  0.59012792  0.58834657  0.86966632  1
  O  O366  1  0.13933397  0.22737026  0.06062266  1
  O  O367  1  0.13261621  0.20404822  0.38477200  1
  O  O368  1  0.12945741  0.21697242  0.72042727  1
  O  O369  1  0.13818909  0.72579739  0.06583613  1
  O  O370  1  0.14203612  0.71976926  0.39474489  1
  O  O371  1  0.13846762  0.72190542  0.72731141  1
  O  O372  1  0.63652556  0.21920575  0.05665736  1
  O  O373  1  0.64025450  0.22329479  0.38481813  1
  O  O374  1  0.63740335  0.22459456  0.72851876  1
  O  O375  1  0.64592806  0.72748820  0.05980023  1
  O  O376  1  0.63912717  0.71582397  0.39078324  1
  O  O377  1  0.64087869  0.72320948  0.72891683  1
  O  O378  1  0.27752001  0.35798764  0.11063420  1
  O  O379  1  0.29183886  0.36667874  0.44788076  1
  O  O380  1  0.27621571  0.35979644  0.76740458  1
  O  O381  1  0.28415117  0.86270045  0.11160312  1
  O  O382  1  0.29388421  0.86419688  0.44987499  1
  O  O383  1  0.28911455  0.85957313  0.77839584  1
  O  O384  1  0.76134562  0.36354363  0.10693213  1
  O  O385  1  0.77220515  0.36012083  0.44209152  1
  O  O386  1  0.76899110  0.36028068  0.77244146  1
  O  O387  1  0.78188985  0.86306612  0.10706824  1
  O  O388  1  0.77290073  0.86880513  0.44319073  1
  O  O389  1  0.78119860  0.86363803  0.77694249  1
  O  O390  1  0.36122245  0.28427436  0.27111095  1
  O  O391  1  0.35744734  0.27720673  0.60901786  1
  O  O392  1  0.35517560  0.26856069  0.93424960  1
  O  O393  1  0.36858381  0.77793451  0.27281168  1
  O  O394  1  0.36720422  0.77934660  0.61871610  1
  O  O395  1  0.36782509  0.78144771  0.94040524  1
  O  O396  1  0.85643530  0.27256544  0.27531307  1
  O  O397  1  0.85258817  0.27563353  0.60475499  1
  O  O398  1  0.86551049  0.28690393  0.94085467  1
  O  O399  1  0.86496857  0.77540430  0.28089851  1
  O  O400  1  0.86437631  0.78649480  0.60644918  1
  O  O401  1  0.86534652  0.78081200  0.94244577  1
  O  O402  1  0.21804147  0.13717925  0.21851797  1
  O  O403  1  0.20187438  0.13234118  0.56335851  1
  O  O404  1  0.21206315  0.13124120  0.89306625  1
  O  O405  1  0.22412249  0.63584148  0.22402595  1
  O  O406  1  0.22340904  0.64077866  0.55756255  1
  O  O407  1  0.22619085  0.64072517  0.88970799  1
  O  O408  1  0.71165043  0.13839911  0.22014039  1
  O  O409  1  0.70943287  0.14057350  0.55554795  1
  O  O410  1  0.71732052  0.14409576  0.89189809  1
  O  O411  1  0.72380354  0.63629473  0.22673482  1
  O  O412  1  0.72644668  0.63990124  0.56246528  1
  O  O413  1  0.72507925  0.63898101  0.89223772  1
  O  O414  1  0.48271002  0.32814600  0.02561917  1
  O  O415  1  0.49160180  0.33735594  0.36272035  1
  O  O416  1  0.48804200  0.33279453  0.69724091  1
  O  O417  1  0.49847515  0.83647104  0.02943299  1
  O  O418  1  0.49833781  0.82755535  0.36222735  1
  O  O419  1  0.50022266  0.83384626  0.69877736  1
  O  O420  1  0.99776343  0.34218195  0.02832656  1
  O  O421  1  0.98542658  0.33074945  0.36780165  1
  O  O422  1  0.98255851  0.32063235  0.69610887  1
  O  O423  1  0.99861223  0.83678852  0.02590069  1
  O  O424  1  0.99508202  0.83506884  0.36732431  1
  O  O425  1  0.99434347  0.82943607  0.69777107  1
  O  O426  1  0.16056667  0.00814872  0.13098253  1
  O  O427  1  0.17863465  -0.00252382  0.48220015  1
  O  O428  1  0.17569083  -0.00043583  0.80485538  1
  O  O429  1  0.15911809  0.50331747  0.14221971  1
  O  O430  1  0.16759152  0.50944546  0.47153115  1
  O  O431  1  0.16740067  0.51129932  0.80065707  1
  O  O432  1  0.65765721  0.00683529  0.13427960  1
  O  O433  1  0.66469228  0.00848644  0.46790188  1
  O  O434  1  0.66871751  0.01201519  0.80381485  1
  O  O435  1  0.66351946  0.50704136  0.13885340  1
  O  O436  1  0.67025445  0.50992490  0.47284975  1
  O  O437  1  0.66860283  0.50826131  0.80429504  1
  O  O438  1  0.00438459  0.17388206  0.28917304  1
  O  O439  1  -0.00046519  0.15232486  0.63357493  1
  O  O440  1  0.00931797  0.16659826  0.97080253  1
  O  O441  1  0.01158824  0.66981699  0.30239537  1
  O  O442  1  0.00832391  0.66874306  0.63635328  1
  O  O443  1  0.01017937  0.67115129  0.97394698  1
  O  O444  1  0.50686003  0.17005547  0.30394381  1
  O  O445  1  0.50978984  0.16614525  0.63614436  1
  O  O446  1  0.50522408  0.16452712  0.97025190  1
  O  O447  1  0.50763731  0.66195192  0.30336780  1
  O  O448  1  0.51023503  0.66863019  0.64065398  1
  O  O449  1  0.51483051  0.67359213  0.97262086  1
  O  O450  1  0.33001877  0.49067205  0.19496772  1
  O  O451  1  0.33598969  0.50029624  0.53127248  1
  O  O452  1  0.32790332  0.48988502  0.86006452  1
  O  O453  1  0.34090735  0.99765172  0.19149309  1
  O  O454  1  0.34859040  0.99346088  0.54160257  1
  O  O455  1  0.33949466  0.99174379  0.86534993  1
  O  O456  1  0.82649248  0.49053303  0.19591384  1
  O  O457  1  0.83500899  0.48769610  0.53331386  1
  O  O458  1  0.83095705  0.48812097  0.86307730  1
  O  O459  1  0.82592152  0.99357993  0.19601225  1
  O  O460  1  0.83816759  0.99959419  0.52428819  1
  O  O461  1  0.83539087  0.99400396  0.86812060  1
