# generated using pymatgen
data_Na31Fe20(SO4)36
_symmetry_space_group_name_H-M   'P 1'
_cell_length_a   18.06033590
_cell_length_b   18.06218922
_cell_length_c   19.69516218
_cell_angle_alpha   107.60353881
_cell_angle_beta   107.59629306
_cell_angle_gamma   90.67460407
_symmetry_Int_Tables_number   1
_chemical_formula_structural   Na31Fe20(SO4)36
_chemical_formula_sum   'Na62 Fe40 S72 O288'
_cell_volume   5799.57223699
_cell_formula_units_Z   2
loop_
 _symmetry_equiv_pos_site_id
 _symmetry_equiv_pos_as_xyz
  1  'x, y, z'
loop_
 _atom_site_type_symbol
 _atom_site_label
 _atom_site_symmetry_multiplicity
 _atom_site_fract_x
 _atom_site_fract_y
 _atom_site_fract_z
 _atom_site_occupancy
  Na  Na0  1  0.13288224  0.36770090  0.08299743  1
  Na  Na1  1  0.13861049  0.36481144  0.41852479  1
  Na  Na2  1  0.13505343  0.37034531  0.75296180  1
  Na  Na3  1  0.13828580  0.86500074  0.08522071  1
  Na  Na4  1  0.11909737  0.85292475  0.40417016  1
  Na  Na5  1  0.15172418  0.87426791  0.76668959  1
  Na  Na6  1  0.64008252  0.37292229  0.08286151  1
  Na  Na7  1  0.63684081  0.34783748  0.40577394  1
  Na  Na8  1  0.62419655  0.35949497  0.73974062  1
  Na  Na9  1  0.63032665  0.84945959  0.06410219  1
  Na  Na10  1  0.63203761  0.86293031  0.41384428  1
  Na  Na11  1  0.63991231  0.86367712  0.75876602  1
  Na  Na12  1  0.37532893  0.13370511  0.25804920  1
  Na  Na13  1  0.36660572  0.12669001  0.58152774  1
  Na  Na14  1  0.35137126  0.12167506  0.90076026  1
  Na  Na15  1  0.35210114  0.63942917  0.24512778  1
  Na  Na16  1  0.36377664  0.63134603  0.57966041  1
  Na  Na17  1  0.37502792  0.62758471  0.91577368  1
  Na  Na18  1  0.86079947  0.13330861  0.25129837  1
  Na  Na19  1  0.86940842  0.12587283  0.57973192  1
  Na  Na20  1  0.87467595  0.12838711  0.92009313  1
  Na  Na21  1  0.86407928  0.64446916  0.24398382  1
  Na  Na22  1  0.86582473  0.64100073  0.58476126  1
  Na  Na23  1  0.83082326  0.65923931  0.92485194  1
  Na  Na24  1  0.49935040  0.50723569  0.08368264  1
  Na  Na25  1  0.96680814  -0.01120679  0.42266343  1
  Na  Na26  1  0.98950713  0.51519395  0.75014055  1
  Na  Na27  1  0.98903168  0.52218845  0.41396814  1
  Na  Na28  1  0.98947977  0.54143163  0.09207593  1
  Na  Na29  1  0.48194239  0.00294031  0.75136263  1
  Na  Na30  1  0.51047419  0.47836214  0.42951728  1
  Na  Na31  1  0.49532918  0.01335781  0.42132515  1
  Na  Na32  1  1.04388137  -0.01438497  0.70139560  1
  Na  Na33  1  -0.00984998  0.98690989  0.25081356  1
  Na  Na34  1  -0.00639241  0.51053886  0.24541734  1
  Na  Na35  1  0.50742246  0.46945889  0.59679158  1
  Na  Na36  1  0.52668534  0.99046423  0.22819342  1
  Na  Na37  1  0.01051940  0.49423042  0.58048816  1
  Na  Na38  1  -0.02304132  0.51637923  0.92097334  1
  Na  Na39  1  0.50607624  0.49459592  0.25281028  1
  Na  Na40  1  0.46769664  1.00704484  0.97577525  1
  Na  Na41  1  0.54734795  0.51551342  0.93210540  1
  Na  Na42  1  0.24156714  0.75080566  0.32216239  1
  Na  Na43  1  0.25541184  0.75625372  0.00157279  1
  Na  Na44  1  0.24124475  0.23928397  0.00322743  1
  Na  Na45  1  0.26668721  0.25763572  0.33297285  1
  Na  Na46  1  0.25951029  0.75822886  0.66417021  1
  Na  Na47  1  0.74300829  0.74259711  0.68036502  1
  Na  Na48  1  0.77529587  0.77501149  0.32713759  1
  Na  Na49  1  0.74923394  0.25375420  0.66010285  1
  Na  Na50  1  0.24104328  0.23632740  0.66996191  1
  Na  Na51  1  0.74889387  0.25084711  0.00247410  1
  Na  Na52  1  0.75509857  0.76196545  0.14967030  1
  Na  Na53  1  0.74325056  0.24312507  0.18076372  1
  Na  Na54  1  0.76147965  0.75992828  0.49560161  1
  Na  Na55  1  0.25575229  0.24461647  0.16729052  1
  Na  Na56  1  0.76005045  0.25398125  0.48952879  1
  Na  Na57  1  0.74899831  0.25253216  0.83485267  1
  Na  Na58  1  0.23972393  0.75222375  0.49572965  1
  Na  Na59  1  0.25519687  0.24719656  0.49721935  1
  Na  Na60  1  0.26528096  0.76282339  0.83345951  1
  Na  Na61  1  0.23795650  0.23581898  0.83552220  1
  Fe  Fe62  1  0.47431000  0.79479244  0.79958616  1
  Fe  Fe63  1  0.96398389  0.30743923  0.44858895  1
  Fe  Fe64  1  0.96717512  0.30693450  0.11831284  1
  Fe  Fe65  1  0.46338418  0.30978874  0.78496821  1
  Fe  Fe66  1  0.46392818  0.81018385  0.45892980  1
  Fe  Fe67  1  0.46614115  0.30731076  0.11658998  1
  Fe  Fe68  1  0.96222793  0.31223601  0.78579170  1
  Fe  Fe69  1  0.96549099  0.81627157  0.79457282  1
  Fe  Fe70  1  0.96503325  0.80191343  0.11919881  1
  Fe  Fe71  1  0.46242733  0.80315719  0.11902316  1
  Fe  Fe72  1  0.69519691  0.03248695  0.04455743  1
  Fe  Fe73  1  0.19191846  0.03358617  0.37866877  1
  Fe  Fe74  1  0.19978011  0.02946166  0.04131495  1
  Fe  Fe75  1  0.19242942  0.53227086  0.38030039  1
  Fe  Fe76  1  0.69277618  0.54417296  0.72585776  1
  Fe  Fe77  1  0.18765728  0.53736972  0.04934298  1
  Fe  Fe78  1  0.19427844  0.53747912  0.71687698  1
  Fe  Fe79  1  0.69288168  0.53611944  0.38476090  1
  Fe  Fe80  1  0.68898039  0.03456265  0.71003002  1
  Fe  Fe81  1  0.70039472  0.02981337  0.37559927  1
  Fe  Fe82  1  0.03735920  0.18916771  0.54413833  1
  Fe  Fe83  1  0.53600652  0.19721236  0.87936093  1
  Fe  Fe84  1  0.03306287  0.69563192  0.88515414  1
  Fe  Fe85  1  0.03192135  0.70114519  0.54810861  1
  Fe  Fe86  1  0.53303445  0.68973001  0.21818843  1
  Fe  Fe87  1  0.53267732  0.19959484  0.54372190  1
  Fe  Fe88  1  0.53630962  0.19050452  0.21117938  1
  Fe  Fe89  1  0.03260235  0.19133293  0.87532578  1
  Fe  Fe90  1  0.03719674  0.18775091  0.20822789  1
  Fe  Fe91  1  0.53408421  0.69169844  0.54970234  1
  Fe  Fe92  1  0.81181079  0.96470986  0.62539939  1
  Fe  Fe93  1  0.30048689  0.96601441  0.62465200  1
  Fe  Fe94  1  0.31051583  0.46391769  0.28664194  1
  Fe  Fe95  1  0.30622192  0.96107724  0.28328693  1
  Fe  Fe96  1  0.81677607  0.95923115  0.95578932  1
  Fe  Fe97  1  0.79641559  0.47628832  0.95571804  1
  Fe  Fe98  1  0.80590069  0.46859889  0.61813978  1
  Fe  Fe99  1  0.30828947  0.46650556  0.62116581  1
  Fe  Fe100  1  0.80405475  0.46787895  0.28279166  1
  Fe  Fe101  1  0.30394824  0.46490186  0.95146652  1
  S  S102  1  0.36333090  0.14376379  0.08046687  1
  S  S103  1  0.36137833  0.13394540  0.41796055  1
  S  S104  1  0.36165401  0.14147889  0.74898459  1
  S  S105  1  0.35702647  0.63612197  0.08656268  1
  S  S106  1  0.35825523  0.64003951  0.41589008  1
  S  S107  1  0.35729846  0.63771365  0.74914616  1
  S  S108  1  0.86047702  0.14110956  0.08345569  1
  S  S109  1  0.86395374  0.14157884  0.41654326  1
  S  S110  1  0.85618747  0.14568997  0.74930488  1
  S  S111  1  0.85989532  0.64249260  0.08268402  1
  S  S112  1  0.85880346  0.63969846  0.41901568  1
  S  S113  1  0.86298635  0.64108055  0.74905209  1
  S  S114  1  0.14393359  0.35528232  0.25029260  1
  S  S115  1  0.13982729  0.36051552  0.58236784  1
  S  S116  1  0.13773547  0.36244270  0.91606584  1
  S  S117  1  0.13427142  0.86621452  0.24657623  1
  S  S118  1  0.14302479  0.85613157  0.58759854  1
  S  S119  1  0.14267230  0.85630200  0.91852179  1
  S  S120  1  0.63764894  0.36277118  0.24933660  1
  S  S121  1  0.64253491  0.36220482  0.57822707  1
  S  S122  1  0.63794733  0.36298448  0.91653270  1
  S  S123  1  0.63605778  0.85562480  0.25315888  1
  S  S124  1  0.64155013  0.85785343  0.58542293  1
  S  S125  1  0.64448618  0.86260950  0.91780193  1
  S  S126  1  0.07343602  0.17393392  0.04423611  1
  S  S127  1  0.06952177  0.17312326  0.37490569  1
  S  S128  1  0.06618252  0.18055333  0.71012047  1
  S  S129  1  0.06505363  0.66953316  0.04032748  1
  S  S130  1  0.06320733  0.65731911  0.37284589  1
  S  S131  1  0.06815980  0.66896471  0.71078258  1
  S  S132  1  0.57158923  0.17554603  0.04264920  1
  S  S133  1  0.57004222  0.16084623  0.37306666  1
  S  S134  1  0.56878536  0.17289335  0.70789545  1
  S  S135  1  0.56164836  0.66412237  0.05276856  1
  S  S136  1  0.56414539  0.66618620  0.38029226  1
  S  S137  1  0.56253625  0.66674606  0.70343882  1
  S  S138  1  0.33151783  0.43232378  0.12354379  1
  S  S139  1  0.33302016  0.43687929  0.45838791  1
  S  S140  1  0.32647821  0.43084803  0.78931715  1
  S  S141  1  0.33391171  0.93560930  0.12676912  1
  S  S142  1  0.32224131  0.92572993  0.45698244  1
  S  S143  1  0.34860103  0.92914478  0.79865704  1
  S  S144  1  0.83399643  0.43278316  0.12441294  1
  S  S145  1  0.83207586  0.43428669  0.45886509  1
  S  S146  1  0.82815801  0.43625481  0.79047128  1
  S  S147  1  0.83181271  0.93366981  0.12320113  1
  S  S148  1  0.82643011  0.93145390  0.46168974  1
  S  S149  1  0.82831804  0.93493469  0.78996426  1
  S  S150  1  0.43861306  0.33320051  0.29067879  1
  S  S151  1  0.42965682  0.32701171  0.62138025  1
  S  S152  1  0.43070773  0.33199856  0.95605194  1
  S  S153  1  0.42828148  0.82836396  0.29592428  1
  S  S154  1  0.42985278  0.82404962  0.62507329  1
  S  S155  1  0.43146449  0.81716487  0.95656480  1
  S  S156  1  0.93578660  0.33469001  0.29046541  1
  S  S157  1  0.93507391  0.33732551  0.62512189  1
  S  S158  1  0.93248915  0.33684137  0.95874284  1
  S  S159  1  0.93308566  0.83362032  0.28449646  1
  S  S160  1  0.93367208  0.82911053  0.62989051  1
  S  S161  1  0.93130902  0.82999430  0.95759694  1
  S  S162  1  0.17997617  0.07372981  0.20985430  1
  S  S163  1  0.16822708  0.06373534  0.53844574  1
  S  S164  1  0.16379829  0.06879886  0.87191719  1
  S  S165  1  0.16727539  0.55731977  0.21037193  1
  S  S166  1  0.16660766  0.56409617  0.54255809  1
  S  S167  1  0.16600599  0.56738203  0.87636605  1
  S  S168  1  0.67040662  0.06866709  0.20559272  1
  S  S169  1  0.67140049  0.06984743  0.54260711  1
  S  S170  1  0.67077303  0.07452266  0.87423259  1
  S  S171  1  0.66825901  0.56601989  0.21580850  1
  S  S172  1  0.67113320  0.56710747  0.54483881  1
  S  S173  1  0.65944822  0.55578582  0.85845788  1
  O  O174  1  0.37007288  0.22622838  0.07658147  1
  O  O175  1  0.36634892  0.20807642  0.40356810  1
  O  O176  1  0.37267753  0.21913652  0.73733918  1
  O  O177  1  0.36437885  0.71529835  0.07995820  1
  O  O178  1  0.36773184  0.72036077  0.41103624  1
  O  O179  1  0.37168349  0.72020439  0.74609767  1
  O  O180  1  0.86942755  0.21900422  0.07189649  1
  O  O181  1  0.87177599  0.22442675  0.41576758  1
  O  O182  1  0.86506265  0.22497260  0.74039748  1
  O  O183  1  0.87356835  0.72097808  0.07055700  1
  O  O184  1  0.86298151  0.71609840  0.40949972  1
  O  O185  1  0.87672908  0.71868161  0.74040305  1
  O  O186  1  0.28158459  0.13316198  0.08253818  1
  O  O187  1  0.28329515  0.12231533  0.42884721  1
  O  O188  1  0.28592991  0.13508892  0.76042489  1
  O  O189  1  0.27959744  0.62425035  0.09637829  1
  O  O190  1  0.27967380  0.63092752  0.42549022  1
  O  O191  1  0.27456076  0.63463672  0.75244869  1
  O  O192  1  0.78166483  0.13343005  0.09252908  1
  O  O193  1  0.78487492  0.12999585  0.42390342  1
  O  O194  1  0.77547838  0.13553327  0.75308031  1
  O  O195  1  0.78222374  0.63635286  0.08887237  1
  O  O196  1  0.78322564  0.62637335  0.43389553  1
  O  O197  1  0.78178442  0.63454556  0.75017753  1
  O  O198  1  0.13372894  0.27535310  0.25629450  1
  O  O199  1  0.13095048  0.28125583  0.58964152  1
  O  O200  1  0.12868900  0.28279112  0.92269363  1
  O  O201  1  0.12978518  0.79614362  0.26728350  1
  O  O202  1  0.13433087  0.77303166  0.59066713  1
  O  O203  1  0.12926040  0.77758896  0.92817221  1
  O  O204  1  0.62874945  0.28351032  0.25555325  1
  O  O205  1  0.63165428  0.28166748  0.58399630  1
  O  O206  1  0.63093907  0.28294577  0.92540733  1
  O  O207  1  0.61926641  0.78181863  0.26953352  1
  O  O208  1  0.63291021  0.77830592  0.59272461  1
  O  O209  1  0.64827729  0.79297188  0.93934130  1
  O  O210  1  0.22438525  0.36308122  0.24404062  1
  O  O211  1  0.21754333  0.36902043  0.57164564  1
  O  O212  1  0.21574471  0.36979072  0.90474040  1
  O  O213  1  0.21172624  0.87890261  0.23664062  1
  O  O214  1  0.22937773  0.86500958  0.59361631  1
  O  O215  1  0.21850803  0.86162371  0.90713802  1
  O  O216  1  0.71630085  0.37287136  0.24057682  1
  O  O217  1  0.72661829  0.36977497  0.57941462  1
  O  O218  1  0.71767979  0.37158630  0.90920337  1
  O  O219  1  0.71387751  0.85613336  0.24597011  1
  O  O220  1  0.72067134  0.86866214  0.57837340  1
  O  O221  1  0.71560701  0.88427249  0.90102941  1
  O  O222  1  0.41792244  0.13902533  0.15257944  1
  O  O223  1  0.42147182  0.13074646  0.48827925  1
  O  O224  1  0.42483758  0.13444131  0.81604390  1
  O  O225  1  0.41774880  0.62533336  0.15300464  1
  O  O226  1  0.41796936  0.62816164  0.48134586  1
  O  O227  1  0.41102840  0.62231234  0.81249685  1
  O  O228  1  0.91986808  0.13887860  0.15372087  1
  O  O229  1  0.92231705  0.13387369  0.48691802  1
  O  O230  1  0.91256530  0.14290497  0.82094411  1
  O  O231  1  0.92048144  0.63324525  0.14786440  1
  O  O232  1  0.92158700  0.63100132  0.48586542  1
  O  O233  1  0.91827240  0.63060997  0.81816693  1
  O  O234  1  0.37731993  0.08964121  0.01518104  1
  O  O235  1  0.37286171  0.06899966  0.35481989  1
  O  O236  1  0.36825623  0.08007860  0.68095795  1
  O  O237  1  0.36460744  0.57782429  0.01716093  1
  O  O238  1  0.36359687  0.58327784  0.34522650  1
  O  O239  1  0.35926762  0.58356241  0.67566096  1
  O  O240  1  0.86810103  0.08013250  0.01696634  1
  O  O241  1  0.87634975  0.08648009  0.35099109  1
  O  O242  1  0.86833915  0.08646484  0.68411151  1
  O  O243  1  0.86898022  0.58322185  0.01242844  1
  O  O244  1  0.86660332  0.57762019  0.35142767  1
  O  O245  1  0.87447433  0.57937512  0.68267392  1
  O  O246  1  0.08645497  0.36520307  0.18250116  1
  O  O247  1  0.07883650  0.37036063  0.51577645  1
  O  O248  1  0.07756795  0.37363374  0.85051125  1
  O  O249  1  0.07486496  0.86374268  0.17270951  1
  O  O250  1  0.09534308  0.86304327  0.51641961  1
  O  O251  1  0.08101612  0.86424348  0.85157559  1
  O  O252  1  0.57808551  0.37363953  0.18238249  1
  O  O253  1  0.58985295  0.37210365  0.50972356  1
  O  O254  1  0.57964060  0.36621402  0.84561482  1
  O  O255  1  0.57653232  0.86356425  0.18455146  1
  O  O256  1  0.58233088  0.86410902  0.51648422  1
  O  O257  1  0.57934870  0.85394299  0.84413443  1
  O  O258  1  0.13622153  0.41257719  0.31906384  1
  O  O259  1  0.13302824  0.41965599  0.65124697  1
  O  O260  1  0.13343149  0.42030021  0.98627816  1
  O  O261  1  0.11867067  0.93472070  0.30482413  1
  O  O262  1  0.12961300  0.90964476  0.65409264  1
  O  O263  1  0.13822968  0.91562039  0.98817214  1
  O  O264  1  0.62923230  0.42094462  0.31820423  1
  O  O265  1  0.63105572  0.41930227  0.64575482  1
  O  O266  1  0.62708724  0.42185187  0.98127561  1
  O  O267  1  0.62865224  0.92118598  0.31860030  1
  O  O268  1  0.63314423  0.91645638  0.65354460  1
  O  O269  1  0.62633849  0.92897167  0.97621775  1
  O  O270  1  0.03239652  0.20410279  0.10284700  1
  O  O271  1  0.03311019  0.20375070  0.43633022  1
  O  O272  1  0.02658953  0.21201854  0.76991979  1
  O  O273  1  0.03213277  0.70444749  0.10149260  1
  O  O274  1  0.03854010  0.68218155  0.44046403  1
  O  O275  1  0.03289832  0.69482936  0.77232431  1
  O  O276  1  0.53443731  0.20503626  0.10355962  1
  O  O277  1  0.53143104  0.17859316  0.43121091  1
  O  O278  1  0.53381611  0.20529454  0.76992007  1
  O  O279  1  0.52308771  0.70213698  0.11369887  1
  O  O280  1  0.52813481  0.69857837  0.44119276  1
  O  O281  1  0.52678977  0.69640676  0.76378638  1
  O  O282  1  0.29810318  0.46445592  0.06042793  1
  O  O283  1  0.29711180  0.47040759  0.39508996  1
  O  O284  1  0.29709893  0.46911856  0.72900794  1
  O  O285  1  0.30721851  0.97574704  0.07034775  1
  O  O286  1  0.29020050  0.95967311  0.39420552  1
  O  O287  1  0.33870191  0.96378205  0.73747016  1
  O  O288  1  0.80986421  0.46581321  0.06286633  1
  O  O289  1  0.79822471  0.46460771  0.39453525  1
  O  O290  1  0.79814382  0.47361844  0.73053901  1
  O  O291  1  0.79804571  0.96366424  0.05644266  1
  O  O292  1  0.79745254  0.97130128  0.40401518  1
  O  O293  1  0.79930195  0.97700983  0.73204903  1
  O  O294  1  0.46869311  0.30085982  0.22518720  1
  O  O295  1  0.46977503  0.30121903  0.56442859  1
  O  O296  1  0.46668465  0.30281412  0.89469077  1
  O  O297  1  0.45933486  0.79583723  0.23193073  1
  O  O298  1  0.47082294  0.79604647  0.56632847  1
  O  O299  1  0.47091228  0.78806346  0.89725443  1
  O  O300  1  0.97263187  0.30502078  0.22991743  1
  O  O301  1  0.97167897  0.30730696  0.56506382  1
  O  O302  1  0.96703991  0.30537661  0.89637817  1
  O  O303  1  0.96535732  0.80840127  0.21902620  1
  O  O304  1  0.96887756  0.79946027  0.56995747  1
  O  O305  1  0.96899186  0.79738740  0.89679326  1
  O  O306  1  0.21151159  0.04041714  0.27290969  1
  O  O307  1  0.19880216  0.02842233  0.59815375  1
  O  O308  1  0.18369157  0.04038135  0.93723552  1
  O  O309  1  0.20519342  0.52067369  0.27077059  1
  O  O310  1  0.19750920  0.52822156  0.60397070  1
  O  O311  1  0.19621491  0.53109257  0.93752271  1
  O  O312  1  0.69261904  0.03246094  0.26543880  1
  O  O313  1  0.69842046  0.03164845  0.60291999  1
  O  O314  1  0.70092113  0.04479616  0.93862179  1
  O  O315  1  0.70261036  0.53557221  0.28253675  1
  O  O316  1  0.70195592  0.53157222  0.60606305  1
  O  O317  1  0.70099458  0.53651403  0.92831849  1
  O  O318  1  0.09813002  0.09766563  0.04593350  1
  O  O319  1  0.08572890  0.09129135  0.36848464  1
  O  O320  1  0.08740408  0.10333016  0.70810627  1
  O  O321  1  0.07992760  0.58636219  0.04032703  1
  O  O322  1  0.08590651  0.57342308  0.36553695  1
  O  O323  1  0.08349358  0.58430643  0.70204748  1
  O  O324  1  0.59028007  0.09475553  0.03769113  1
  O  O325  1  0.58782604  0.07711415  0.35745121  1
  O  O326  1  0.58549828  0.09181577  0.70496793  1
  O  O327  1  0.58177448  0.58767454  0.06165685  1
  O  O328  1  0.57979870  0.58337980  0.37636906  1
  O  O329  1  0.58208346  0.58534033  0.69758373  1
  O  O330  1  0.41461783  0.41783023  0.12799947  1
  O  O331  1  0.41568988  0.42944400  0.46612701  1
  O  O332  1  0.40782473  0.41407254  0.79672150  1
  O  O333  1  0.41449660  0.91184060  0.13116473  1
  O  O334  1  0.40395035  0.90964034  0.46002282  1
  O  O335  1  0.42734895  0.89627240  0.81013031  1
  O  O336  1  0.91705241  0.41285880  0.13512770  1
  O  O337  1  0.91518143  0.41906284  0.46281147  1
  O  O338  1  0.91200827  0.42226617  0.79579659  1
  O  O339  1  0.90556867  0.89752827  0.11546743  1
  O  O340  1  0.90469972  0.91084975  0.46502806  1
  O  O341  1  0.90808240  0.91588585  0.79241399  1
  O  O342  1  0.41806523  0.41529517  0.29245892  1
  O  O343  1  0.40690606  0.40712988  0.62313100  1
  O  O344  1  0.41244791  0.41405933  0.96248776  1
  O  O345  1  0.41473000  0.91188892  0.30358785  1
  O  O346  1  0.41209752  0.90487802  0.62923584  1
  O  O347  1  0.40669526  0.89370831  0.95916471  1
  O  O348  1  0.91785789  0.41713274  0.29590124  1
  O  O349  1  0.91792789  0.42005502  0.62910846  1
  O  O350  1  0.91669818  0.41917201  0.96461363  1
  O  O351  1  0.91819375  0.91621509  0.29596992  1
  O  O352  1  0.91669233  0.91165566  0.63670719  1
  O  O353  1  0.92361411  0.91336250  0.96573540  1
  O  O354  1  0.09964039  0.09285392  0.20800435  1
  O  O355  1  0.08667819  0.08421793  0.53378367  1
  O  O356  1  0.08168235  0.09162732  0.85639303  1
  O  O357  1  0.08502408  0.56260387  0.20534902  1
  O  O358  1  0.08445852  0.58027009  0.53870401  1
  O  O359  1  0.08311290  0.58287244  0.87066871  1
  O  O360  1  0.58681528  0.08739573  0.19434953  1
  O  O361  1  0.59202139  0.09370537  0.53965474  1
  O  O362  1  0.58787290  0.09161064  0.86503424  1
  O  O363  1  0.58525538  0.58176952  0.21456121  1
  O  O364  1  0.58863943  0.58284878  0.53852242  1
  O  O365  1  0.58016437  0.57008489  0.85657719  1
  O  O366  1  0.14153499  0.23221758  0.06195109  1
  O  O367  1  0.14208822  0.22462598  0.39291696  1
  O  O368  1  0.13634736  0.23642145  0.72839939  1
  O  O369  1  0.13621768  0.71446801  0.04710413  1
  O  O370  1  0.13258952  0.70859757  0.38206960  1
  O  O371  1  0.14029934  0.71917160  0.72735097  1
  O  O372  1  0.64276569  0.22918105  0.06072543  1
  O  O373  1  0.64106189  0.21478148  0.39430619  1
  O  O374  1  0.64096150  0.22422301  0.72322867  1
  O  O375  1  0.63012841  0.71784802  0.06677029  1
  O  O376  1  0.63639177  0.71535144  0.39558298  1
  O  O377  1  0.63141707  0.71904577  0.71493604  1
  O  O378  1  0.28277195  0.36029019  0.11122739  1
  O  O379  1  0.28612182  0.36169981  0.44172605  1
  O  O380  1  0.27372149  0.35923451  0.77086079  1
  O  O381  1  0.27945108  0.86613193  0.11075535  1
  O  O382  1  0.27138533  0.85348502  0.44171427  1
  O  O383  1  0.28602751  0.86418452  0.77708248  1
  O  O384  1  0.78119408  0.36267633  0.11077089  1
  O  O385  1  0.78396950  0.36387420  0.44987273  1
  O  O386  1  0.77976392  0.36247651  0.77298817  1
  O  O387  1  0.77363269  0.87518017  0.12056112  1
  O  O388  1  0.77006215  0.86141276  0.44380405  1
  O  O389  1  0.77401979  0.86451321  0.76923487  1
  O  O390  1  0.36754569  0.28264182  0.27857574  1
  O  O391  1  0.35971872  0.27287031  0.60541109  1
  O  O392  1  0.36029889  0.27969803  0.94103898  1
  O  O393  1  0.35650133  0.78052245  0.28472342  1
  O  O394  1  0.35833035  0.76928473  0.60265384  1
  O  O395  1  0.36333149  0.75935735  0.93996728  1
  O  O396  1  0.86515765  0.28327277  0.27551657  1
  O  O397  1  0.86359195  0.28630967  0.61002598  1
  O  O398  1  0.86081309  0.28594662  0.94416813  1
  O  O399  1  0.85939106  0.78086013  0.26209338  1
  O  O400  1  0.86040007  0.77918183  0.61430805  1
  O  O401  1  0.85634254  0.78496568  0.93831997  1
  O  O402  1  0.23273881  0.14480025  0.22444071  1
  O  O403  1  0.21975617  0.13618533  0.55322080  1
  O  O404  1  0.21932789  0.14020047  0.89039968  1
  O  O405  1  0.21246624  0.63264852  0.22765495  1
  O  O406  1  0.21769081  0.63515089  0.55702605  1
  O  O407  1  0.21685661  0.63824471  0.89118112  1
  O  O408  1  0.72253428  0.14024589  0.22336119  1
  O  O409  1  0.72814608  0.13830153  0.55949564  1
  O  O410  1  0.72197689  0.14581895  0.88677467  1
  O  O411  1  0.71646851  0.63824530  0.22921910  1
  O  O412  1  0.72166950  0.63875001  0.55985156  1
  O  O413  1  0.70500488  0.62088074  0.85129111  1
  O  O414  1  0.49193882  0.33570449  0.02846152  1
  O  O415  1  0.50072313  0.34058644  0.36068038  1
  O  O416  1  0.48690103  0.33407974  0.69674494  1
  O  O417  1  0.49117285  0.81968196  0.02956551  1
  O  O418  1  0.49072690  0.82986741  0.36731069  1
  O  O419  1  0.48545846  0.82362761  0.69853490  1
  O  O420  1  0.99262821  0.33655173  0.03033516  1
  O  O421  1  0.99545152  0.33823430  0.36385822  1
  O  O422  1  0.99311421  0.34317609  0.69962472  1
  O  O423  1  0.98923293  0.82276003  0.02819614  1
  O  O424  1  0.99064322  0.82549215  0.35123117  1
  O  O425  1  0.99249739  0.83130459  0.70331176  1
  O  O426  1  0.17719156  0.01378836  0.13812913  1
  O  O427  1  0.16276092  0.00573180  0.46366205  1
  O  O428  1  0.16684962  0.00758112  0.80474722  1
  O  O429  1  0.17101462  0.50215121  0.13718770  1
  O  O430  1  0.16387806  0.50409612  0.47007296  1
  O  O431  1  0.16293304  0.50780504  0.80316386  1
  O  O432  1  0.67141346  0.00950161  0.13388046  1
  O  O433  1  0.66494009  0.01075043  0.46890557  1
  O  O434  1  0.66930131  0.01253115  0.80312933  1
  O  O435  1  0.66481591  0.50247890  0.14832659  1
  O  O436  1  0.66844439  0.50655361  0.47201764  1
  O  O437  1  0.65914475  0.48653664  0.79113932  1
  O  O438  1  0.01107593  0.17346620  0.30304751  1
  O  O439  1  0.00794122  0.18048157  0.63734621  1
  O  O440  1  0.01463785  0.16996901  0.97081378  1
  O  O441  1  -0.00208783  0.64882296  0.30460644  1
  O  O442  1  0.00910952  0.66732124  0.63822416  1
  O  O443  1  0.00227275  0.65832294  0.96587498  1
  O  O444  1  0.51217259  0.16604500  0.30167439  1
  O  O445  1  0.51000415  0.17252332  0.63625218  1
  O  O446  1  0.51213714  0.17387541  0.97049506  1
  O  O447  1  0.50435975  0.66244709  0.30726453  1
  O  O448  1  0.50110273  0.66038411  0.62945046  1
  O  O449  1  0.50334765  0.65047610  0.97857993  1
  O  O450  1  0.33496874  0.49280069  0.19585720  1
  O  O451  1  0.32673288  0.49396409  0.52891250  1
  O  O452  1  0.32453866  0.48948827  0.86099937  1
  O  O453  1  0.34200583  0.99321412  0.20331127  1
  O  O454  1  0.32449555  0.98479135  0.52927468  1
  O  O455  1  0.35362845  0.99097332  0.86830929  1
  O  O456  1  0.83642537  0.49426822  0.19679598  1
  O  O457  1  0.83690635  0.49749648  0.53054051  1
  O  O458  1  0.83116156  0.49373554  0.86390134  1
  O  O459  1  0.85554081  1.00199398  0.19116973  1
  O  O460  1  0.82764487  0.98925896  0.53641209  1
  O  O461  1  0.83064858  0.99157498  0.86377542  1
