# generated using pymatgen
data_Na31Fe20(SO4)36
_symmetry_space_group_name_H-M   'P 1'
_cell_length_a   18.07636164
_cell_length_b   18.08038763
_cell_length_c   19.71648023
_cell_angle_alpha   107.59017462
_cell_angle_beta   107.57769888
_cell_angle_gamma   90.75809632
_symmetry_Int_Tables_number   1
_chemical_formula_structural   Na31Fe20(SO4)36
_chemical_formula_sum   'Na62 Fe40 S72 O288'
_cell_volume   5816.93755244
_cell_formula_units_Z   2
loop_
 _symmetry_equiv_pos_site_id
 _symmetry_equiv_pos_as_xyz
  1  'x, y, z'
loop_
 _atom_site_type_symbol
 _atom_site_label
 _atom_site_symmetry_multiplicity
 _atom_site_fract_x
 _atom_site_fract_y
 _atom_site_fract_z
 _atom_site_occupancy
  Na  Na0  1  0.12996172  0.37144782  0.08389232  1
  Na  Na1  1  0.13132523  0.36359415  0.41312366  1
  Na  Na2  1  0.13537795  0.36500610  0.74986329  1
  Na  Na3  1  0.13095159  0.85276952  0.07507655  1
  Na  Na4  1  0.13666252  0.85840403  0.41542433  1
  Na  Na5  1  0.14162686  0.86948042  0.75040107  1
  Na  Na6  1  0.62984104  0.37058133  0.08596354  1
  Na  Na7  1  0.63525140  0.37216074  0.42185864  1
  Na  Na8  1  0.63475776  0.36746973  0.74846757  1
  Na  Na9  1  0.65027731  0.87397992  0.08882652  1
  Na  Na10  1  0.64609185  0.87220175  0.43291096  1
  Na  Na11  1  0.62693526  0.84152652  0.73767460  1
  Na  Na12  1  0.36408162  0.13076415  0.24856105  1
  Na  Na13  1  0.36548636  0.13325662  0.58382436  1
  Na  Na14  1  0.36205409  0.13147119  0.90699024  1
  Na  Na15  1  0.37437837  0.63653226  0.25946799  1
  Na  Na16  1  0.37432455  0.65481482  0.60105080  1
  Na  Na17  1  0.36085832  0.63967665  0.91666665  1
  Na  Na18  1  0.85904877  0.12299830  0.24398443  1
  Na  Na19  1  0.85881551  0.12810966  0.57707743  1
  Na  Na20  1  0.86329917  0.13300547  0.91397030  1
  Na  Na21  1  0.86139569  0.63678966  0.24569560  1
  Na  Na22  1  0.86527203  0.63312299  0.58587140  1
  Na  Na23  1  0.87272738  0.65225477  0.92583226  1
  Na  Na24  1  0.95769098  0.00499194  0.41956273  1
  Na  Na25  1  0.99617186  0.55615625  0.76893027  1
  Na  Na26  1  0.50895556  -0.02556866  0.76021677  1
  Na  Na27  1  1.00140190  -0.01498975  0.09375842  1
  Na  Na28  1  0.49573386  0.52562840  0.73618080  1
  Na  Na29  1  0.98902696  0.51519718  0.40908883  1
  Na  Na30  1  0.49197660  0.00525751  0.41959118  1
  Na  Na31  1  0.51310662  -0.00475267  0.07868872  1
  Na  Na32  1  0.97070237  0.01273699  0.69312762  1
  Na  Na33  1  0.00793095  0.97969316  0.90899013  1
  Na  Na34  1  -0.00643957  0.51094774  0.92547631  1
  Na  Na35  1  0.00858090  0.49261209  0.58533334  1
  Na  Na36  1  0.50497741  0.97749827  0.59094287  1
  Na  Na37  1  0.52406633  0.98618392  0.25206852  1
  Na  Na38  1  0.00034775  0.95010382  0.24685669  1
  Na  Na39  1  0.50482661  0.50021316  0.92318983  1
  Na  Na40  1  0.52279413  0.97303714  0.91850089  1
  Na  Na41  1  0.00142252  0.51461042  0.22074007  1
  Na  Na42  1  0.24113540  0.23383126  0.67375900  1
  Na  Na43  1  0.24730132  0.24701479  -0.00101420  1
  Na  Na44  1  0.75763483  0.76284253  0.33160753  1
  Na  Na45  1  0.75991752  0.25898560  0.65480678  1
  Na  Na46  1  0.73089013  0.73494225  0.67440855  1
  Na  Na47  1  0.73798355  0.23480692  0.00950856  1
  Na  Na48  1  0.25261879  0.25254650  0.33180157  1
  Na  Na49  1  0.76393001  0.76605771  -0.01580618  1
  Na  Na50  1  0.23726992  0.74045484  -0.00024068  1
  Na  Na51  1  0.73797308  0.23628501  0.35217583  1
  Na  Na52  1  0.26792552  0.76256606  0.81337515  1
  Na  Na53  1  0.74637574  0.75426697  0.50956333  1
  Na  Na54  1  0.75252885  0.25195052  0.83129918  1
  Na  Na55  1  0.24710766  0.74813020  0.50486394  1
  Na  Na56  1  0.24697646  0.24587769  0.50202256  1
  Na  Na57  1  0.23922650  0.23563754  0.83611048  1
  Na  Na58  1  0.77761276  0.77668067  0.15952162  1
  Na  Na59  1  0.25413791  0.25735353  0.16476196  1
  Na  Na60  1  0.73483493  0.23099839  0.17501394  1
  Na  Na61  1  0.23747016  0.73785115  0.17997762  1
  Fe  Fe62  1  0.96672803  0.31173225  0.78640991  1
  Fe  Fe63  1  0.46538831  0.80003575  0.45479845  1
  Fe  Fe64  1  0.96431714  0.81141002  0.46268848  1
  Fe  Fe65  1  0.46905091  0.30586760  0.78562427  1
  Fe  Fe66  1  0.46618344  0.80680872  0.11957722  1
  Fe  Fe67  1  0.96734454  0.30815170  0.11751099  1
  Fe  Fe68  1  0.96447578  0.30621811  0.45042301  1
  Fe  Fe69  1  0.46435195  0.30995543  0.12133336  1
  Fe  Fe70  1  0.46668809  0.31153751  0.45536842  1
  Fe  Fe71  1  0.96532492  0.80100371  0.78653742  1
  Fe  Fe72  1  0.68648090  0.53639499  0.70637686  1
  Fe  Fe73  1  0.19496391  0.53361811  0.71804146  1
  Fe  Fe74  1  0.19498417  0.53408618  0.04853793  1
  Fe  Fe75  1  0.70491229  0.02729494  0.38298564  1
  Fe  Fe76  1  0.19286043  0.03183092  0.37924362  1
  Fe  Fe77  1  0.69337623  0.53722705  0.04830972  1
  Fe  Fe78  1  0.68525279  0.53874021  0.37863499  1
  Fe  Fe79  1  0.70017804  0.02907808  0.70852145  1
  Fe  Fe80  1  0.19442484  0.53854113  0.38229127  1
  Fe  Fe81  1  0.19322763  0.03392394  0.04598272  1
  Fe  Fe82  1  0.03372896  0.19401849  0.21358602  1
  Fe  Fe83  1  0.03369624  0.69652090  0.21004691  1
  Fe  Fe84  1  0.53129362  0.19462598  0.21578141  1
  Fe  Fe85  1  0.04074162  0.68990261  0.54869260  1
  Fe  Fe86  1  0.53435232  0.70122770  0.87792156  1
  Fe  Fe87  1  0.53586188  0.19504875  0.54833723  1
  Fe  Fe88  1  0.03377423  0.19306858  0.54786490  1
  Fe  Fe89  1  0.03468971  0.19081058  0.87841072  1
  Fe  Fe90  1  0.53667556  0.18952815  0.88000674  1
  Fe  Fe91  1  0.53777246  0.68866354  0.21091878  1
  Fe  Fe92  1  0.80350648  0.96988726  0.95897130  1
  Fe  Fe93  1  0.31151806  0.47077649  0.29224294  1
  Fe  Fe94  1  0.31331849  0.46340312  0.95631767  1
  Fe  Fe95  1  0.30661278  0.46532830  0.61919071  1
  Fe  Fe96  1  0.29884868  0.96969367  0.62466160  1
  Fe  Fe97  1  0.80764446  0.46668845  0.95315722  1
  Fe  Fe98  1  0.80376640  0.46452159  0.28333155  1
  Fe  Fe99  1  0.80844653  0.46534197  0.61687275  1
  Fe  Fe100  1  0.30636500  0.96797674  0.94813758  1
  Fe  Fe101  1  0.30923870  0.96317666  0.28658272  1
  S  S102  1  0.35720293  0.14216964  0.08489321  1
  S  S103  1  0.35990235  0.13985570  0.41686680  1
  S  S104  1  0.36259450  0.14331171  0.74779544  1
  S  S105  1  0.36169656  0.64145898  0.08264752  1
  S  S106  1  0.35585238  0.64413357  0.41832101  1
  S  S107  1  0.36066062  0.63668364  0.75450798  1
  S  S108  1  0.86106615  0.14519710  0.08139864  1
  S  S109  1  0.86144611  0.14267286  0.41618681  1
  S  S110  1  0.85987671  0.14794785  0.75214801  1
  S  S111  1  0.85937784  0.63802956  0.08379381  1
  S  S112  1  0.85908268  0.63859135  0.41619765  1
  S  S113  1  0.85637407  0.63887029  0.74961686  1
  S  S114  1  0.14029662  0.36241570  0.25130998  1
  S  S115  1  0.13953806  0.35984646  0.58278932  1
  S  S116  1  0.14283613  0.35796860  0.91708433  1
  S  S117  1  0.14289244  0.86041558  0.24752210  1
  S  S118  1  0.14017947  0.85417348  0.58064804  1
  S  S119  1  0.14183788  0.86049170  0.91537317  1
  S  S120  1  0.64100173  0.35845835  0.25085456  1
  S  S121  1  0.64270543  0.35889669  0.58376942  1
  S  S122  1  0.64070072  0.35986098  0.91901297  1
  S  S123  1  0.64126155  0.85708826  0.24933924  1
  S  S124  1  0.63418337  0.86044933  0.58325155  1
  S  S125  1  0.64243547  0.86332760  0.91673350  1
  S  S126  1  0.06911932  0.17067361  0.04269152  1
  S  S127  1  0.06736556  0.16863375  0.37352099  1
  S  S128  1  0.06372903  0.17360604  0.71055502  1
  S  S129  1  0.06957373  0.66485766  0.04238774  1
  S  S130  1  0.06248586  0.66130011  0.37144900  1
  S  S131  1  0.06834299  0.66617552  0.70840093  1
  S  S132  1  0.55714073  0.16782980  0.04094070  1
  S  S133  1  0.56090438  0.16909742  0.37602909  1
  S  S134  1  0.57088258  0.16989511  0.70851488  1
  S  S135  1  0.57218115  0.67589284  0.04354503  1
  S  S136  1  0.56917683  0.67808813  0.37697655  1
  S  S137  1  0.56436686  0.66034827  0.70556993  1
  S  S138  1  0.32598074  0.43019018  0.12342949  1
  S  S139  1  0.32498601  0.42969349  0.45618790  1
  S  S140  1  0.33309570  0.42856257  0.79156352  1
  S  S141  1  0.33143501  0.93320859  0.12381707  1
  S  S142  1  0.32989726  0.93178626  0.45747025  1
  S  S143  1  0.33667869  0.94126291  0.79448856  1
  S  S144  1  0.82770617  0.42904577  0.12222918  1
  S  S145  1  0.83482243  0.43425720  0.45595078  1
  S  S146  1  0.83033772  0.43447335  0.79149148  1
  S  S147  1  0.83430681  0.94095989  0.12282651  1
  S  S148  1  0.83306730  0.93491643  0.46730081  1
  S  S149  1  0.82600434  0.93055779  0.79078596  1
  S  S150  1  0.42934256  0.32707207  0.29027314  1
  S  S151  1  0.43289203  0.33067569  0.62423829  1
  S  S152  1  0.43316915  0.32883006  0.95631196  1
  S  S153  1  0.43271746  0.83104041  0.29160923  1
  S  S154  1  0.42860911  0.83949500  0.62301486  1
  S  S155  1  0.43409222  0.83284954  0.95925114  1
  S  S156  1  0.93104667  0.32949237  0.28853149  1
  S  S157  1  0.93611714  0.33465088  0.62640136  1
  S  S158  1  0.93460411  0.33328706  0.95584063  1
  S  S159  1  0.93667682  0.82463872  0.29664335  1
  S  S160  1  0.93362200  0.81870231  0.62247843  1
  S  S161  1  0.93485126  0.84160711  0.95966705  1
  S  S162  1  0.16995450  0.06899026  0.20941159  1
  S  S163  1  0.16891057  0.06930238  0.53905508  1
  S  S164  1  0.16601022  0.06577488  0.87532335  1
  S  S165  1  0.17552599  0.56790393  0.21030823  1
  S  S166  1  0.17009385  0.56285000  0.53964860  1
  S  S167  1  0.17131544  0.55574178  0.87852956  1
  S  S168  1  0.65886296  0.06635940  0.21193972  1
  S  S169  1  0.66706755  0.07144574  0.54144757  1
  S  S170  1  0.67251624  0.06750102  0.87351238  1
  S  S171  1  0.67129794  0.56753580  0.21093840  1
  S  S172  1  0.67322989  0.56560743  0.54188218  1
  S  S173  1  0.66940031  0.56579214  0.87683907  1
  O  O174  1  0.36344566  0.22334771  0.08057290  1
  O  O175  1  0.36794953  0.21865671  0.40871806  1
  O  O176  1  0.37832290  0.22052157  0.73600253  1
  O  O177  1  0.37055258  0.71981378  0.07209860  1
  O  O178  1  0.36980778  0.72173214  0.40582629  1
  O  O179  1  0.36563414  0.71264014  0.74511408  1
  O  O180  1  0.87738635  0.22118233  0.06839841  1
  O  O181  1  0.87081741  0.22398165  0.41124422  1
  O  O182  1  0.86547541  0.23076928  0.75057954  1
  O  O183  1  0.86444850  0.71593050  0.07703931  1
  O  O184  1  0.86979059  0.71818197  0.41064898  1
  O  O185  1  0.86590573  0.71606274  0.73819556  1
  O  O186  1  0.27841649  0.13134345  0.09394270  1
  O  O187  1  0.28042901  0.12971397  0.42345408  1
  O  O188  1  0.28611638  0.14297090  0.75853323  1
  O  O189  1  0.28161796  0.63277288  0.08828503  1
  O  O190  1  0.27128425  0.63735463  0.41509079  1
  O  O191  1  0.28266020  0.62224602  0.76563186  1
  O  O192  1  0.78430541  0.14473927  0.09129519  1
  O  O193  1  0.78120060  0.13291878  0.42035038  1
  O  O194  1  0.78064419  0.13375493  0.75800993  1
  O  O195  1  0.78262490  0.62481082  0.09721807  1
  O  O196  1  0.78022056  0.62981624  0.42399609  1
  O  O197  1  0.77448475  0.62745176  0.74871205  1
  O  O198  1  0.12966340  0.28348870  0.25995205  1
  O  O199  1  0.13168938  0.28173480  0.59276096  1
  O  O200  1  0.13114216  0.27762897  0.92248126  1
  O  O201  1  0.13495236  0.78070521  0.25301141  1
  O  O202  1  0.13670498  0.76974343  0.57784377  1
  O  O203  1  0.13434999  0.78604979  0.92800541  1
  O  O204  1  0.63200881  0.27851587  0.25779362  1
  O  O205  1  0.63115295  0.28070599  0.59350349  1
  O  O206  1  0.63117750  0.28225756  0.92974270  1
  O  O207  1  0.62893237  0.77690200  0.25470339  1
  O  O208  1  0.62450446  0.78647956  0.59688286  1
  O  O209  1  0.63406775  0.78088471  0.91807402  1
  O  O210  1  0.21955330  0.36928738  0.24359780  1
  O  O211  1  0.21795088  0.36873477  0.57373244  1
  O  O212  1  0.22305421  0.36394142  0.91072718  1
  O  O213  1  0.22372475  0.87147402  0.24232148  1
  O  O214  1  0.21809407  0.87117829  0.57188611  1
  O  O215  1  0.22039639  0.87309804  0.90607836  1
  O  O216  1  0.71932501  0.36607213  0.24023689  1
  O  O217  1  0.72244704  0.36619903  0.57782590  1
  O  O218  1  0.71967840  0.36802186  0.91108182  1
  O  O219  1  0.71640754  0.86563635  0.23793272  1
  O  O220  1  0.70745929  0.87212033  0.56896390  1
  O  O221  1  0.72775159  0.87505111  0.92059215  1
  O  O222  1  0.41623314  0.13287873  0.15185408  1
  O  O223  1  0.41864007  0.13213913  0.48529663  1
  O  O224  1  0.42316112  0.13422708  0.81467161  1
  O  O225  1  0.41893715  0.63716116  0.15274128  1
  O  O226  1  0.40610298  0.64012091  0.48897161  1
  O  O227  1  0.42080524  0.62846820  0.82275793  1
  O  O228  1  0.92160296  0.13568689  0.14808615  1
  O  O229  1  0.91845504  0.13720714  0.48764538  1
  O  O230  1  0.91795782  0.14082084  0.82201920  1
  O  O231  1  0.92110469  0.62713767  0.14941508  1
  O  O232  1  0.91863480  0.62593961  0.48175572  1
  O  O233  1  0.91134229  0.63320968  0.81922403  1
  O  O234  1  0.36481025  0.08652052  0.01561041  1
  O  O235  1  0.36958882  0.08010422  0.34968620  1
  O  O236  1  0.36609243  0.08238737  0.67904722  1
  O  O237  1  0.37140370  0.58151414  0.01596602  1
  O  O238  1  0.36574609  0.58324334  0.35153594  1
  O  O239  1  0.36857857  0.57427909  0.68712793  1
  O  O240  1  0.86503876  0.08334082  0.01210884  1
  O  O241  1  0.87527028  0.08572235  0.35217226  1
  O  O242  1  0.87223473  0.09467827  0.68552522  1
  O  O243  1  0.86359566  0.57877448  0.01348150  1
  O  O244  1  0.86609449  0.58034465  0.34619176  1
  O  O245  1  0.87155369  0.57824628  0.68412841  1
  O  O246  1  0.08135349  0.36996776  0.18263634  1
  O  O247  1  0.07961429  0.36657211  0.51431759  1
  O  O248  1  0.08585924  0.36833645  0.84945942  1
  O  O249  1  0.08568618  0.87344720  0.18281466  1
  O  O250  1  0.08078787  0.86123007  0.51150525  1
  O  O251  1  0.08163304  0.86743537  0.84704765  1
  O  O252  1  0.58109350  0.36589420  0.18340859  1
  O  O253  1  0.58445591  0.36456499  0.51453913  1
  O  O254  1  0.58214632  0.36583229  0.84944028  1
  O  O255  1  0.57752641  0.87006505  0.18529942  1
  O  O256  1  0.56903598  0.86767228  0.51414878  1
  O  O257  1  0.59200485  0.87491474  0.84755463  1
  O  O258  1  0.13208249  0.42194093  0.31832400  1
  O  O259  1  0.13077325  0.42043617  0.64965979  1
  O  O260  1  0.13510769  0.41539597  0.98554119  1
  O  O261  1  0.13531204  0.91750050  0.31825931  1
  O  O262  1  0.12955402  0.90520982  0.64841459  1
  O  O263  1  0.13326800  0.92460074  0.98205460  1
  O  O264  1  0.63629056  0.41654024  0.32010357  1
  O  O265  1  0.63411264  0.41794430  0.65132550  1
  O  O266  1  0.63047833  0.42105971  0.98482901  1
  O  O267  1  0.63515993  0.91396350  0.32045479  1
  O  O268  1  0.62419485  0.92565157  0.64824782  1
  O  O269  1  0.62699884  0.91661622  0.98281248  1
  O  O270  1  0.03807710  0.20378664  0.10711126  1
  O  O271  1  0.03298604  0.19932006  0.43612363  1
  O  O272  1  0.02704349  0.20986172  0.77180893  1
  O  O273  1  0.04052102  0.69095912  0.10705326  1
  O  O274  1  0.02378885  0.68396899  0.43061457  1
  O  O275  1  0.02856833  0.69341231  0.76519901  1
  O  O276  1  0.52192229  0.20510683  0.10251134  1
  O  O277  1  0.52624074  0.20334686  0.43834784  1
  O  O278  1  0.53808013  0.20038644  0.77238907  1
  O  O279  1  0.53239640  0.70201405  0.10272407  1
  O  O280  1  0.52747867  0.70766554  0.43309083  1
  O  O281  1  0.53386934  0.67468404  0.77077754  1
  O  O282  1  0.29767591  0.46896871  0.06352026  1
  O  O283  1  0.29554132  0.46906513  0.39706144  1
  O  O284  1  0.29974324  0.46058181  0.72806980  1
  O  O285  1  0.30366432  0.97072981  0.06356203  1
  O  O286  1  0.30200109  0.96932049  0.39605921  1
  O  O287  1  0.30471432  0.97426282  0.73310951  1
  O  O288  1  0.79776754  0.46407190  0.06072395  1
  O  O289  1  0.80541867  0.47011997  0.39503173  1
  O  O290  1  0.80164262  0.46792979  0.72918715  1
  O  O291  1  0.80658609  0.97868490  0.06175408  1
  O  O292  1  0.80427760  0.96953068  0.40475672  1
  O  O293  1  0.80243379  0.97489381  0.73711835  1
  O  O294  1  0.46766035  0.29714435  0.23020277  1
  O  O295  1  0.46900883  0.30146283  0.56278084  1
  O  O296  1  0.46979399  0.29731834  0.89576286  1
  O  O297  1  0.47166750  0.80324725  0.23280194  1
  O  O298  1  0.45405137  0.81759091  0.55420251  1
  O  O299  1  0.47176535  0.80368648  0.90131988  1
  O  O300  1  0.96816802  0.30124302  0.22775060  1
  O  O301  1  0.97188264  0.30293700  0.56490724  1
  O  O302  1  0.97416898  0.30362492  0.89731559  1
  O  O303  1  0.97331588  0.79512610  0.23669051  1
  O  O304  1  0.97515450  0.78658951  0.56396641  1
  O  O305  1  0.96022072  0.82101313  0.89229905  1
  O  O306  1  0.20069860  0.03388422  0.27097505  1
  O  O307  1  0.19866137  0.03620031  0.60003143  1
  O  O308  1  0.20292298  0.03665142  0.94177864  1
  O  O309  1  0.20249121  0.52865820  0.26989563  1
  O  O310  1  0.20012847  0.52923520  0.60290367  1
  O  O311  1  0.21097928  0.52109226  0.93990459  1
  O  O312  1  0.67713399  0.03673276  0.27669996  1
  O  O313  1  0.68996379  0.03775099  0.60243023  1
  O  O314  1  0.70585469  0.03153632  0.93287147  1
  O  O315  1  0.69883102  0.52675037  0.26982073  1
  O  O316  1  0.70831361  0.52430576  0.60030117  1
  O  O317  1  0.69975399  0.52541929  0.93579724  1
  O  O318  1  0.08407820  0.08818098  0.03689567  1
  O  O319  1  0.08437665  0.08681087  0.36587882  1
  O  O320  1  0.07784006  0.09473424  0.70980758  1
  O  O321  1  0.09397900  0.58322106  0.03536940  1
  O  O322  1  0.08080044  0.57763388  0.36318959  1
  O  O323  1  0.08740015  0.58351358  0.70636387  1
  O  O324  1  0.56389897  0.08565856  0.03511947  1
  O  O325  1  0.57484411  0.08711875  0.37268167  1
  O  O326  1  0.58820517  0.08840118  0.70149078  1
  O  O327  1  0.58953925  0.59348364  0.03623901  1
  O  O328  1  0.59001925  0.59929051  0.37692418  1
  O  O329  1  0.58148372  0.57513085  0.68927526  1
  O  O330  1  0.40351361  0.40576256  0.12317046  1
  O  O331  1  0.40275316  0.40615438  0.45620193  1
  O  O332  1  0.41587430  0.41361462  0.79698248  1
  O  O333  1  0.41491972  0.91825248  0.13298538  1
  O  O334  1  0.41206952  0.91258088  0.46005782  1
  O  O335  1  0.42046249  0.93272758  0.80705700  1
  O  O336  1  0.90937606  0.41102673  0.12773963  1
  O  O337  1  0.91786145  0.41725869  0.46076505  1
  O  O338  1  0.91293150  0.41678932  0.79882988  1
  O  O339  1  0.91643302  0.92616551  0.13076757  1
  O  O340  1  0.91352252  0.91325278  0.46617535  1
  O  O341  1  0.90758950  0.91135739  0.79632419  1
  O  O342  1  0.40568789  0.40444979  0.29005049  1
  O  O343  1  0.41404808  0.41188301  0.63108949  1
  O  O344  1  0.41552377  0.40980310  0.95733817  1
  O  O345  1  0.41972110  0.91544427  0.29884445  1
  O  O346  1  0.40924051  0.92334776  0.63513335  1
  O  O347  1  0.41600414  0.91552926  0.96432602  1
  O  O348  1  0.91264741  0.41136727  0.29439989  1
  O  O349  1  0.91894508  0.41626598  0.62813508  1
  O  O350  1  0.91546696  0.41391030  0.95817045  1
  O  O351  1  0.92556690  0.90723961  0.30559320  1
  O  O352  1  0.91531511  0.89620114  0.62209307  1
  O  O353  1  0.90692148  0.92358682  0.96923391  1
  O  O354  1  0.08839321  0.08733946  0.20436661  1
  O  O355  1  0.08708146  0.08904087  0.53150517  1
  O  O356  1  0.08639780  0.08707856  0.87926368  1
  O  O357  1  0.09733080  0.59274877  0.20986288  1
  O  O358  1  0.08670846  0.57791809  0.53407283  1
  O  O359  1  0.08984756  0.56148478  0.87622446  1
  O  O360  1  0.57560836  0.08967750  0.20078074  1
  O  O361  1  0.58282379  0.08885634  0.52927398  1
  O  O362  1  0.59030582  0.08351432  0.87295331  1
  O  O363  1  0.59106957  0.58596306  0.20543361  1
  O  O364  1  0.59511594  0.58012214  0.53972275  1
  O  O365  1  0.58745092  0.58119739  0.87426139  1
  O  O366  1  0.14135092  0.22044123  0.05623196  1
  O  O367  1  0.13931212  0.22061489  0.38975205  1
  O  O368  1  0.13625449  0.22540266  0.72689409  1
  O  O369  1  0.14014268  0.71857282  0.05667781  1
  O  O370  1  0.13245439  0.71467979  0.39014781  1
  O  O371  1  0.13883509  0.71729502  0.72282204  1
  O  O372  1  0.63289713  0.21482363  0.05946853  1
  O  O373  1  0.63169581  0.21921080  0.38928406  1
  O  O374  1  0.64086381  0.22291701  0.72263221  1
  O  O375  1  0.64334890  0.72870595  0.06302571  1
  O  O376  1  0.63995860  0.73203335  0.39467841  1
  O  O377  1  0.63764666  0.71135471  0.72742296  1
  O  O378  1  0.26906880  0.36135229  0.10605664  1
  O  O379  1  0.26910422  0.35988703  0.43858104  1
  O  O380  1  0.28362263  0.35669478  0.77872587  1
  O  O381  1  0.28066660  0.86092169  0.10579657  1
  O  O382  1  0.27760567  0.86236018  0.44204003  1
  O  O383  1  0.28901856  0.86849356  0.78150328  1
  O  O384  1  0.77531479  0.35899028  0.10836478  1
  O  O385  1  0.78366974  0.36381472  0.44157897  1
  O  O386  1  0.77809282  0.36354304  0.77687736  1
  O  O387  1  0.78302849  0.86571042  0.09814757  1
  O  O388  1  0.78128294  0.86206442  0.44921854  1
  O  O389  1  0.77134583  0.86068322  0.77021777  1
  O  O390  1  0.36022939  0.27094313  0.27404631  1
  O  O391  1  0.36210746  0.27763693  0.60746522  1
  O  O392  1  0.36141563  0.27760671  0.94117137  1
  O  O393  1  0.36005984  0.78151306  0.27238504  1
  O  O394  1  0.35984940  0.78662732  0.60962110  1
  O  O395  1  0.36184959  0.78201378  0.94372624  1
  O  O396  1  0.86120740  0.27647375  0.27293777  1
  O  O397  1  0.86629177  0.28391237  0.61400895  1
  O  O398  1  0.86358302  0.28069081  0.93878760  1
  O  O399  1  0.86120086  0.77575214  0.27641415  1
  O  O400  1  0.86328499  0.76412117  0.60309810  1
  O  O401  1  0.87073054  0.78514332  0.95021337  1
  O  O402  1  0.22180101  0.14030747  0.22472378  1
  O  O403  1  0.22066425  0.14147436  0.55270032  1
  O  O404  1  0.21649714  0.13801105  0.88815502  1
  O  O405  1  0.23245216  0.63378273  0.22432719  1
  O  O406  1  0.22012279  0.63263566  0.55155300  1
  O  O407  1  0.21643095  0.63098009  0.89413914  1
  O  O408  1  0.71424117  0.13637150  0.22967508  1
  O  O409  1  0.71899099  0.14189031  0.55647359  1
  O  O410  1  0.72070604  0.14184166  0.88929548  1
  O  O411  1  0.72609033  0.63770226  0.23125567  1
  O  O412  1  0.72795520  0.63696858  0.56117259  1
  O  O413  1  0.72163865  0.63666739  0.89563925  1
  O  O414  1  0.49126262  0.33353126  0.02975640  1
  O  O415  1  0.48905337  0.33195780  0.36303368  1
  O  O416  1  0.49350417  0.33206480  0.69577056  1
  O  O417  1  0.49186500  0.83938827  0.03504221  1
  O  O418  1  0.48849263  0.83210130  0.36615868  1
  O  O419  1  0.49458054  0.84137997  0.68852718  1
  O  O420  1  0.99252893  0.33672849  0.02959198  1
  O  O421  1  0.99167681  0.33272211  0.36105326  1
  O  O422  1  0.99672198  0.34049139  0.69954894  1
  O  O423  1  1.00220950  0.85195757  0.02685768  1
  O  O424  1  0.99160574  0.81873251  0.36848183  1
  O  O425  1  0.99073691  0.81989263  0.69621854  1
  O  O426  1  0.16648732  0.00933035  0.13670486  1
  O  O427  1  0.16668986  0.00956198  0.46604178  1
  O  O428  1  0.15849277  0.00465389  0.80590505  1
  O  O429  1  0.16776078  0.50660811  0.13703805  1
  O  O430  1  0.16544728  0.50131389  0.46731361  1
  O  O431  1  0.17313180  0.49992170  0.80517504  1
  O  O432  1  0.65478406  0.00528553  0.14250589  1
  O  O433  1  0.66653346  0.01092983  0.46927795  1
  O  O434  1  0.66570318  0.01127253  0.79851630  1
  O  O435  1  0.67094982  0.50956510  0.13814062  1
  O  O436  1  0.67701419  0.50866425  0.46889479  1
  O  O437  1  0.66589220  0.50866887  0.80250956  1
  O  O438  1  0.00756166  0.16996440  0.30261445  1
  O  O439  1  0.00607311  0.17482293  0.63806802  1
  O  O440  1  0.00802333  0.17114108  0.97257345  1
  O  O441  1  0.00466792  0.65694645  0.29699799  1
  O  O442  1  0.01102915  0.65556274  0.63145471  1
  O  O443  1  0.00749262  0.65841983  0.97243061  1
  O  O444  1  0.50030684  0.16692115  0.30385265  1
  O  O445  1  0.50894244  0.16937248  0.63768222  1
  O  O446  1  0.50259888  0.17242957  0.96830634  1
  O  O447  1  0.51278479  0.67204884  0.30158088  1
  O  O448  1  0.50418434  0.66794007  0.64123471  1
  O  O449  1  0.51355893  0.67472688  0.97098922  1
  O  O450  1  0.33140960  0.48904647  0.19638336  1
  O  O451  1  0.32957709  0.48772636  0.52950626  1
  O  O452  1  0.33632784  0.48971884  0.86345427  1
  O  O453  1  0.33053844  0.99141814  0.19625291  1
  O  O454  1  0.33500352  0.99289587  0.52960648  1
  O  O455  1  0.33114504  1.00076868  0.86625919  1
  O  O456  1  0.83237730  0.49001965  0.19511369  1
  O  O457  1  0.84054623  0.49364127  0.52962072  1
  O  O458  1  0.83337050  0.49463878  0.86386295  1
  O  O459  1  0.82822488  0.99406268  0.19269103  1
  O  O460  1  0.83925195  0.99296349  0.53909352  1
  O  O461  1  0.82881978  0.98641458  0.86764851  1
