# generated using pymatgen
data_Na31Fe20(SO4)36
_symmetry_space_group_name_H-M   'P 1'
_cell_length_a   18.07549734
_cell_length_b   18.08366801
_cell_length_c   19.71700028
_cell_angle_alpha   107.61783944
_cell_angle_beta   107.58774173
_cell_angle_gamma   90.69563237
_symmetry_Int_Tables_number   1
_chemical_formula_structural   Na31Fe20(SO4)36
_chemical_formula_sum   'Na62 Fe40 S72 O288'
_cell_volume   5817.30667152
_cell_formula_units_Z   2
loop_
 _symmetry_equiv_pos_site_id
 _symmetry_equiv_pos_as_xyz
  1  'x, y, z'
loop_
 _atom_site_type_symbol
 _atom_site_label
 _atom_site_symmetry_multiplicity
 _atom_site_fract_x
 _atom_site_fract_y
 _atom_site_fract_z
 _atom_site_occupancy
  Na  Na0  1  0.13399776  0.36810012  0.08874918  1
  Na  Na1  1  0.13511089  0.37442913  0.43892996  1
  Na  Na2  1  0.13810127  0.36459042  0.74678889  1
  Na  Na3  1  0.13373272  0.86702754  0.08483678  1
  Na  Na4  1  0.13703224  0.86337644  0.41746042  1
  Na  Na5  1  0.13250282  0.86474035  0.74600176  1
  Na  Na6  1  0.63966548  0.36132811  0.08671648  1
  Na  Na7  1  0.63813010  0.36516749  0.41845156  1
  Na  Na8  1  0.64366183  0.36719356  0.74837069  1
  Na  Na9  1  0.63431294  0.86313393  0.08044443  1
  Na  Na10  1  0.63031578  0.86353085  0.41480939  1
  Na  Na11  1  0.62908459  0.86690121  0.75373230  1
  Na  Na12  1  0.36514371  0.14120308  0.25581299  1
  Na  Na13  1  0.29833398  0.20397483  0.54641936  1
  Na  Na14  1  0.36644354  0.13270682  0.91301689  1
  Na  Na15  1  0.36685800  0.63937488  0.25635600  1
  Na  Na16  1  0.35825901  0.65353411  0.60538419  1
  Na  Na17  1  0.35288903  0.62602976  0.89387712  1
  Na  Na18  1  0.87429977  0.13833449  0.25968182  1
  Na  Na19  1  0.85848871  0.13318295  0.58178313  1
  Na  Na20  1  0.87031407  0.12017419  0.91894684  1
  Na  Na21  1  0.88618358  0.62813203  0.25320448  1
  Na  Na22  1  0.87235018  0.62821237  0.58230254  1
  Na  Na23  1  0.86453497  0.63079134  0.91180048  1
  Na  Na24  1  0.49042276  0.01367953  0.07855125  1
  Na  Na25  1  0.44263094  0.50025074  0.74068637  1
  Na  Na26  1  1.04345580  -0.01858642  0.34362986  1
  Na  Na27  1  0.98883896  0.53123919  0.10839078  1
  Na  Na28  1  0.48924469  0.50868698  0.42199913  1
  Na  Na29  1  0.49098233  0.04263256  0.42515330  1
  Na  Na30  1  0.48621699  0.51406439  0.08061045  1
  Na  Na31  1  0.48617181  0.00543541  0.74557189  1
  Na  Na32  1  0.95948228  0.00206506  0.07267228  1
  Na  Na33  1  0.07362210  0.48474404  0.60829653  1
  Na  Na34  1  0.50960605  0.99209395  0.25234355  1
  Na  Na35  1  0.01709030  0.49430309  0.90448835  1
  Na  Na36  1  0.00682049  0.99449956  0.57770980  1
  Na  Na37  1  0.51383393  0.48606212  0.25127892  1
  Na  Na38  1  0.50533978  0.93994838  0.89658601  1
  Na  Na39  1  0.46542096  1.04098091  0.57789851  1
  Na  Na40  1  0.47725082  0.51747372  0.59435194  1
  Na  Na41  1  0.51454807  0.48901306  0.91209851  1
  Na  Na42  1  0.74253572  0.23670544  0.01613890  1
  Na  Na43  1  0.25470036  0.75061341  -0.00708970  1
  Na  Na44  1  0.77102030  0.26389764  0.32280934  1
  Na  Na45  1  0.75342636  0.75488885  0.66310642  1
  Na  Na46  1  0.23340305  0.73839452  0.33949204  1
  Na  Na47  1  0.76588404  0.76487392  -0.00732192  1
  Na  Na48  1  0.74150783  0.24253987  0.66436829  1
  Na  Na49  1  0.23616367  0.24227257  0.36199923  1
  Na  Na50  1  0.24799311  0.24963717  0.00138626  1
  Na  Na51  1  0.75721470  0.75276464  0.32633458  1
  Na  Na52  1  0.74430407  0.24175680  0.84193437  1
  Na  Na53  1  0.75180181  0.75124749  0.49782169  1
  Na  Na54  1  0.25754399  0.25525036  0.82371381  1
  Na  Na55  1  0.75885280  0.75760683  0.16070909  1
  Na  Na56  1  0.23969038  0.74330534  0.51769510  1
  Na  Na57  1  0.76463512  0.26388445  0.49217845  1
  Na  Na58  1  0.24115187  0.23930656  0.17340226  1
  Na  Na59  1  0.23580195  0.74066236  0.17199781  1
  Na  Na60  1  0.76239897  0.76741402  0.83005481  1
  Na  Na61  1  0.26370739  0.75275950  0.79658985  1
  Fe  Fe62  1  0.96380045  0.31304101  0.12482318  1
  Fe  Fe63  1  0.46107303  0.29939730  0.75590212  1
  Fe  Fe64  1  0.46106610  0.81568098  0.45440328  1
  Fe  Fe65  1  0.96552611  0.81063167  0.79042430  1
  Fe  Fe66  1  0.46215334  0.80831652  0.12009885  1
  Fe  Fe67  1  0.97078326  0.80040647  0.12364086  1
  Fe  Fe68  1  0.46786165  0.30288687  0.11946302  1
  Fe  Fe69  1  0.96289710  0.30490308  0.78668223  1
  Fe  Fe70  1  0.47062984  0.30577954  0.45780742  1
  Fe  Fe71  1  0.96757584  0.80013427  0.45171364  1
  Fe  Fe72  1  0.19217837  0.53317450  0.04866702  1
  Fe  Fe73  1  0.18835632  0.03972361  0.71189540  1
  Fe  Fe74  1  0.70192841  0.03114027  0.04669236  1
  Fe  Fe75  1  0.18504921  0.03295076  0.03887460  1
  Fe  Fe76  1  0.69337851  0.53483533  0.38288986  1
  Fe  Fe77  1  0.19398145  0.53175392  0.38153913  1
  Fe  Fe78  1  0.68904891  0.03250392  0.71341913  1
  Fe  Fe79  1  0.69194046  0.53704073  0.71345176  1
  Fe  Fe80  1  0.69058934  0.53652117  0.04891308  1
  Fe  Fe81  1  0.69271940  0.03288223  0.38659980  1
  Fe  Fe82  1  0.03874027  0.68656180  0.54636002  1
  Fe  Fe83  1  0.52938347  0.70109247  0.55263634  1
  Fe  Fe84  1  0.54022882  0.19066521  0.21471023  1
  Fe  Fe85  1  0.02994832  0.19415102  0.53954927  1
  Fe  Fe86  1  0.03359317  0.19562482  0.22028882  1
  Fe  Fe87  1  0.03874047  0.68379039  0.87336559  1
  Fe  Fe88  1  0.03135641  0.18923020  0.87811491  1
  Fe  Fe89  1  0.53191041  0.69880818  0.87835318  1
  Fe  Fe90  1  0.53116620  0.19513343  0.88036620  1
  Fe  Fe91  1  0.53268014  0.69525002  0.21679958  1
  Fe  Fe92  1  0.80507325  0.46543111  0.95276740  1
  Fe  Fe93  1  0.81119969  0.96357771  0.62558017  1
  Fe  Fe94  1  0.30454926  0.96451845  0.94615612  1
  Fe  Fe95  1  0.81490368  0.46494289  0.62054552  1
  Fe  Fe96  1  0.81788323  0.46187636  0.29125941  1
  Fe  Fe97  1  0.31028235  0.46161273  0.28461756  1
  Fe  Fe98  1  0.30533358  0.46395771  0.94753438  1
  Fe  Fe99  1  0.29719958  0.97067280  0.61116243  1
  Fe  Fe100  1  0.80960037  0.96515680  0.29159411  1
  Fe  Fe101  1  0.29528454  0.97462426  0.28533991  1
  S  S102  1  0.35989653  0.13811959  0.08245443  1
  S  S103  1  0.36082259  0.14290866  0.41284172  1
  S  S104  1  0.35983976  0.13905631  0.74666108  1
  S  S105  1  0.35891161  0.64056519  0.08568498  1
  S  S106  1  0.36202845  0.64166399  0.41634450  1
  S  S107  1  0.36587396  0.64047151  0.75169664  1
  S  S108  1  0.86153698  0.14232149  0.08463048  1
  S  S109  1  0.85440816  0.13910540  0.42164639  1
  S  S110  1  0.85556178  0.14064310  0.75184650  1
  S  S111  1  0.85395467  0.64002445  0.08070185  1
  S  S112  1  0.85712568  0.64010404  0.41476070  1
  S  S113  1  0.85755604  0.63979302  0.75135336  1
  S  S114  1  0.14339589  0.35712523  0.24949375  1
  S  S115  1  0.14898845  0.34014167  0.58511400  1
  S  S116  1  0.13954169  0.35710155  0.91826713  1
  S  S117  1  0.14415953  0.85300323  0.24511840  1
  S  S118  1  0.13584268  0.86260815  0.58428875  1
  S  S119  1  0.14391464  0.85489178  0.91230368  1
  S  S120  1  0.64211352  0.36083110  0.25117398  1
  S  S121  1  0.64546517  0.36375296  0.58195447  1
  S  S122  1  0.63877157  0.36061543  0.91886314  1
  S  S123  1  0.63898699  0.85982718  0.25148608  1
  S  S124  1  0.63942307  0.85837170  0.58294826  1
  S  S125  1  0.64647319  0.85608397  0.92367256  1
  S  S126  1  0.06773793  0.17470496  0.04313273  1
  S  S127  1  0.06933963  0.17358430  0.37977410  1
  S  S128  1  0.06295790  0.17153811  0.71027419  1
  S  S129  1  0.06318028  0.66226282  0.03703710  1
  S  S130  1  0.07188782  0.67210886  0.37865861  1
  S  S131  1  0.06416585  0.67220820  0.71132171  1
  S  S132  1  0.56651092  0.16516371  0.04187108  1
  S  S133  1  0.57117620  0.16897949  0.37443939  1
  S  S134  1  0.56777090  0.17298505  0.71123544  1
  S  S135  1  0.56348054  0.67097639  0.04476812  1
  S  S136  1  0.56508117  0.66933657  0.37697400  1
  S  S137  1  0.57492580  0.67306216  0.71085791  1
  S  S138  1  0.33688867  0.43357608  0.12553251  1
  S  S139  1  0.33757990  0.43812420  0.45567557  1
  S  S140  1  0.34041208  0.42645774  0.79960966  1
  S  S141  1  0.33074417  0.93512156  0.12259638  1
  S  S142  1  0.32802935  0.93349472  0.45243138  1
  S  S143  1  0.32749885  0.94063823  0.78642800  1
  S  S144  1  0.82701035  0.43524466  0.12221255  1
  S  S145  1  0.82953650  0.43587607  0.45543467  1
  S  S146  1  0.83032505  0.43123959  0.79129676  1
  S  S147  1  0.83224636  0.93108661  0.12901716  1
  S  S148  1  0.82719503  0.92624986  0.45906808  1
  S  S149  1  0.82430505  0.93055895  0.78918285  1
  S  S150  1  0.43839705  0.32959066  0.28977346  1
  S  S151  1  0.44864587  0.34254670  0.62743585  1
  S  S152  1  0.43408831  0.32777930  0.96208069  1
  S  S153  1  0.43148601  0.83512744  0.29013015  1
  S  S154  1  0.43265769  0.84182683  0.62276570  1
  S  S155  1  0.43201211  0.83248001  0.96093421  1
  S  S156  1  0.93988531  0.33193894  0.29242572  1
  S  S157  1  0.92928369  0.32409107  0.62562400  1
  S  S158  1  0.93159514  0.33346024  0.95998350  1
  S  S159  1  0.93097074  0.82846046  0.29244260  1
  S  S160  1  0.93168322  0.82584263  0.62263442  1
  S  S161  1  0.93894342  0.82176869  0.95606060  1
  S  S162  1  0.16641519  0.06907669  0.20164544  1
  S  S163  1  0.15147192  0.06064957  0.53450576  1
  S  S164  1  0.17164053  0.07065441  0.87657056  1
  S  S165  1  0.17702344  0.56374450  0.21234725  1
  S  S166  1  0.17098941  0.56876175  0.54184339  1
  S  S167  1  0.17415128  0.56053456  0.87846794  1
  S  S168  1  0.67146252  0.06459567  0.21061077  1
  S  S169  1  0.66482259  0.05703660  0.54507473  1
  S  S170  1  0.66305464  0.06884123  0.87517267  1
  S  S171  1  0.66209792  0.56702589  0.20816009  1
  S  S172  1  0.66505549  0.57260223  0.54136486  1
  S  S173  1  0.66769633  0.56853871  0.87772245  1
  O  O174  1  0.36975840  0.21744910  0.07522873  1
  O  O175  1  0.37931943  0.21838548  0.39912555  1
  O  O176  1  0.37089970  0.21831623  0.74279468  1
  O  O177  1  0.36750898  0.71966414  0.07806693  1
  O  O178  1  0.37156611  0.71786075  0.40257034  1
  O  O179  1  0.37514749  0.71965422  0.74746301  1
  O  O180  1  0.87081311  0.22262658  0.07823993  1
  O  O181  1  0.85388696  0.21665987  0.41384448  1
  O  O182  1  0.86290019  0.22066542  0.74519760  1
  O  O183  1  0.86541393  0.72085587  0.07719186  1
  O  O184  1  0.86667719  0.71983778  0.40754208  1
  O  O185  1  0.86278941  0.72100334  0.74757515  1
  O  O186  1  0.28010132  0.12872649  0.08774609  1
  O  O187  1  0.28087816  0.14232308  0.41532863  1
  O  O188  1  0.28140419  0.13153123  0.75666684  1
  O  O189  1  0.28056912  0.63086170  0.09403881  1
  O  O190  1  0.28121024  0.63253370  0.41878220  1
  O  O191  1  0.29411841  0.62722382  0.76908914  1
  O  O192  1  0.77965597  0.13199400  0.08624178  1
  O  O193  1  0.78000252  0.12183716  0.43735918  1
  O  O194  1  0.77577967  0.12973767  0.75807856  1
  O  O195  1  0.77229965  0.63278941  0.08501170  1
  O  O196  1  0.77692778  0.63315533  0.42187408  1
  O  O197  1  0.78081618  0.62857513  0.76447118  1
  O  O198  1  0.13621165  0.27632042  0.25423838  1
  O  O199  1  0.12267951  0.26261936  0.59592457  1
  O  O200  1  0.12865166  0.27694704  0.92272456  1
  O  O201  1  0.14526554  0.77133859  0.24375325  1
  O  O202  1  0.12945934  0.78446326  0.59256332  1
  O  O203  1  0.13581342  0.77494360  0.91817800  1
  O  O204  1  0.63409041  0.28230273  0.25979464  1
  O  O205  1  0.64147441  0.28788754  0.59239622  1
  O  O206  1  0.63065669  0.28312813  0.93031990  1
  O  O207  1  0.62891090  0.78192833  0.26189127  1
  O  O208  1  0.62861175  0.77943033  0.59122435  1
  O  O209  1  0.62761116  0.78154559  0.93858630  1
  O  O210  1  0.22002922  0.36581186  0.23511174  1
  O  O211  1  0.22104563  0.32779536  0.56668912  1
  O  O212  1  0.21958608  0.36574720  0.91247991  1
  O  O213  1  0.21947926  0.87456671  0.23248229  1
  O  O214  1  0.21281553  0.87369147  0.57230149  1
  O  O215  1  0.22239138  0.86560088  0.90268699  1
  O  O216  1  0.72077612  0.37346184  0.24584032  1
  O  O217  1  0.72163569  0.37819922  0.56807864  1
  O  O218  1  0.71872156  0.36897421  0.91189435  1
  O  O219  1  0.71898159  0.86712737  0.24578810  1
  O  O220  1  0.71983221  0.86430902  0.57708896  1
  O  O221  1  0.72731549  0.85716457  0.92323535  1
  O  O222  1  0.41860500  0.13023929  0.15106493  1
  O  O223  1  0.41648273  0.13189050  0.47943448  1
  O  O224  1  0.41943158  0.12757252  0.81376583  1
  O  O225  1  0.41832551  0.63330620  0.15470672  1
  O  O226  1  0.41788625  0.63904528  0.48861745  1
  O  O227  1  0.43211835  0.62884782  0.81871952  1
  O  O228  1  0.91674431  0.13565589  0.15568718  1
  O  O229  1  0.91840584  0.13276445  0.48842253  1
  O  O230  1  0.91352269  0.13475611  0.82097729  1
  O  O231  1  0.90976704  0.62697397  0.14576478  1
  O  O232  1  0.91492512  0.63218778  0.48222880  1
  O  O233  1  0.91939949  0.62769877  0.81459452  1
  O  O234  1  0.37070680  0.07931475  0.01533095  1
  O  O235  1  0.36853898  0.07959976  0.34413588  1
  O  O236  1  0.36684902  0.07938251  0.67840942  1
  O  O237  1  0.36960643  0.58118554  0.01939583  1
  O  O238  1  0.37764194  0.57932306  0.35371504  1
  O  O239  1  0.37443702  0.58187285  0.68431425  1
  O  O240  1  0.87494002  0.08425755  0.02056932  1
  O  O241  1  0.86035769  0.08040927  0.35255028  1
  O  O242  1  0.86475875  0.08338081  0.68370566  1
  O  O243  1  0.86024808  0.58331276  0.01004899  1
  O  O244  1  0.86205872  0.58248169  0.34496882  1
  O  O245  1  0.85929058  0.58468033  0.67884456  1
  O  O246  1  0.08188203  0.36682840  0.18357625  1
  O  O247  1  0.08584669  0.35701807  0.52576445  1
  O  O248  1  0.08076059  0.36877529  0.85192010  1
  O  O249  1  0.08090486  0.86175820  0.17885992  1
  O  O250  1  0.07373394  0.87110824  0.51784407  1
  O  O251  1  0.08376739  0.86563868  0.84695222  1
  O  O252  1  0.58274510  0.36741374  0.18202920  1
  O  O253  1  0.58283419  0.37056618  0.51486032  1
  O  O254  1  0.58040637  0.36789306  0.85115809  1
  O  O255  1  0.58128878  0.86677722  0.18224729  1
  O  O256  1  0.58297018  0.86414987  0.51285081  1
  O  O257  1  0.59214559  0.86308590  0.85429560  1
  O  O258  1  0.14102846  0.41388927  0.31991095  1
  O  O259  1  0.15646593  0.40106533  0.65694194  1
  O  O260  1  0.13255869  0.41449188  0.98783749  1
  O  O261  1  0.13607062  0.90427337  0.31518369  1
  O  O262  1  0.12832376  0.92251582  0.65225938  1
  O  O263  1  0.14010242  0.91191570  0.98332710  1
  O  O264  1  0.62820198  0.42010163  0.31701956  1
  O  O265  1  0.64033318  0.42527329  0.65054755  1
  O  O266  1  0.63001239  0.42171614  0.98639502  1
  O  O267  1  0.62816643  0.92029924  0.31751851  1
  O  O268  1  0.63028134  0.91734371  0.64981189  1
  O  O269  1  0.63581165  0.92047876  0.98903357  1
  O  O270  1  0.03183714  0.20328631  0.10392827  1
  O  O271  1  0.02647938  0.18887893  0.43705664  1
  O  O272  1  0.02169473  0.19698188  0.76901445  1
  O  O273  1  0.02341231  0.69134699  0.09340328  1
  O  O274  1  0.03379762  0.70074516  0.44093760  1
  O  O275  1  0.02202159  0.70576021  0.76925235  1
  O  O276  1  0.53081603  0.19645201  0.10463744  1
  O  O277  1  0.53754290  0.20086623  0.43451849  1
  O  O278  1  0.53563754  0.20699653  0.77632885  1
  O  O279  1  0.52654724  0.69919902  0.10623433  1
  O  O280  1  0.53130413  0.69960689  0.43881791  1
  O  O281  1  0.55060623  0.70023582  0.77748014  1
  O  O282  1  0.30570342  0.46937504  0.06485557  1
  O  O283  1  0.30292756  0.46670137  0.38787808  1
  O  O284  1  0.31855350  0.45701768  0.73797665  1
  O  O285  1  0.30351227  0.96917087  0.05993180  1
  O  O286  1  0.30381697  0.96516170  0.39004990  1
  O  O287  1  0.29006598  0.97542777  0.72514510  1
  O  O288  1  0.79630622  0.47457031  0.06250604  1
  O  O289  1  0.79467407  0.47509304  0.39497274  1
  O  O290  1  0.80413906  0.46674343  0.72965637  1
  O  O291  1  0.80492551  0.97214115  0.07305528  1
  O  O292  1  0.79683679  0.96169888  0.39752911  1
  O  O293  1  0.79388891  0.96692356  0.72603696  1
  O  O294  1  0.47464094  0.29829651  0.22817735  1
  O  O295  1  0.46745098  0.29838140  0.55979966  1
  O  O296  1  0.46792033  0.29622534  0.90093637  1
  O  O297  1  0.47002056  0.80258591  0.22999876  1
  O  O298  1  0.46543845  0.80650497  0.55768123  1
  O  O299  1  0.46975919  0.80535266  0.90280867  1
  O  O300  1  0.97151641  0.29693440  0.22619240  1
  O  O301  1  0.96561284  0.28966735  0.56709809  1
  O  O302  1  0.96843304  0.30352251  0.89899838  1
  O  O303  1  0.96484237  0.80644643  0.23129725  1
  O  O304  1  0.96760113  0.79331689  0.56179511  1
  O  O305  1  0.97761104  0.78893469  0.89606967  1
  O  O306  1  0.19232153  0.03211499  0.26034279  1
  O  O307  1  0.19073916  0.03323925  0.60233196  1
  O  O308  1  0.20154018  0.03002700  0.93532569  1
  O  O309  1  0.20973722  0.52580619  0.27229737  1
  O  O310  1  0.19156920  0.53447666  0.60148302  1
  O  O311  1  0.20245388  0.52783703  0.94530038  1
  O  O312  1  0.69791177  0.02748045  0.27159546  1
  O  O313  1  0.70443069  0.02246808  0.60640918  1
  O  O314  1  0.68335619  0.03324450  0.93504471  1
  O  O315  1  0.69227597  0.53308612  0.26978864  1
  O  O316  1  0.69743679  0.54046113  0.60386027  1
  O  O317  1  0.69718662  0.52767720  0.93595549  1
  O  O318  1  0.08704813  0.09381510  0.03615314  1
  O  O319  1  0.09926286  0.09832996  0.37048631  1
  O  O320  1  0.07991156  0.08898854  0.70187448  1
  O  O321  1  0.08196712  0.58014015  0.03553560  1
  O  O322  1  0.09795885  0.59501265  0.37842151  1
  O  O323  1  0.08077006  0.59421451  0.71243239  1
  O  O324  1  0.58289691  0.08373195  0.03863175  1
  O  O325  1  0.58533629  0.08485391  0.36987476  1
  O  O326  1  0.58359725  0.09040236  0.70830453  1
  O  O327  1  0.57818012  0.58705961  0.03747844  1
  O  O328  1  0.58045067  0.58606060  0.36928693  1
  O  O329  1  0.58844480  0.58826606  0.69528580  1
  O  O330  1  0.41972356  0.41768536  0.13011855  1
  O  O331  1  0.41851434  0.41638718  0.45474586  1
  O  O332  1  0.42299785  0.40217764  0.80957418  1
  O  O333  1  0.41543901  0.92105343  0.13287897  1
  O  O334  1  0.41396642  0.92157440  0.46747650  1
  O  O335  1  0.40919857  0.93258411  0.78938077  1
  O  O336  1  0.90848316  0.41980263  0.12506270  1
  O  O337  1  0.90820549  0.42136892  0.45870874  1
  O  O338  1  0.91262653  0.41365745  0.80234850  1
  O  O339  1  0.91054054  0.90658660  0.12781998  1
  O  O340  1  0.90734693  0.90555033  0.46365618  1
  O  O341  1  0.89987122  0.90149145  0.78405080  1
  O  O342  1  0.42582224  0.41335516  0.29539551  1
  O  O343  1  0.43000696  0.42059962  0.62466626  1
  O  O344  1  0.41844529  0.41054509  0.96949022  1
  O  O345  1  0.41852017  0.91721354  0.29428623  1
  O  O346  1  0.40859085  0.92090585  0.62028224  1
  O  O347  1  0.41437066  0.91546238  0.96504450  1
  O  O348  1  0.91039805  0.40638322  0.28240740  1
  O  O349  1  0.91006652  0.40348465  0.62400201  1
  O  O350  1  0.91456724  0.41574444  0.96487340  1
  O  O351  1  0.91162326  0.91113322  0.30631672  1
  O  O352  1  0.91144192  0.90552152  0.62189647  1
  O  O353  1  0.92299026  0.90104980  0.95939549  1
  O  O354  1  0.08509423  0.08997082  0.19249734  1
  O  O355  1  0.07496726  0.08898166  0.54415651  1
  O  O356  1  0.09397706  0.09321910  0.87761983  1
  O  O357  1  0.09785542  0.58014115  0.20800123  1
  O  O358  1  0.08713879  0.58715688  0.52790356  1
  O  O359  1  0.09248571  0.57996887  0.87387417  1
  O  O360  1  0.58657588  0.07821341  0.20113200  1
  O  O361  1  0.58361645  0.06518494  0.54285020  1
  O  O362  1  0.58016434  0.08918210  0.86175046  1
  O  O363  1  0.57822161  0.58221890  0.20243099  1
  O  O364  1  0.58332899  0.59164183  0.53702094  1
  O  O365  1  0.58666964  0.58571746  0.87590094  1
  O  O366  1  0.13949084  0.22765249  0.05960052  1
  O  O367  1  0.13058123  0.23769830  0.39925572  1
  O  O368  1  0.13469192  0.22437111  0.73447676  1
  O  O369  1  0.13558691  0.71307871  0.05300088  1
  O  O370  1  0.14160377  0.73024727  0.40019726  1
  O  O371  1  0.13314049  0.72770815  0.72941559  1
  O  O372  1  0.63644354  0.21733932  0.05708843  1
  O  O373  1  0.64378599  0.21547926  0.38473465  1
  O  O374  1  0.64182225  0.22173293  0.72786103  1
  O  O375  1  0.63669163  0.72099347  0.06517656  1
  O  O376  1  0.63718088  0.71878237  0.39054833  1
  O  O377  1  0.64611219  0.72133381  0.71936953  1
  O  O378  1  0.28733078  0.36150649  0.11091002  1
  O  O379  1  0.28715743  0.36963479  0.44665026  1
  O  O380  1  0.28661809  0.36231086  0.79538215  1
  O  O381  1  0.28213435  0.86132360  0.10478911  1
  O  O382  1  0.28083008  0.85958442  0.43784631  1
  O  O383  1  0.28056457  0.86776322  0.77278087  1
  O  O384  1  0.77560166  0.36323273  0.10294440  1
  O  O385  1  0.77440531  0.36439671  0.43501211  1
  O  O386  1  0.77805271  0.35991119  0.77445717  1
  O  O387  1  0.77608017  0.86137677  0.11190510  1
  O  O388  1  0.77274053  0.85632342  0.44303770  1
  O  O389  1  0.76615678  0.86243378  0.77157270  1
  O  O390  1  0.36445794  0.28173199  0.27091628  1
  O  O391  1  0.38596300  0.29776374  0.63855683  1
  O  O392  1  0.36163756  0.27848557  0.94859558  1
  O  O393  1  0.35940638  0.78428240  0.27230721  1
  O  O394  1  0.36447017  0.78878427  0.61081358  1
  O  O395  1  0.36075746  0.78181283  0.94632413  1
  O  O396  1  0.87374845  0.27669996  0.28257486  1
  O  O397  1  0.85683441  0.27383112  0.61264232  1
  O  O398  1  0.86032253  0.28179749  0.94364146  1
  O  O399  1  0.85963215  0.77443050  0.27468312  1
  O  O400  1  0.86038753  0.77333700  0.60767778  1
  O  O401  1  0.86689353  0.76771761  0.93630860  1
  O  O402  1  0.22158494  0.13928217  0.21908332  1
  O  O403  1  0.20197971  0.12357603  0.53572533  1
  O  O404  1  0.22806112  0.13960333  0.89465042  1
  O  O405  1  0.23140836  0.63437586  0.22969817  1
  O  O406  1  0.22245897  0.64051495  0.55697065  1
  O  O407  1  0.22581525  0.63275180  0.89803100  1
  O  O408  1  0.72058292  0.13748568  0.22946070  1
  O  O409  1  0.71153209  0.13092557  0.55947692  1
  O  O410  1  0.71769479  0.13964515  0.89396028  1
  O  O411  1  0.71018164  0.63924898  0.22064306  1
  O  O412  1  0.71642956  0.64217289  0.55134468  1
  O  O413  1  0.72025288  0.63988864  0.89644028  1
  O  O414  1  0.49487126  0.32940994  0.03443124  1
  O  O415  1  0.49625061  0.32873503  0.36121888  1
  O  O416  1  0.51658271  0.35241123  0.69836510  1
  O  O417  1  0.49041059  0.83892444  0.03634820  1
  O  O418  1  0.48924280  0.83438101  0.36271846  1
  O  O419  1  0.49640182  0.85294176  0.69260313  1
  O  O420  1  0.99037584  0.33599287  0.03285198  1
  O  O421  1  1.00382477  0.34656993  0.36122758  1
  O  O422  1  0.98680850  0.33218789  0.70133480  1
  O  O423  1  0.99474019  0.82017519  0.02934678  1
  O  O424  1  0.99078412  0.82720266  0.36353191  1
  O  O425  1  0.98994813  0.83159290  0.69592966  1
  O  O426  1  0.16472993  0.00978053  0.12782799  1
  O  O427  1  0.13175338  -0.00768184  0.46663386  1
  O  O428  1  0.16615474  0.01302597  0.80277028  1
  O  O429  1  0.17835147  0.50547583  0.13912820  1
  O  O430  1  0.17354545  0.50953001  0.46957620  1
  O  O431  1  0.17605232  0.49932476  0.81224276  1
  O  O432  1  0.67258602  0.00685683  0.13866259  1
  O  O433  1  0.66503932  -0.00003734  0.47131072  1
  O  O434  1  0.66404515  0.00945732  0.80331773  1
  O  O435  1  0.65873027  0.50725943  0.13520133  1
  O  O436  1  0.65860447  0.51030838  0.46840379  1
  O  O437  1  0.66546147  0.51187651  0.80387996  1
  O  O438  1  0.00735498  0.17138373  0.30694156  1
  O  O439  1  0.00596530  0.17283327  0.63802489  1
  O  O440  1  0.00863401  0.17446643  0.97103226  1
  O  O441  1  0.01424899  0.66849911  0.30797314  1
  O  O442  1  0.00745769  0.66928454  0.63624450  1
  O  O443  1  0.00802939  0.65402570  0.96013561  1
  O  O444  1  0.51159902  0.16237524  0.29916228  1
  O  O445  1  0.50746992  0.17229790  0.64280118  1
  O  O446  1  0.50592296  0.16369762  0.97022721  1
  O  O447  1  0.50531183  0.66878821  0.30493759  1
  O  O448  1  0.50953225  0.67564775  0.64267632  1
  O  O449  1  0.50611370  0.67217901  0.97354519  1
  O  O450  1  0.34121661  0.49230110  0.19938071  1
  O  O451  1  0.34689228  0.50497780  0.52284862  1
  O  O452  1  0.35097327  0.49196537  0.87417534  1
  O  O453  1  0.32885500  0.99393965  0.19340645  1
  O  O454  1  0.32281114  0.99379924  0.52186275  1
  O  O455  1  0.32823853  0.99787398  0.86094842  1
  O  O456  1  0.82645786  0.49245391  0.19454376  1
  O  O457  1  0.82483512  0.49300610  0.52737458  1
  O  O458  1  0.82813553  0.49113293  0.86210718  1
  O  O459  1  0.83901118  0.98728282  0.20492050  1
  O  O460  1  0.83086163  0.98693847  0.53137519  1
  O  O461  1  0.83260111  0.98983633  0.86002910  1
