# generated using pymatgen
data_Na31Fe20(SO4)36
_symmetry_space_group_name_H-M   'P 1'
_cell_length_a   18.06230333
_cell_length_b   18.06168199
_cell_length_c   19.69355960
_cell_angle_alpha   107.57575154
_cell_angle_beta   107.58451261
_cell_angle_gamma   90.71209485
_symmetry_Int_Tables_number   1
_chemical_formula_structural   Na31Fe20(SO4)36
_chemical_formula_sum   'Na62 Fe40 S72 O288'
_cell_volume   5800.52051512
_cell_formula_units_Z   2
loop_
 _symmetry_equiv_pos_site_id
 _symmetry_equiv_pos_as_xyz
  1  'x, y, z'
loop_
 _atom_site_type_symbol
 _atom_site_label
 _atom_site_symmetry_multiplicity
 _atom_site_fract_x
 _atom_site_fract_y
 _atom_site_fract_z
 _atom_site_occupancy
  Na  Na0  1  0.14330553  0.37305744  0.09875848  1
  Na  Na1  1  0.12573286  0.36625332  0.40915036  1
  Na  Na2  1  0.13371974  0.35448182  0.74882817  1
  Na  Na3  1  0.15100798  0.84570498  0.08258449  1
  Na  Na4  1  0.12257241  0.86692293  0.40945532  1
  Na  Na5  1  0.13519022  0.87083364  0.74876045  1
  Na  Na6  1  0.64280975  0.37112605  0.09879341  1
  Na  Na7  1  0.62941029  0.35962185  0.40651945  1
  Na  Na8  1  0.63999748  0.35907084  0.74936282  1
  Na  Na9  1  0.63396832  0.86996390  0.08618976  1
  Na  Na10  1  0.64357125  0.85993857  0.41264228  1
  Na  Na11  1  0.61397709  0.89671625  0.74747393  1
  Na  Na12  1  0.36794077  0.14740440  0.25109529  1
  Na  Na13  1  0.37394482  0.12814451  0.58763389  1
  Na  Na14  1  0.36662157  0.12446473  0.90754827  1
  Na  Na15  1  0.35710805  0.63184347  0.24310884  1
  Na  Na16  1  0.36374142  0.63193042  0.58037353  1
  Na  Na17  1  0.36226121  0.64174045  0.92363506  1
  Na  Na18  1  0.86809578  0.15551364  0.26135818  1
  Na  Na19  1  0.86937216  0.13635336  0.58902657  1
  Na  Na20  1  0.86677969  0.13018785  0.91161730  1
  Na  Na21  1  0.86266417  0.64109088  0.26846555  1
  Na  Na22  1  0.86248403  0.62982218  0.57769804  1
  Na  Na23  1  0.86316880  0.63098196  0.91308685  1
  Na  Na24  1  0.48459610  0.50518905  0.08745497  1
  Na  Na25  1  0.45999284  0.51521515  0.40878789  1
  Na  Na26  1  0.50482189  -0.01045625  0.43231590  1
  Na  Na27  1  0.48820068  0.50968093  0.74958694  1
  Na  Na28  1  0.99808720  0.02132710  0.74000944  1
  Na  Na29  1  0.95721096  0.50693690  0.42237291  1
  Na  Na30  1  1.00276596  0.49135302  0.74021222  1
  Na  Na31  1  0.49665476  0.04265767  0.08239754  1
  Na  Na32  1  0.98895655  0.50765097  0.08718076  1
  Na  Na33  1  0.00699435  0.45637538  0.90812820  1
  Na  Na34  1  0.51563914  0.48445858  0.57956568  1
  Na  Na35  1  0.49924719  1.01502816  0.24779128  1
  Na  Na36  1  0.03101952  0.97581504  0.56119844  1
  Na  Na37  1  0.00675986  0.99020906  0.93032046  1
  Na  Na38  1  0.00193712  0.48656277  0.25707800  1
  Na  Na39  1  0.51100100  0.48398987  0.91967036  1
  Na  Na40  1  -0.01570643  1.04117360  0.21099033  1
  Na  Na41  1  0.50492762  0.48093781  0.25413481  1
  Na  Na42  1  0.24371634  0.24443632  0.00703389  1
  Na  Na43  1  0.25586079  0.75786776  0.32199392  1
  Na  Na44  1  0.75861498  0.76160679  0.65812248  1
  Na  Na45  1  0.25477431  0.75715204  0.66399277  1
  Na  Na46  1  0.75113247  0.75065975  0.00097350  1
  Na  Na47  1  0.76634261  0.25362466  0.65659627  1
  Na  Na48  1  0.23543098  0.24546858  0.33717883  1
  Na  Na49  1  0.74987183  0.24941513  0.00955790  1
  Na  Na50  1  0.24048486  0.23204561  0.67311254  1
  Na  Na51  1  0.73273799  0.24142971  0.34544434  1
  Na  Na52  1  0.74193346  0.25353093  0.18001026  1
  Na  Na53  1  0.75108198  0.75776541  0.82610481  1
  Na  Na54  1  0.23638820  0.22985467  0.83868803  1
  Na  Na55  1  0.77170529  0.76389168  0.48051162  1
  Na  Na56  1  0.75123115  0.23302600  0.82845706  1
  Na  Na57  1  0.24345705  0.74545808  0.84302925  1
  Na  Na58  1  0.24210348  0.24056914  0.50497733  1
  Na  Na59  1  0.74504495  0.74617784  0.17789306  1
  Na  Na60  1  0.24760275  0.75645266  0.49416699  1
  Na  Na61  1  0.24373243  0.25331462  0.17694262  1
  Fe  Fe62  1  0.46626911  0.30107460  0.12200352  1
  Fe  Fe63  1  0.96754201  0.80328599  0.78631622  1
  Fe  Fe64  1  0.96574660  0.81022516  0.12152405  1
  Fe  Fe65  1  0.46643127  0.30334366  0.44790458  1
  Fe  Fe66  1  0.46118721  0.81047866  0.11941349  1
  Fe  Fe67  1  0.46584290  0.30530998  0.78250597  1
  Fe  Fe68  1  0.96885630  0.30205907  0.12747328  1
  Fe  Fe69  1  0.46782468  0.81115024  0.45709966  1
  Fe  Fe70  1  0.46532949  0.81119229  0.78988729  1
  Fe  Fe71  1  0.96293540  0.31062643  0.45392373  1
  Fe  Fe72  1  0.18965618  0.03452395  0.37511148  1
  Fe  Fe73  1  0.69774761  0.53307951  0.05497080  1
  Fe  Fe74  1  0.69066624  0.03730212  0.04521772  1
  Fe  Fe75  1  0.69381160  0.03856755  0.38466327  1
  Fe  Fe76  1  0.19386670  0.53585655  0.04887798  1
  Fe  Fe77  1  0.69086537  0.53419278  0.71461508  1
  Fe  Fe78  1  0.18887167  0.53457997  0.70982418  1
  Fe  Fe79  1  0.19191640  0.03649309  0.04829851  1
  Fe  Fe80  1  0.69839576  0.53426827  0.38041517  1
  Fe  Fe81  1  0.20147144  0.53306192  0.37722184  1
  Fe  Fe82  1  0.53819982  0.18771278  0.54927769  1
  Fe  Fe83  1  0.03530050  0.68853057  0.88293102  1
  Fe  Fe84  1  0.53495282  0.69537315  0.88390275  1
  Fe  Fe85  1  0.03311442  0.69531302  0.21615991  1
  Fe  Fe86  1  0.53419486  0.69612053  0.21705362  1
  Fe  Fe87  1  0.03123707  0.69832234  0.54272255  1
  Fe  Fe88  1  0.03176375  0.19028953  0.54412942  1
  Fe  Fe89  1  0.53600761  0.69369648  0.54888940  1
  Fe  Fe90  1  0.53963678  0.18458086  0.87252236  1
  Fe  Fe91  1  0.03180235  0.19907228  0.87542228  1
  Fe  Fe92  1  0.81277699  0.96593285  0.29118839  1
  Fe  Fe93  1  0.30861103  0.46430792  0.95183155  1
  Fe  Fe94  1  0.80250924  0.96700081  0.62080180  1
  Fe  Fe95  1  0.80693848  0.45966531  0.61743252  1
  Fe  Fe96  1  0.80791193  0.46201241  0.95121900  1
  Fe  Fe97  1  0.30333799  0.96779751  0.62541722  1
  Fe  Fe98  1  0.80894920  0.96781949  0.95471332  1
  Fe  Fe99  1  0.30820047  0.96452238  0.28322690  1
  Fe  Fe100  1  0.30496956  0.46480923  0.61659302  1
  Fe  Fe101  1  0.30440595  0.96428584  0.95198583  1
  S  S102  1  0.35762901  0.13924383  0.08107182  1
  S  S103  1  0.36018190  0.13962127  0.41660391  1
  S  S104  1  0.36139495  0.14174431  0.74939289  1
  S  S105  1  0.36139898  0.63966527  0.08168187  1
  S  S106  1  0.36049713  0.64761753  0.41923944  1
  S  S107  1  0.36035375  0.63966922  0.75182873  1
  S  S108  1  0.85861697  0.13946802  0.08614356  1
  S  S109  1  0.85693100  0.14298448  0.41370003  1
  S  S110  1  0.86006143  0.13437973  0.75204520  1
  S  S111  1  0.85924509  0.63973241  0.08162457  1
  S  S112  1  0.85912032  0.63963559  0.42105621  1
  S  S113  1  0.85801995  0.63817123  0.74844952  1
  S  S114  1  0.14069135  0.36450787  0.24996406  1
  S  S115  1  0.14214345  0.35830846  0.58360964  1
  S  S116  1  0.14510047  0.36011489  0.91615259  1
  S  S117  1  0.14119675  0.85923105  0.24649274  1
  S  S118  1  0.14302244  0.85601588  0.58288059  1
  S  S119  1  0.13919030  0.85780184  0.92031888  1
  S  S120  1  0.63706507  0.36655375  0.24988091  1
  S  S121  1  0.63928112  0.35808800  0.58558232  1
  S  S122  1  0.64024110  0.36044732  0.91617282  1
  S  S123  1  0.63731725  0.86242948  0.25052853  1
  S  S124  1  0.64213691  0.85520546  0.57934298  1
  S  S125  1  0.64226601  0.85870275  0.91713929  1
  S  S126  1  0.06900930  0.17560952  0.04143064  1
  S  S127  1  0.06644467  0.17176625  0.37742334  1
  S  S128  1  0.06613842  0.16305019  0.70347258  1
  S  S129  1  0.06238838  0.65880692  0.03686388  1
  S  S130  1  0.06890532  0.66385478  0.37257018  1
  S  S131  1  0.06808384  0.67001422  0.71009596  1
  S  S132  1  0.56898504  0.17504485  0.04059331  1
  S  S133  1  0.56180227  0.16591837  0.37654617  1
  S  S134  1  0.57037079  0.17127998  0.71161943  1
  S  S135  1  0.56816979  0.66779939  0.04277357  1
  S  S136  1  0.56475107  0.66851954  0.37655756  1
  S  S137  1  0.56467679  0.66565912  0.70911639  1
  S  S138  1  0.33447331  0.43541810  0.12369269  1
  S  S139  1  0.33384488  0.43413413  0.45950204  1
  S  S140  1  0.33205836  0.43269799  0.78907485  1
  S  S141  1  0.33554693  0.93779753  0.12649254  1
  S  S142  1  0.32627152  0.93226793  0.45637298  1
  S  S143  1  0.33006872  0.92883460  0.79291309  1
  S  S144  1  0.83328944  0.43896667  0.12601343  1
  S  S145  1  0.82266834  0.42973493  0.45821400  1
  S  S146  1  0.83103014  0.43709684  0.78881642  1
  S  S147  1  0.82786589  0.93348671  0.12302591  1
  S  S148  1  0.83127327  0.94047704  0.45870874  1
  S  S149  1  0.83782708  0.92657564  0.79501434  1
  S  S150  1  0.43177615  0.33297539  0.29079038  1
  S  S151  1  0.43421679  0.33362686  0.62346575  1
  S  S152  1  0.43413402  0.33040822  0.95654580  1
  S  S153  1  0.43306164  0.83195317  0.29269907  1
  S  S154  1  0.42873133  0.82701493  0.62271063  1
  S  S155  1  0.43351756  0.83112270  0.95832089  1
  S  S156  1  0.93153930  0.33703873  0.29324621  1
  S  S157  1  0.93768475  0.33246087  0.62520132  1
  S  S158  1  0.93491033  0.33083599  0.96215455  1
  S  S159  1  0.93173086  0.82677173  0.28560379  1
  S  S160  1  0.93401900  0.83043690  0.62625219  1
  S  S161  1  0.92983913  0.82401011  0.95567127  1
  S  S162  1  0.17652390  0.06927961  0.21136170  1
  S  S163  1  0.17342350  0.06597339  0.53927990  1
  S  S164  1  0.16577698  0.06386134  0.87614366  1
  S  S165  1  0.16855585  0.57263982  0.20820535  1
  S  S166  1  0.17214987  0.56952014  0.54240019  1
  S  S167  1  0.16974112  0.56492326  0.87302491  1
  S  S168  1  0.66986879  0.06399629  0.20985278  1
  S  S169  1  0.67100869  0.06418013  0.54234034  1
  S  S170  1  0.67874656  0.06978957  0.88070013  1
  S  S171  1  0.66350796  0.57349096  0.20788382  1
  S  S172  1  0.66494182  0.56463540  0.54266021  1
  S  S173  1  0.66554451  0.56471367  0.87591514  1
  O  O174  1  0.36839962  0.21776080  0.07180408  1
  O  O175  1  0.36905790  0.21750950  0.40564305  1
  O  O176  1  0.37330397  0.21882561  0.73559952  1
  O  O177  1  0.37287759  0.71701398  0.07214754  1
  O  O178  1  0.36746131  0.73061325  0.41903782  1
  O  O179  1  0.36978410  0.71795757  0.74324641  1
  O  O180  1  0.87128679  0.21903007  0.07916366  1
  O  O181  1  0.86834804  0.22054736  0.40270450  1
  O  O182  1  0.86429674  0.21099547  0.74127820  1
  O  O183  1  0.86868347  0.71806619  0.07255071  1
  O  O184  1  0.86322165  0.71767245  0.41480535  1
  O  O185  1  0.86741215  0.71732294  0.74082363  1
  O  O186  1  0.27697648  0.13473548  0.08784644  1
  O  O187  1  0.27967497  0.13200180  0.42189654  1
  O  O188  1  0.28519054  0.13740761  0.76022775  1
  O  O189  1  0.28277230  0.62852528  0.08763208  1
  O  O190  1  0.28249891  0.63521052  0.42869641  1
  O  O191  1  0.28134450  0.62935822  0.75913021  1
  O  O192  1  0.77605830  0.13510491  0.08920015  1
  O  O193  1  0.77544064  0.13608068  0.41617652  1
  O  O194  1  0.78824659  0.11735747  0.76674260  1
  O  O195  1  0.77900175  0.63149785  0.08782571  1
  O  O196  1  0.78370841  0.62636161  0.43793927  1
  O  O197  1  0.78013036  0.63113577  0.76031657  1
  O  O198  1  0.13447033  0.28746042  0.25938800  1
  O  O199  1  0.13460997  0.27913231  0.59190635  1
  O  O200  1  0.13606069  0.27918055  0.92070663  1
  O  O201  1  0.13014331  0.78143786  0.25675312  1
  O  O202  1  0.13324544  0.77358099  0.58653375  1
  O  O203  1  0.12853098  0.77786700  0.92505897  1
  O  O204  1  0.63249257  0.29171267  0.26403625  1
  O  O205  1  0.62896232  0.28098347  0.59645238  1
  O  O206  1  0.63158562  0.28143890  0.92291427  1
  O  O207  1  0.62680382  0.78517806  0.26141474  1
  O  O208  1  0.63227559  0.77286607  0.58269691  1
  O  O209  1  0.63253311  0.77908494  0.92575482  1
  O  O210  1  0.21094742  0.37775495  0.23089806  1
  O  O211  1  0.22161556  0.36778308  0.57521150  1
  O  O212  1  0.22473460  0.36789252  0.90759609  1
  O  O213  1  0.22240865  0.86809565  0.24372433  1
  O  O214  1  0.22778473  0.86435822  0.58533964  1
  O  O215  1  0.21904494  0.86763815  0.91438466  1
  O  O216  1  0.70792641  0.37984606  0.23200477  1
  O  O217  1  0.72005660  0.36740316  0.58395181  1
  O  O218  1  0.71690993  0.36871776  0.90308158  1
  O  O219  1  0.71562624  0.87008328  0.24128169  1
  O  O220  1  0.72166566  0.86266044  0.57027928  1
  O  O221  1  0.72324914  0.86728236  0.91326479  1
  O  O222  1  0.41505911  0.12712782  0.14599213  1
  O  O223  1  0.41708109  0.13514202  0.48746540  1
  O  O224  1  0.42298898  0.13701159  0.81762837  1
  O  O225  1  0.42073722  0.63200326  0.15052904  1
  O  O226  1  0.42034706  0.63629640  0.48671707  1
  O  O227  1  0.41967532  0.63196940  0.82062832  1
  O  O228  1  0.91177584  0.12807396  0.15336876  1
  O  O229  1  0.91211217  0.13753678  0.48450443  1
  O  O230  1  0.92754662  0.12809752  0.81797221  1
  O  O231  1  0.91750639  0.63043971  0.14902102  1
  O  O232  1  0.92243093  0.63158843  0.48944986  1
  O  O233  1  0.91885901  0.62889227  0.81483818  1
  O  O234  1  0.36319939  0.08013359  0.01079875  1
  O  O235  1  0.37124624  0.07847865  0.35168584  1
  O  O236  1  0.36725074  0.07991839  0.68208314  1
  O  O237  1  0.37263777  0.57862410  0.01493133  1
  O  O238  1  0.36945519  0.59388278  0.35097937  1
  O  O239  1  0.37056010  0.57952525  0.68503620  1
  O  O240  1  0.86649334  0.08190927  0.01648107  1
  O  O241  1  0.86806647  0.08299715  0.34764843  1
  O  O242  1  0.87076185  0.07377758  0.68403106  1
  O  O243  1  0.86661950  0.57972301  0.01328517  1
  O  O244  1  0.86556433  0.57872020  0.35514382  1
  O  O245  1  0.86220915  0.57923328  0.67904500  1
  O  O246  1  0.07167223  0.37603499  0.18844474  1
  O  O247  1  0.08345765  0.36621940  0.51606924  1
  O  O248  1  0.08630831  0.37246112  0.85208169  1
  O  O249  1  0.08569915  0.86261418  0.17449051  1
  O  O250  1  0.09240400  0.86350216  0.51213925  1
  O  O251  1  0.08131405  0.86808065  0.85249128  1
  O  O252  1  0.56872927  0.37290115  0.18453646  1
  O  O253  1  0.58324248  0.36497118  0.51505479  1
  O  O254  1  0.57851150  0.37338589  0.85153096  1
  O  O255  1  0.57754051  0.86719272  0.18053256  1
  O  O256  1  0.58383676  0.86201953  0.50919147  1
  O  O257  1  0.58602865  0.86195725  0.84593649  1
  O  O258  1  0.13732665  0.42473449  0.32136242  1
  O  O259  1  0.13695264  0.41710854  0.65305844  1
  O  O260  1  0.14024739  0.41664167  0.98781063  1
  O  O261  1  0.12918366  0.91992489  0.31119838  1
  O  O262  1  0.12905275  0.91162318  0.64783506  1
  O  O263  1  0.12993352  0.91597199  0.98857558  1
  O  O264  1  0.62816863  0.42992180  0.31712418  1
  O  O265  1  0.62513580  0.41930789  0.65045919  1
  O  O266  1  0.63532678  0.41898899  0.98647103  1
  O  O267  1  0.62792371  0.92410952  0.31614877  1
  O  O268  1  0.63549581  0.91113790  0.64636685  1
  O  O269  1  0.63163751  0.91748495  0.98340474  1
  O  O270  1  0.03377168  0.20287949  0.10137402  1
  O  O271  1  0.03335484  0.20147881  0.44203481  1
  O  O272  1  0.03599489  0.19122616  0.76769436  1
  O  O273  1  0.02862014  0.69109164  0.09926838  1
  O  O274  1  0.03363823  0.68550455  0.43275839  1
  O  O275  1  0.03073037  0.69969949  0.77133550  1
  O  O276  1  0.53013025  0.20154176  0.09850692  1
  O  O277  1  0.53189224  0.19958717  0.44337147  1
  O  O278  1  0.53394917  0.21037885  0.77329502  1
  O  O279  1  0.53392977  0.69866845  0.10454646  1
  O  O280  1  0.52565566  0.69876250  0.43589691  1
  O  O281  1  0.53045849  0.69680180  0.77152283  1
  O  O282  1  0.30240774  0.46860604  0.05893619  1
  O  O283  1  0.30717022  0.47275637  0.40173001  1
  O  O284  1  0.30182356  0.46916627  0.72839571  1
  O  O285  1  0.30165179  0.97231447  0.06446155  1
  O  O286  1  0.29721990  0.97054411  0.39630785  1
  O  O287  1  0.30827626  0.96459699  0.73324501  1
  O  O288  1  0.79995613  0.46783124  0.05743804  1
  O  O289  1  0.79380172  0.46415782  0.39741791  1
  O  O290  1  0.79256240  0.47315506  0.72817038  1
  O  O291  1  0.79634458  0.96966723  0.06194681  1
  O  O292  1  0.79504279  0.97740541  0.39678227  1
  O  O293  1  0.81418739  0.95353734  0.72976873  1
  O  O294  1  0.45815433  0.29584716  0.22582444  1
  O  O295  1  0.46843316  0.30473627  0.56124202  1
  O  O296  1  0.46912616  0.30287839  0.89465750  1
  O  O297  1  0.46632706  0.80034507  0.22938546  1
  O  O298  1  0.47251607  0.80044878  0.56650734  1
  O  O299  1  0.47280324  0.80228891  0.89848866  1
  O  O300  1  0.96301300  0.30026434  0.23155379  1
  O  O301  1  0.96777344  0.29938112  0.55871501  1
  O  O302  1  0.97319450  0.30436215  0.90384172  1
  O  O303  1  0.96844057  0.79676826  0.22142609  1
  O  O304  1  0.97253617  0.80252871  0.56866390  1
  O  O305  1  0.96718997  0.79270694  0.89524658  1
  O  O306  1  0.21007261  0.02987943  0.27110469  1
  O  O307  1  0.20131839  0.02742195  0.59718723  1
  O  O308  1  0.19570492  0.02812151  0.93955301  1
  O  O309  1  0.19560692  0.54175962  0.27092501  1
  O  O310  1  0.20076548  0.53084064  0.60352529  1
  O  O311  1  0.20098697  0.53038871  0.93535098  1
  O  O312  1  0.70685130  0.02762930  0.26983748  1
  O  O313  1  0.70125794  0.02759277  0.60084612  1
  O  O314  1  0.70635415  0.03060777  0.94225946  1
  O  O315  1  0.69183327  0.54960894  0.27473311  1
  O  O316  1  0.69161742  0.52606924  0.60289395  1
  O  O317  1  0.69665324  0.52996295  0.93735792  1
  O  O318  1  0.08844827  0.09325840  0.03383197  1
  O  O319  1  0.09315072  0.09377939  0.37600000  1
  O  O320  1  0.07356846  0.07893497  0.68609721  1
  O  O321  1  0.07652589  0.57480540  0.03056896  1
  O  O322  1  0.09224363  0.58264573  0.36241999  1
  O  O323  1  0.08463277  0.58817058  0.70709049  1
  O  O324  1  0.58879214  0.09391876  0.03812665  1
  O  O325  1  0.58522134  0.08604532  0.37750718  1
  O  O326  1  0.58392117  0.09341977  0.71193093  1
  O  O327  1  0.58451370  0.58490374  0.03613536  1
  O  O328  1  0.57942196  0.58594647  0.37101941  1
  O  O329  1  0.57806164  0.58158425  0.70362522  1
  O  O330  1  0.41519767  0.41373818  0.12359157  1
  O  O331  1  0.41651109  0.41542211  0.46479249  1
  O  O332  1  0.41562145  0.41813225  0.79472851  1
  O  O333  1  0.41779386  0.92136768  0.12841026  1
  O  O334  1  0.40705520  0.91258682  0.45757353  1
  O  O335  1  0.41174419  0.90842568  0.80586518  1
  O  O336  1  0.91470082  0.41948933  0.12875780  1
  O  O337  1  0.90473342  0.41236347  0.46347881  1
  O  O338  1  0.91310748  0.43238225  0.79288157  1
  O  O339  1  0.90839675  0.91392408  0.12444075  1
  O  O340  1  0.91198224  0.93054866  0.46298919  1
  O  O341  1  0.92224300  0.90967096  0.81067518  1
  O  O342  1  0.42747561  0.41701177  0.30101366  1
  O  O343  1  0.41769223  0.41688411  0.63038612  1
  O  O344  1  0.41868060  0.41466278  0.96276898  1
  O  O345  1  0.41627945  0.91426548  0.29672691  1
  O  O346  1  0.40428532  0.90420136  0.62368386  1
  O  O347  1  0.41529307  0.91248383  0.96609984  1
  O  O348  1  0.92600118  0.42059252  0.30182238  1
  O  O349  1  0.91043777  0.41082396  0.62358757  1
  O  O350  1  0.91745615  0.41448212  0.96616443  1
  O  O351  1  0.90598320  0.90425092  0.28249671  1
  O  O352  1  0.91254034  0.91108994  0.63061717  1
  O  O353  1  0.91327441  0.90544289  0.96013557  1
  O  O354  1  0.09882673  0.08770385  0.21107719  1
  O  O355  1  0.09362317  0.08827904  0.53724732  1
  O  O356  1  0.08661480  0.08838900  0.87574965  1
  O  O357  1  0.08434942  0.58880588  0.19635385  1
  O  O358  1  0.09161365  0.58843349  0.53669674  1
  O  O359  1  0.08686831  0.58046253  0.86719363  1
  O  O360  1  0.58768823  0.07180360  0.20562414  1
  O  O361  1  0.58946076  0.08448670  0.53941725  1
  O  O362  1  0.59928661  0.09099873  0.87989592  1
  O  O363  1  0.57833624  0.58770038  0.19543243  1
  O  O364  1  0.58132701  0.58067217  0.53617972  1
  O  O365  1  0.58262095  0.58104850  0.87102943  1
  O  O366  1  0.14156012  0.22784461  0.05824151  1
  O  O367  1  0.13510259  0.22847043  0.39294123  1
  O  O368  1  0.14136152  0.21200038  0.72151350  1
  O  O369  1  0.13363834  0.70597235  0.04774651  1
  O  O370  1  0.13696664  0.71978438  0.38667899  1
  O  O371  1  0.14102575  0.72107716  0.72912724  1
  O  O372  1  0.64108267  0.22818212  0.05926222  1
  O  O373  1  0.62845951  0.21885712  0.38559529  1
  O  O374  1  0.64154308  0.22414200  0.72642390  1
  O  O375  1  0.63980047  0.71838357  0.05669027  1
  O  O376  1  0.63679774  0.71896278  0.39410395  1
  O  O377  1  0.63755455  0.71282934  0.72277331  1
  O  O378  1  0.28251797  0.36454354  0.10886370  1
  O  O379  1  0.28237939  0.36325826  0.44537134  1
  O  O380  1  0.28291547  0.36013132  0.77332423  1
  O  O381  1  0.28731560  0.86756816  0.11620385  1
  O  O382  1  0.27268883  0.86099112  0.43774574  1
  O  O383  1  0.27543102  0.85821653  0.77610331  1
  O  O384  1  0.78231784  0.36752985  0.11197589  1
  O  O385  1  0.77192021  0.35933487  0.44642697  1
  O  O386  1  0.78558613  0.36154781  0.77206009  1
  O  O387  1  0.77531497  0.86245774  0.10774744  1
  O  O388  1  0.78047887  0.86766978  0.43975033  1
  O  O389  1  0.78614499  0.85576694  0.78221458  1
  O  O390  1  0.35657085  0.29056027  0.28194151  1
  O  O391  1  0.36300251  0.28310207  0.60934780  1
  O  O392  1  0.36142542  0.28078010  0.94030882  1
  O  O393  1  0.36406395  0.78080556  0.28147811  1
  O  O394  1  0.36125139  0.76804435  0.60317590  1
  O  O395  1  0.36302231  0.77716199  0.93876875  1
  O  O396  1  0.85598439  0.29283630  0.28054963  1
  O  O397  1  0.87255086  0.27822615  0.61777100  1
  O  O398  1  0.86152349  0.28109916  0.94454106  1
  O  O399  1  0.86344872  0.77025141  0.26735887  1
  O  O400  1  0.86328620  0.77612600  0.60979899  1
  O  O401  1  0.85718170  0.77240359  0.93776185  1
  O  O402  1  0.23085184  0.14014466  0.22889849  1
  O  O403  1  0.22806763  0.13696866  0.55627218  1
  O  O404  1  0.22208614  0.13356208  0.89420692  1
  O  O405  1  0.21867817  0.64335200  0.21992430  1
  O  O406  1  0.22735827  0.63991394  0.56251909  1
  O  O407  1  0.21993099  0.63569200  0.88621640  1
  O  O408  1  0.71636086  0.13950695  0.22680153  1
  O  O409  1  0.72189084  0.13432567  0.55353140  1
  O  O410  1  0.73292441  0.14226957  0.90343004  1
  O  O411  1  0.71090664  0.64280024  0.21300620  1
  O  O412  1  0.71654992  0.63687546  0.56348562  1
  O  O413  1  0.71519794  0.63683585  0.88978653  1
  O  O414  1  0.49276169  0.33240167  0.02889000  1
  O  O415  1  0.49200838  0.32631068  0.36136341  1
  O  O416  1  0.49476048  0.33717206  0.69608787  1
  O  O417  1  0.49245744  0.82977650  0.03002827  1
  O  O418  1  0.49557633  0.83812849  0.36515333  1
  O  O419  1  0.48609812  0.83083671  0.69728767  1
  O  O420  1  0.99092075  0.33573321  0.03714265  1
  O  O421  1  0.98906700  0.33254316  0.36609871  1
  O  O422  1  1.00371683  0.34815995  0.69466996  1
  O  O423  1  0.98792593  0.82364441  0.02756874  1
  O  O424  1  0.99216375  0.83279239  0.35522291  1
  O  O425  1  0.99162821  0.83530011  0.70171910  1
  O  O426  1  0.17582347  0.01089979  0.13841880  1
  O  O427  1  0.16865699  0.00878002  0.46452544  1
  O  O428  1  0.15844793  0.00438942  0.80489441  1
  O  O429  1  0.16846169  0.51056911  0.13680706  1
  O  O430  1  0.17396303  0.51102862  0.47120259  1
  O  O431  1  0.16634817  0.50392355  0.80038545  1
  O  O432  1  0.67080326  0.00889594  0.13540700  1
  O  O433  1  0.66084426  0.00406702  0.46640598  1
  O  O434  1  0.67841249  0.01359475  0.81077150  1
  O  O435  1  0.66254555  0.50755450  0.13830438  1
  O  O436  1  0.66454930  0.50782651  0.47025030  1
  O  O437  1  0.66208153  0.50541243  0.80272105  1
  O  O438  1  0.00431750  0.16382756  0.30726160  1
  O  O439  1  0.00835516  0.17595658  0.63547326  1
  O  O440  1  0.01100194  0.17395509  0.96803018  1
  O  O441  1  0.00713572  0.66099230  0.29992179  1
  O  O442  1  0.01122030  0.66977747  0.63805895  1
  O  O443  1  0.00066268  0.65618953  0.96443102  1
  O  O444  1  0.49672142  0.15365715  0.30718333  1
  O  O445  1  0.51063209  0.17368339  0.63949096  1
  O  O446  1  0.51283097  0.17125147  0.96607081  1
  O  O447  1  0.50614818  0.66822173  0.30368428  1
  O  O448  1  0.50532127  0.66407511  0.63696999  1
  O  O449  1  0.50774395  0.66570453  0.97040769  1
  O  O450  1  0.34212645  0.49695292  0.19393800  1
  O  O451  1  0.33956297  0.49275389  0.53483064  1
  O  O452  1  0.33456459  0.49166276  0.86214413  1
  O  O453  1  0.34377300  0.99961606  0.20020504  1
  O  O454  1  0.33005916  0.98884181  0.52999417  1
  O  O455  1  0.32741157  0.98838844  0.86419523  1
  O  O456  1  0.83600752  0.50302635  0.19273947  1
  O  O457  1  0.82602204  0.49087291  0.53125655  1
  O  O458  1  0.82720692  0.49236650  0.86211605  1
  O  O459  1  0.83368951  0.99308459  0.19612789  1
  O  O460  1  0.82717388  0.99702887  0.53101085  1
  O  O461  1  0.83753942  0.98936999  0.86537073  1
