# generated using pymatgen
data_Na31Fe20(SO4)36
_symmetry_space_group_name_H-M   'P 1'
_cell_length_a   18.06502830
_cell_length_b   18.07262240
_cell_length_c   19.70530911
_cell_angle_alpha   107.59929920
_cell_angle_beta   107.54670570
_cell_angle_gamma   90.73847537
_symmetry_Int_Tables_number   1
_chemical_formula_structural   Na31Fe20(SO4)36
_chemical_formula_sum   'Na62 Fe40 S72 O288'
_cell_volume   5808.54808500
_cell_formula_units_Z   2
loop_
 _symmetry_equiv_pos_site_id
 _symmetry_equiv_pos_as_xyz
  1  'x, y, z'
loop_
 _atom_site_type_symbol
 _atom_site_label
 _atom_site_symmetry_multiplicity
 _atom_site_fract_x
 _atom_site_fract_y
 _atom_site_fract_z
 _atom_site_occupancy
  Na  Na0  1  0.13945231  0.36558804  0.08730163  1
  Na  Na1  1  0.12074409  0.36593280  0.40682190  1
  Na  Na2  1  0.14078679  0.36322902  0.75848297  1
  Na  Na3  1  0.14274650  0.86923834  0.08151386  1
  Na  Na4  1  0.12524563  0.86612005  0.41476283  1
  Na  Na5  1  0.15606957  0.86940811  0.76351649  1
  Na  Na6  1  0.63538178  0.37335916  0.09358796  1
  Na  Na7  1  0.62436376  0.34691314  0.40294615  1
  Na  Na8  1  0.65023364  0.34547658  0.74785368  1
  Na  Na9  1  0.63186495  0.86809719  0.08220030  1
  Na  Na10  1  0.62973717  0.87104850  0.41731932  1
  Na  Na11  1  0.63191280  0.86667038  0.74679936  1
  Na  Na12  1  0.37261554  0.15011925  0.25930127  1
  Na  Na13  1  0.37017295  0.12637267  0.58068344  1
  Na  Na14  1  0.36824383  0.13012046  0.91385749  1
  Na  Na15  1  0.36649438  0.63324455  0.24703330  1
  Na  Na16  1  0.36882516  0.63329344  0.58578535  1
  Na  Na17  1  0.33589579  0.64248639  0.90897339  1
  Na  Na18  1  0.86752132  0.13471945  0.24934790  1
  Na  Na19  1  0.86591736  0.13618816  0.58645170  1
  Na  Na20  1  0.86053771  0.13729932  0.90978890  1
  Na  Na21  1  0.86268356  0.63414761  0.25025833  1
  Na  Na22  1  0.86966560  0.62304393  0.57523762  1
  Na  Na23  1  0.86938855  0.63465842  0.91614834  1
  Na  Na24  1  0.50942504  0.47874969  0.42191505  1
  Na  Na25  1  1.00306921  0.48558704  0.10217777  1
  Na  Na26  1  0.49031950  0.04587745  0.08715669  1
  Na  Na27  1  0.46024458  0.50626589  0.07994067  1
  Na  Na28  1  0.49138508  0.50429981  0.75143885  1
  Na  Na29  1  1.00362780  0.50645856  0.72389515  1
  Na  Na30  1  1.02503592  -0.00914990  0.73513987  1
  Na  Na31  1  0.48204920  0.01262248  0.75182955  1
  Na  Na32  1  1.00422179  0.06034401  0.10801765  1
  Na  Na33  1  0.50675463  0.45025563  0.57407957  1
  Na  Na34  1  0.05952710  0.99831403  0.93355756  1
  Na  Na35  1  0.02610060  0.97435817  0.55756215  1
  Na  Na36  1  0.50630338  0.47962353  0.25330213  1
  Na  Na37  1  0.01646034  0.48817571  0.91444459  1
  Na  Na38  1  0.47249087  0.51315557  0.92384697  1
  Na  Na39  1  0.49462243  1.01428742  0.25624054  1
  Na  Na40  1  -0.04268605  0.51610785  0.32841301  1
  Na  Na41  1  0.00691165  1.00085360  0.26583111  1
  Na  Na42  1  0.76394253  0.76089040  0.32974115  1
  Na  Na43  1  0.75607841  0.75475068  -0.00402617  1
  Na  Na44  1  0.25288492  0.75450253  0.33027041  1
  Na  Na45  1  0.23765263  0.23560840  0.00749325  1
  Na  Na46  1  0.24289517  0.24710101  0.33845223  1
  Na  Na47  1  0.24458828  0.23950416  0.67454522  1
  Na  Na48  1  0.75690205  0.26022356  -0.00894726  1
  Na  Na49  1  0.24445229  0.74423826  0.67569593  1
  Na  Na50  1  0.74069508  0.24745463  0.32890376  1
  Na  Na51  1  0.76053375  0.75531306  0.65835925  1
  Na  Na52  1  0.75632824  0.75513118  0.82629717  1
  Na  Na53  1  0.22788788  0.22852273  0.17227700  1
  Na  Na54  1  0.26132840  0.75846455  0.15079921  1
  Na  Na55  1  0.75300176  0.75267210  0.16311390  1
  Na  Na56  1  0.75628603  0.26926995  0.16712740  1
  Na  Na57  1  0.76510182  0.75993601  0.49095242  1
  Na  Na58  1  0.74348542  0.24332085  0.50876809  1
  Na  Na59  1  0.24466028  0.23964771  0.84025180  1
  Na  Na60  1  0.24194827  0.74963541  0.50489304  1
  Na  Na61  1  0.24673375  0.24227929  0.50218030  1
  Fe  Fe62  1  0.96747753  0.80701604  0.11807869  1
  Fe  Fe63  1  0.96442801  0.30579709  0.12850769  1
  Fe  Fe64  1  0.46586299  0.81029727  0.11903706  1
  Fe  Fe65  1  0.46575675  0.81167175  0.45843924  1
  Fe  Fe66  1  0.46338850  0.81295737  0.79245552  1
  Fe  Fe67  1  0.95915489  0.30427933  0.78122796  1
  Fe  Fe68  1  0.96440340  0.30895603  0.45270880  1
  Fe  Fe69  1  0.46713835  0.31160390  0.78850985  1
  Fe  Fe70  1  0.46438440  0.30040608  0.11787250  1
  Fe  Fe71  1  0.97078695  0.80765816  0.78755744  1
  Fe  Fe72  1  0.69479169  0.53297103  0.04834340  1
  Fe  Fe73  1  0.68354832  0.04178130  0.70900090  1
  Fe  Fe74  1  0.19128134  0.53400099  0.71130268  1
  Fe  Fe75  1  0.68560819  0.03586898  0.04449593  1
  Fe  Fe76  1  0.69412208  0.53274857  0.71538105  1
  Fe  Fe77  1  0.19584789  0.03470669  0.38267223  1
  Fe  Fe78  1  0.69293389  0.03490556  0.38223390  1
  Fe  Fe79  1  0.69901579  0.52863638  0.37904662  1
  Fe  Fe80  1  0.20052789  0.52871238  0.04079707  1
  Fe  Fe81  1  0.19115798  0.53672772  0.37888019  1
  Fe  Fe82  1  0.03403040  0.69418616  0.21264595  1
  Fe  Fe83  1  0.53282650  0.69688181  0.88276182  1
  Fe  Fe84  1  0.04054304  0.69075101  0.87868368  1
  Fe  Fe85  1  0.53915204  0.19512357  0.87987176  1
  Fe  Fe86  1  0.03572487  0.18955684  0.54382391  1
  Fe  Fe87  1  0.03270243  0.18839387  0.87549806  1
  Fe  Fe88  1  0.53651494  0.69172644  0.54863889  1
  Fe  Fe89  1  0.53357594  0.69324433  0.21475629  1
  Fe  Fe90  1  0.53412863  0.19536910  0.54500564  1
  Fe  Fe91  1  0.03099631  0.69650707  0.54092917  1
  Fe  Fe92  1  0.31161570  0.96623627  0.28769958  1
  Fe  Fe93  1  0.30139643  0.96963142  0.62679086  1
  Fe  Fe94  1  0.80723385  0.96764209  0.95290274  1
  Fe  Fe95  1  0.30216199  0.96721918  0.95695084  1
  Fe  Fe96  1  0.30591546  0.46403105  0.61502451  1
  Fe  Fe97  1  0.80724144  0.96724958  0.61973183  1
  Fe  Fe98  1  0.81092962  0.96525038  0.28937993  1
  Fe  Fe99  1  0.81205205  0.46301714  0.95134531  1
  Fe  Fe100  1  0.80748993  0.46198861  0.62002450  1
  Fe  Fe101  1  0.30730241  0.46888668  0.28624458  1
  S  S102  1  0.35510733  0.14332750  0.08021320  1
  S  S103  1  0.36238556  0.14065141  0.41793837  1
  S  S104  1  0.36282928  0.14456307  0.74997892  1
  S  S105  1  0.36233450  0.64270253  0.08050868  1
  S  S106  1  0.36000007  0.64370915  0.41813001  1
  S  S107  1  0.36222719  0.63786533  0.75101635  1
  S  S108  1  0.84996425  0.14093312  0.08106298  1
  S  S109  1  0.85947206  0.14110275  0.41644852  1
  S  S110  1  0.85763272  0.13869949  0.74892880  1
  S  S111  1  0.85991655  0.63929103  0.08099417  1
  S  S112  1  0.85546338  0.64189180  0.41848747  1
  S  S113  1  0.86209045  0.64082736  0.74980045  1
  S  S114  1  0.14065363  0.36472715  0.24681483  1
  S  S115  1  0.14190003  0.35794008  0.58185480  1
  S  S116  1  0.13634589  0.35575643  0.91408113  1
  S  S117  1  0.14099037  0.85875128  0.24855665  1
  S  S118  1  0.14374426  0.85590819  0.58770752  1
  S  S119  1  0.14420463  0.85654842  0.91671492  1
  S  S120  1  0.63193019  0.36289187  0.24944160  1
  S  S121  1  0.64351589  0.35852356  0.58720681  1
  S  S122  1  0.64202570  0.36307472  0.91557386  1
  S  S123  1  0.64137909  0.85730061  0.25201108  1
  S  S124  1  0.64226505  0.85888186  0.58464211  1
  S  S125  1  0.64271067  0.85800909  0.91686771  1
  S  S126  1  0.05954705  0.17421368  0.04131924  1
  S  S127  1  0.06642560  0.17008089  0.37727186  1
  S  S128  1  0.06175521  0.16735545  0.70496557  1
  S  S129  1  0.06971340  0.66808433  0.04176871  1
  S  S130  1  0.06696059  0.66673555  0.37068117  1
  S  S131  1  0.06919581  0.67370130  0.70656366  1
  S  S132  1  0.56934854  0.17554700  0.04158761  1
  S  S133  1  0.56917480  0.16489726  0.37791385  1
  S  S134  1  0.56690507  0.16907121  0.70816418  1
  S  S135  1  0.56913255  0.67080209  0.04274952  1
  S  S136  1  0.56842686  0.66791289  0.37848956  1
  S  S137  1  0.56758201  0.66628805  0.71003931  1
  S  S138  1  0.33064772  0.43177407  0.12202101  1
  S  S139  1  0.33092274  0.43838321  0.45602690  1
  S  S140  1  0.33010990  0.43657760  0.78828202  1
  S  S141  1  0.33780970  0.93648440  0.12897423  1
  S  S142  1  0.32321480  0.92670879  0.45907604  1
  S  S143  1  0.33963781  0.93544367  0.79630203  1
  S  S144  1  0.83222673  0.43637099  0.12384716  1
  S  S145  1  0.82192787  0.42448234  0.45860201  1
  S  S146  1  0.83456424  0.43571879  0.79227355  1
  S  S147  1  0.83272813  0.93317070  0.12449258  1
  S  S148  1  0.82805666  0.93585702  0.45712993  1
  S  S149  1  0.83103374  0.93030495  0.79063333  1
  S  S150  1  0.42549010  0.33563125  0.28760956  1
  S  S151  1  0.43464995  0.32933636  0.62508019  1
  S  S152  1  0.43769922  0.33230988  0.95654963  1
  S  S153  1  0.43303673  0.82814968  0.29122347  1
  S  S154  1  0.43165245  0.82894996  0.62651056  1
  S  S155  1  0.43130163  0.83144122  0.96016577  1
  S  S156  1  0.92404094  0.32351062  0.28736871  1
  S  S157  1  0.93554573  0.32941956  0.62388285  1
  S  S158  1  0.93468538  0.33217941  0.96004186  1
  S  S159  1  0.93400006  0.82933695  0.28700344  1
  S  S160  1  0.93440489  0.83019517  0.62514921  1
  S  S161  1  0.93251075  0.83031217  0.95657844  1
  S  S162  1  0.17125349  0.05859984  0.21516933  1
  S  S163  1  0.17103566  0.06521076  0.54246799  1
  S  S164  1  0.17216452  0.06429319  0.87170452  1
  S  S165  1  0.17401574  0.57228245  0.20622295  1
  S  S166  1  0.17259837  0.57108306  0.54356315  1
  S  S167  1  0.15550439  0.56070457  0.86737440  1
  S  S168  1  0.66748793  0.05826540  0.20862532  1
  S  S169  1  0.67131541  0.07086149  0.54407004  1
  S  S170  1  0.66908521  0.06596739  0.87387753  1
  S  S171  1  0.66477905  0.57344048  0.20678078  1
  S  S172  1  0.66903732  0.56479811  0.54416342  1
  S  S173  1  0.66992502  0.56957814  0.87683422  1
  O  O174  1  0.37252734  0.21756378  0.06286387  1
  O  O175  1  0.36501044  0.21409611  0.40193244  1
  O  O176  1  0.37630905  0.22252832  0.73960014  1
  O  O177  1  0.37117244  0.72626650  0.08470762  1
  O  O178  1  0.36970251  0.72324908  0.41113641  1
  O  O179  1  0.37262843  0.71613397  0.74229654  1
  O  O180  1  0.85878175  0.22219379  0.07799914  1
  O  O181  1  0.86843646  0.21983300  0.40820274  1
  O  O182  1  0.86628202  0.21729742  0.74118010  1
  O  O183  1  0.86883674  0.71841832  0.07264915  1
  O  O184  1  0.85422299  0.72279059  0.41738001  1
  O  O185  1  0.86933751  0.72011180  0.74183969  1
  O  O186  1  0.27562284  0.14425606  0.08423556  1
  O  O187  1  0.28506639  0.12768820  0.43042012  1
  O  O188  1  0.28633683  0.14002747  0.75972940  1
  O  O189  1  0.28188851  0.62847687  0.08401439  1
  O  O190  1  0.28096154  0.63503264  0.42618315  1
  O  O191  1  0.28277569  0.62718887  0.75630464  1
  O  O192  1  0.76957794  0.13016313  0.08673937  1
  O  O193  1  0.77991352  0.13235139  0.42365400  1
  O  O194  1  0.78076212  0.12516918  0.75821549  1
  O  O195  1  0.78118233  0.63160744  0.09031968  1
  O  O196  1  0.78147280  0.62243916  0.43465054  1
  O  O197  1  0.78272086  0.63015683  0.75734495  1
  O  O198  1  0.13867096  0.28587732  0.25241241  1
  O  O199  1  0.13494442  0.27927311  0.59183536  1
  O  O200  1  0.12526263  0.27696029  0.92354647  1
  O  O201  1  0.13005285  0.78078457  0.25875479  1
  O  O202  1  0.13436340  0.77070750  0.58293617  1
  O  O203  1  0.13279650  0.77546588  0.91800654  1
  O  O204  1  0.62280006  0.28950186  0.26437825  1
  O  O205  1  0.62908004  0.27998203  0.59404685  1
  O  O206  1  0.63455706  0.28291660  0.92128314  1
  O  O207  1  0.63085790  0.77935076  0.26230284  1
  O  O208  1  0.63260752  0.78095254  0.59591835  1
  O  O209  1  0.63255549  0.77952186  0.92660999  1
  O  O210  1  0.21580413  0.38125958  0.23261729  1
  O  O211  1  0.22086015  0.36678304  0.57272177  1
  O  O212  1  0.20903671  0.36182896  0.89758559  1
  O  O213  1  0.22213702  0.86611914  0.24510410  1
  O  O214  1  0.22893375  0.86751765  0.59338549  1
  O  O215  1  0.22288212  0.86924515  0.90866765  1
  O  O216  1  0.70454970  0.37418448  0.23384119  1
  O  O217  1  0.72620566  0.36524267  0.58767908  1
  O  O218  1  0.72055719  0.37500190  0.90809251  1
  O  O219  1  0.72224416  0.86387971  0.24667657  1
  O  O220  1  0.72192270  0.86589700  0.57693067  1
  O  O221  1  0.72347282  0.86544947  0.91139525  1
  O  O222  1  0.41277892  0.13622155  0.14766996  1
  O  O223  1  0.42250424  0.14110124  0.48994663  1
  O  O224  1  0.42469559  0.13474953  0.81625866  1
  O  O225  1  0.41924502  0.62985935  0.14905220  1
  O  O226  1  0.41915952  0.63508623  0.48584440  1
  O  O227  1  0.42054952  0.63066046  0.82051390  1
  O  O228  1  0.90770295  0.12705313  0.14473713  1
  O  O229  1  0.91740671  0.13376479  0.48506648  1
  O  O230  1  0.91851880  0.13084065  0.81648653  1
  O  O231  1  0.91938644  0.63042990  0.14793940  1
  O  O232  1  0.92061859  0.63316574  0.48299047  1
  O  O233  1  0.92126520  0.63564333  0.81884616  1
  O  O234  1  0.36244773  0.07861372  0.01293931  1
  O  O235  1  0.37370051  0.07576306  0.35552569  1
  O  O236  1  0.36900996  0.08340180  0.68140927  1
  O  O237  1  0.37556392  0.59067068  0.01310827  1
  O  O238  1  0.36732278  0.58577974  0.34924871  1
  O  O239  1  0.37424255  0.57784962  0.68486353  1
  O  O240  1  0.85651180  0.08583984  0.00917035  1
  O  O241  1  0.86750159  0.08187442  0.34846488  1
  O  O242  1  0.86719845  0.08012614  0.68086291  1
  O  O243  1  0.86616583  0.58084702  0.01201018  1
  O  O244  1  0.85958906  0.58830156  0.34748529  1
  O  O245  1  0.87156832  0.58137783  0.68268881  1
  O  O246  1  0.07674834  0.37440520  0.18202891  1
  O  O247  1  0.08310854  0.36404196  0.51345424  1
  O  O248  1  0.07015842  0.36711031  0.85140544  1
  O  O249  1  0.08505994  0.86282539  0.17719695  1
  O  O250  1  0.09470133  0.86882750  0.51887394  1
  O  O251  1  0.08489003  0.86781512  0.84844950  1
  O  O252  1  0.56593317  0.37066542  0.18268440  1
  O  O253  1  0.59063319  0.37118341  0.51973862  1
  O  O254  1  0.58262644  0.37208644  0.84824759  1
  O  O255  1  0.58527873  0.86230761  0.18133266  1
  O  O256  1  0.58405603  0.86273507  0.51475968  1
  O  O257  1  0.58598462  0.86261128  0.84682887  1
  O  O258  1  0.13557183  0.42212272  0.31757177  1
  O  O259  1  0.13461252  0.41737259  0.64989506  1
  O  O260  1  0.13441471  0.41540957  0.98555593  1
  O  O261  1  0.12785268  0.91970292  0.31278424  1
  O  O262  1  0.12674446  0.90561777  0.65394501  1
  O  O263  1  0.13461649  0.91274662  0.98380565  1
  O  O264  1  0.62295148  0.42832562  0.31568137  1
  O  O265  1  0.63348573  0.41796253  0.65580344  1
  O  O266  1  0.63336157  0.41958314  0.98501965  1
  O  O267  1  0.63120479  0.91775561  0.31752541  1
  O  O268  1  0.63479331  0.91984925  0.65126850  1
  O  O269  1  0.63457772  0.91763652  0.98399735  1
  O  O270  1  0.01919637  0.20551297  0.09779615  1
  O  O271  1  0.03374596  0.20266608  0.44218762  1
  O  O272  1  0.02642022  0.20210864  0.76712674  1
  O  O273  1  0.02990688  0.69628277  0.10083979  1
  O  O274  1  0.03116595  0.69013503  0.43026432  1
  O  O275  1  0.03107585  0.70133949  0.76761106  1
  O  O276  1  0.53142592  0.20546826  0.10027452  1
  O  O277  1  0.54354137  0.19235716  0.44549941  1
  O  O278  1  0.53263771  0.20468143  0.77027600  1
  O  O279  1  0.53330784  0.70168125  0.10371177  1
  O  O280  1  0.53125036  0.69948227  0.43919482  1
  O  O281  1  0.53251643  0.69670595  0.77171780  1
  O  O282  1  0.30480147  0.46936928  0.06300429  1
  O  O283  1  0.29498123  0.47531539  0.39569820  1
  O  O284  1  0.29789745  0.46561522  0.72138834  1
  O  O285  1  0.31266256  0.96800475  0.06588806  1
  O  O286  1  0.29534883  0.96331227  0.39795474  1
  O  O287  1  0.32122031  0.97702028  0.74040821  1
  O  O288  1  0.80108629  0.47024098  0.05933647  1
  O  O289  1  0.79186264  0.45828882  0.39765789  1
  O  O290  1  0.80371458  0.47355132  0.73189697  1
  O  O291  1  0.80284762  0.96794585  0.06254734  1
  O  O292  1  0.79409053  0.97298417  0.39581591  1
  O  O293  1  0.80329095  0.96460662  0.72864618  1
  O  O294  1  0.44562461  0.30907177  0.21706837  1
  O  O295  1  0.47299227  0.30088074  0.56688736  1
  O  O296  1  0.47632376  0.29824128  0.89677751  1
  O  O297  1  0.47237558  0.79826653  0.23220304  1
  O  O298  1  0.47248017  0.80180365  0.56806019  1
  O  O299  1  0.46990166  0.80336883  0.89879546  1
  O  O300  1  0.96466181  0.29746632  0.23034749  1
  O  O301  1  0.97361308  0.30146021  0.56409765  1
  O  O302  1  0.96436322  0.29774675  0.89528701  1
  O  O303  1  0.96647292  0.79714208  0.22134723  1
  O  O304  1  0.97197626  0.80134689  0.56723359  1
  O  O305  1  0.96967580  0.80167674  0.89615784  1
  O  O306  1  0.21340679  0.02714385  0.28000925  1
  O  O307  1  0.19915099  0.02820457  0.60144335  1
  O  O308  1  0.20048765  0.02783069  0.93244695  1
  O  O309  1  0.20380070  0.54051098  0.27028262  1
  O  O310  1  0.20169754  0.53102507  0.60269219  1
  O  O311  1  0.17891231  0.52631678  0.92850672  1
  O  O312  1  0.70614583  0.02235572  0.26939664  1
  O  O313  1  0.70073719  0.03220520  0.60470554  1
  O  O314  1  0.69471855  0.02456500  0.93183670  1
  O  O315  1  0.68597789  0.54600207  0.27182730  1
  O  O316  1  0.69933119  0.52837422  0.60554458  1
  O  O317  1  0.69918214  0.53605581  0.93940448  1
  O  O318  1  0.07760884  0.09510465  0.04251157  1
  O  O319  1  0.09412221  0.09299170  0.38057846  1
  O  O320  1  0.06745169  0.08430071  0.69446253  1
  O  O321  1  0.08870942  0.58663922  0.03670217  1
  O  O322  1  0.08546123  0.58348655  0.35933883  1
  O  O323  1  0.08804721  0.59235550  0.70292224  1
  O  O324  1  0.58786872  0.09499621  0.04227965  1
  O  O325  1  0.59120363  0.08260855  0.36934316  1
  O  O326  1  0.57425739  0.08509335  0.70358460  1
  O  O327  1  0.58670404  0.58890107  0.03674734  1
  O  O328  1  0.58466584  0.58618726  0.37451616  1
  O  O329  1  0.58259090  0.58313688  0.70338035  1
  O  O330  1  0.41291512  0.41163128  0.12669889  1
  O  O331  1  0.41258014  0.42907554  0.45993233  1
  O  O332  1  0.41381424  0.42046860  0.79371106  1
  O  O333  1  0.42095049  0.91663418  0.13881203  1
  O  O334  1  0.40227570  0.90428782  0.46147396  1
  O  O335  1  0.42437365  0.92111090  0.81081211  1
  O  O336  1  0.90903660  0.40779805  0.11947186  1
  O  O337  1  0.90221466  0.40464639  0.46415154  1
  O  O338  1  0.91676857  0.41923913  0.79598441  1
  O  O339  1  0.91474117  0.91528219  0.13078350  1
  O  O340  1  0.90713314  0.91988096  0.45998812  1
  O  O341  1  0.91288255  0.91189221  0.79982050  1
  O  O342  1  0.41242287  0.42218217  0.30111960  1
  O  O343  1  0.41611515  0.41190078  0.62805264  1
  O  O344  1  0.43022013  0.41479354  0.96227517  1
  O  O345  1  0.41377971  0.90818522  0.29299278  1
  O  O346  1  0.41099055  0.90919949  0.63241987  1
  O  O347  1  0.40920304  0.91144990  0.96514905  1
  O  O348  1  0.89648328  0.39929737  0.28990440  1
  O  O349  1  0.91419340  0.41006391  0.62832258  1
  O  O350  1  0.92120882  0.41609328  0.96393106  1
  O  O351  1  0.91121261  0.90881633  0.28539257  1
  O  O352  1  0.91311798  0.91131304  0.62858937  1
  O  O353  1  0.91254102  0.91098841  0.96270755  1
  O  O354  1  0.09169523  0.06857128  0.22016125  1
  O  O355  1  0.08988689  0.08483533  0.53905393  1
  O  O356  1  0.09040651  0.08531992  0.87125414  1
  O  O357  1  0.09183153  0.58981875  0.19870138  1
  O  O358  1  0.09534084  0.59553633  0.54294307  1
  O  O359  1  0.06971159  0.57443017  0.85427599  1
  O  O360  1  0.58504173  0.06283411  0.20394249  1
  O  O361  1  0.59429945  0.09654298  0.54634255  1
  O  O362  1  0.58752046  0.08506892  0.86682853  1
  O  O363  1  0.57921367  0.58695649  0.18819100  1
  O  O364  1  0.58683436  0.58264723  0.54011754  1
  O  O365  1  0.58746984  0.58743502  0.86947738  1
  O  O366  1  0.13155186  0.22686155  0.05870460  1
  O  O367  1  0.13422136  0.22622805  0.38996714  1
  O  O368  1  0.13759797  0.21472903  0.72474682  1
  O  O369  1  0.13913391  0.72227622  0.05946265  1
  O  O370  1  0.13833172  0.71885297  0.38654942  1
  O  O371  1  0.13949398  0.72619291  0.72340392  1
  O  O372  1  0.64018083  0.22753883  0.05605315  1
  O  O373  1  0.63959869  0.21685707  0.39009464  1
  O  O374  1  0.64210747  0.21158490  0.72292376  1
  O  O375  1  0.64008674  0.72278254  0.05721240  1
  O  O376  1  0.63946551  0.71973531  0.39405480  1
  O  O377  1  0.64018721  0.71622703  0.72546993  1
  O  O378  1  0.27838605  0.36139901  0.10680687  1
  O  O379  1  0.28262908  0.36522023  0.44097870  1
  O  O380  1  0.28189489  0.36377773  0.77500533  1
  O  O381  1  0.28516154  0.86800939  0.11777756  1
  O  O382  1  0.26763359  0.85721832  0.44270148  1
  O  O383  1  0.28921689  0.86124501  0.77138802  1
  O  O384  1  0.77559387  0.36908701  0.10975335  1
  O  O385  1  0.76912719  0.35473097  0.44741147  1
  O  O386  1  0.78461305  0.36578555  0.77868661  1
  O  O387  1  0.78047431  0.86130196  0.10831123  1
  O  O388  1  0.77340438  0.86503537  0.43950620  1
  O  O389  1  0.77748927  0.85868532  0.77370416  1
  O  O390  1  0.35289770  0.28904862  0.27809637  1
  O  O391  1  0.36296208  0.27881134  0.61014509  1
  O  O392  1  0.36323400  0.28449904  0.93710563  1
  O  O393  1  0.36169329  0.77447144  0.27254992  1
  O  O394  1  0.36277547  0.77262373  0.60740173  1
  O  O395  1  0.36557157  0.77549761  0.94607018  1
  O  O396  1  0.85692373  0.26447053  0.27099882  1
  O  O397  1  0.86676532  0.27530373  0.60834711  1
  O  O398  1  0.86263045  0.28580590  0.95012128  1
  O  O399  1  0.86264567  0.77597161  0.27070089  1
  O  O400  1  0.86354714  0.77703026  0.61041973  1
  O  O401  1  0.86165624  0.77577436  0.93890441  1
  O  O402  1  0.21669714  0.13459034  0.23082197  1
  O  O403  1  0.22337794  0.13714200  0.55852029  1
  O  O404  1  0.22403605  0.13700229  0.88995391  1
  O  O405  1  0.22561888  0.64303340  0.21968658  1
  O  O406  1  0.23096676  0.63875871  0.56133815  1
  O  O407  1  0.20336320  0.63268360  0.88213230  1
  O  O408  1  0.71231999  0.13400611  0.22534687  1
  O  O409  1  0.72814619  0.13642171  0.55666081  1
  O  O410  1  0.72302953  0.13648293  0.89456518  1
  O  O411  1  0.71510923  0.64551594  0.22020965  1
  O  O412  1  0.72075557  0.63609961  0.56087338  1
  O  O413  1  0.72177084  0.64060649  0.89086635  1
  O  O414  1  0.49223592  0.32893923  0.03019451  1
  O  O415  1  0.49105627  0.33517164  0.35262668  1
  O  O416  1  0.49309034  0.33726004  0.70027304  1
  O  O417  1  0.49515690  0.83617648  0.03174330  1
  O  O418  1  0.48994330  0.83089366  0.36478751  1
  O  O419  1  0.49020315  0.83105078  0.70003619  1
  O  O420  1  0.99662931  0.33729675  0.03184898  1
  O  O421  1  0.98402913  0.32787748  0.36168623  1
  O  O422  1  0.99526031  0.33612907  0.69807157  1
  O  O423  1  0.99122538  0.83063306  0.02866257  1
  O  O424  1  0.99400362  0.83424664  0.35620381  1
  O  O425  1  0.99233896  0.83848661  0.70113716  1
  O  O426  1  0.16963592  0.00183115  0.14420121  1
  O  O427  1  0.16728851  0.00739512  0.46826898  1
  O  O428  1  0.16397898  0.00751264  0.79831063  1
  O  O429  1  0.17230219  0.51024533  0.13523117  1
  O  O430  1  0.16736660  0.51224052  0.46974113  1
  O  O431  1  0.15639635  0.50070123  0.79508594  1
  O  O432  1  0.67106929  0.00329813  0.13514811  1
  O  O433  1  0.66262370  0.00848410  0.47144427  1
  O  O434  1  0.66789312  0.00866379  0.80030297  1
  O  O435  1  0.67167179  0.51129102  0.13894520  1
  O  O436  1  0.66385969  0.50549718  0.47105194  1
  O  O437  1  0.66886777  0.50867652  0.80548031  1
  O  O438  1  0.00339205  0.15773536  0.30707127  1
  O  O439  1  0.00647751  0.17609803  0.63449275  1
  O  O440  1  0.00460567  0.16822239  0.96481178  1
  O  O441  1  0.00704491  0.66588797  0.29807490  1
  O  O442  1  0.00893868  0.67126549  0.63489677  1
  O  O443  1  0.01096871  0.66490327  0.96808197  1
  O  O444  1  0.50502360  0.16027730  0.31026093  1
  O  O445  1  0.50881764  0.17155830  0.63616943  1
  O  O446  1  0.51176296  0.16804420  0.96649872  1
  O  O447  1  0.50933466  0.66487780  0.30499767  1
  O  O448  1  0.50906650  0.66672576  0.63805717  1
  O  O449  1  0.50886413  0.66701519  0.96987371  1
  O  O450  1  0.33713043  0.49147832  0.19650023  1
  O  O451  1  0.33076771  0.49550796  0.52996385  1
  O  O452  1  0.33261047  0.49943985  0.85654987  1
  O  O453  1  0.34279068  0.99928931  0.20129830  1
  O  O454  1  0.32720552  0.98593122  0.53186529  1
  O  O455  1  0.33080985  0.98869314  0.86769648  1
  O  O456  1  0.84449229  0.49874656  0.19460306  1
  O  O457  1  0.82602653  0.48658328  0.53186969  1
  O  O458  1  0.83891048  0.49674185  0.86538768  1
  O  O459  1  0.83439172  0.99229900  0.19665275  1
  O  O460  1  0.82674080  0.99395372  0.52958902  1
  O  O461  1  0.82953973  0.98975746  0.86183430  1
