# generated using pymatgen
data_Na31Fe20(SO4)36
_symmetry_space_group_name_H-M   'P 1'
_cell_length_a   18.09221661
_cell_length_b   18.08513008
_cell_length_c   19.71947851
_cell_angle_alpha   107.59566871
_cell_angle_beta   107.59825190
_cell_angle_gamma   90.73043527
_symmetry_Int_Tables_number   1
_chemical_formula_structural   Na31Fe20(SO4)36
_chemical_formula_sum   'Na62 Fe40 S72 O288'
_cell_volume   5823.86409835
_cell_formula_units_Z   2
loop_
 _symmetry_equiv_pos_site_id
 _symmetry_equiv_pos_as_xyz
  1  'x, y, z'
loop_
 _atom_site_type_symbol
 _atom_site_label
 _atom_site_symmetry_multiplicity
 _atom_site_fract_x
 _atom_site_fract_y
 _atom_site_fract_z
 _atom_site_occupancy
  Na  Na0  1  0.12711862  0.37440969  0.08566340  1
  Na  Na1  1  0.13036239  0.36928623  0.41836263  1
  Na  Na2  1  0.12766618  0.37313402  0.75150496  1
  Na  Na3  1  0.14825754  0.86326931  0.09896244  1
  Na  Na4  1  0.13825987  0.85953572  0.41957642  1
  Na  Na5  1  0.13298841  0.86122796  0.73813925  1
  Na  Na6  1  0.63395698  0.36439278  0.08066901  1
  Na  Na7  1  0.64140148  0.36936828  0.42146099  1
  Na  Na8  1  0.63120187  0.36572837  0.74383959  1
  Na  Na9  1  0.63846601  0.86330548  0.09013547  1
  Na  Na10  1  0.62641330  0.86955699  0.41651166  1
  Na  Na11  1  0.63869074  0.86619769  0.75289758  1
  Na  Na12  1  0.36338321  0.13489742  0.25374567  1
  Na  Na13  1  0.35446372  0.11466505  0.56044120  1
  Na  Na14  1  0.35849366  0.12900132  0.90576198  1
  Na  Na15  1  0.37462642  0.65404944  0.27096751  1
  Na  Na16  1  0.33310531  0.65134677  0.57324779  1
  Na  Na17  1  0.36830784  0.62985515  0.91318619  1
  Na  Na18  1  0.86702847  0.13480380  0.25470902  1
  Na  Na19  1  0.86508415  0.12965849  0.57955026  1
  Na  Na20  1  0.86566144  0.12950334  0.91420364  1
  Na  Na21  1  0.86266112  0.65421892  0.24987479  1
  Na  Na22  1  0.86606274  0.63818218  0.58558218  1
  Na  Na23  1  0.88897572  0.64645824  0.94095302  1
  Na  Na24  1  0.99260544  0.54188673  0.42786657  1
  Na  Na25  1  0.49130860  0.51747951  0.41403779  1
  Na  Na26  1  0.48426372  0.50479769  0.76581758  1
  Na  Na27  1  0.49011408  0.01002119  0.08472790  1
  Na  Na28  1  0.48508771  0.01338108  0.74621103  1
  Na  Na29  1  1.02450860  -0.04411811  0.14781703  1
  Na  Na30  1  0.32589983  -0.04099290  0.31488604  1
  Na  Na31  1  1.04808453  -0.02268334  0.35195291  1
  Na  Na32  1  0.49480811  0.51397728  0.06163808  1
  Na  Na33  1  0.50257891  0.94987784  0.55848854  1
  Na  Na34  1  -0.01539662  0.54635427  0.18504660  1
  Na  Na35  1  0.50631778  0.99526693  0.26095519  1
  Na  Na36  1  0.51182418  0.49562684  0.58592247  1
  Na  Na37  1  0.50860012  0.49600032  0.24182039  1
  Na  Na38  1  0.51724882  0.98424542  0.91642639  1
  Na  Na39  1  0.05067810  0.99783102  0.60770977  1
  Na  Na40  1  -0.02332761  0.51215571  0.60763013  1
  Na  Na41  1  0.01594367  0.98665019  0.91588534  1
  Na  Na42  1  0.75081715  0.74343053  0.01999993  1
  Na  Na43  1  0.23403463  0.74265601  0.35004246  1
  Na  Na44  1  0.75548767  0.25512250  -0.00470024  1
  Na  Na45  1  0.75187950  0.75402576  0.32903358  1
  Na  Na46  1  0.23591723  0.23227103  0.34309717  1
  Na  Na47  1  0.24140409  0.24275197  0.00514590  1
  Na  Na48  1  0.23760995  0.23161883  0.67259573  1
  Na  Na49  1  0.76187026  0.26714916  0.65445243  1
  Na  Na50  1  0.75090381  0.74816847  0.66858733  1
  Na  Na51  1  0.24537938  0.74402099  0.00629095  1
  Na  Na52  1  0.25513607  0.75563055  0.81622536  1
  Na  Na53  1  0.23248548  0.23064901  0.83494519  1
  Na  Na54  1  0.76613552  0.26914560  0.48727251  1
  Na  Na55  1  0.75651632  0.25966554  0.82432796  1
  Na  Na56  1  0.74282431  0.24417325  0.17946025  1
  Na  Na57  1  0.76191516  0.74793819  0.84457467  1
  Na  Na58  1  0.23891608  0.74385901  0.18411506  1
  Na  Na59  1  0.23686870  0.23509481  0.50688005  1
  Na  Na60  1  0.75074012  0.75486211  0.49808901  1
  Na  Na61  1  0.24571311  0.24593308  0.17104969  1
  Fe  Fe62  1  0.96785890  0.80505974  0.78624497  1
  Fe  Fe63  1  0.46410419  0.80759869  0.11670405  1
  Fe  Fe64  1  0.46650783  0.30697114  0.11682842  1
  Fe  Fe65  1  0.97504774  0.79949810  0.46148713  1
  Fe  Fe66  1  0.46545140  0.30505392  0.78207814  1
  Fe  Fe67  1  0.96341180  0.31261204  0.78840022  1
  Fe  Fe68  1  0.96133658  0.31156905  0.45454313  1
  Fe  Fe69  1  0.46662814  0.80518601  0.78036882  1
  Fe  Fe70  1  0.46736790  0.30897940  0.45029092  1
  Fe  Fe71  1  0.96386142  0.31153139  0.12254543  1
  Fe  Fe72  1  0.19255595  0.53323227  0.04525301  1
  Fe  Fe73  1  0.70131709  0.53270483  0.70948411  1
  Fe  Fe74  1  0.69412328  0.03570359  0.05276753  1
  Fe  Fe75  1  0.69042377  0.53734703  0.04324008  1
  Fe  Fe76  1  0.18453263  0.53646221  0.38053635  1
  Fe  Fe77  1  0.19667041  0.03351738  0.04918683  1
  Fe  Fe78  1  0.69457578  0.53477340  0.38226170  1
  Fe  Fe79  1  0.18970126  0.53593969  0.70996051  1
  Fe  Fe80  1  0.69149253  0.03508347  0.71536737  1
  Fe  Fe81  1  0.69702799  0.03505331  0.38556562  1
  Fe  Fe82  1  0.52640953  0.70521432  0.54425226  1
  Fe  Fe83  1  0.53790087  0.69377348  0.21417711  1
  Fe  Fe84  1  0.03261833  0.19196845  0.21212742  1
  Fe  Fe85  1  0.53845109  0.69373823  0.88056061  1
  Fe  Fe86  1  0.03442986  0.18894798  0.54546775  1
  Fe  Fe87  1  0.03460543  0.18533635  0.87438008  1
  Fe  Fe88  1  0.53537476  0.19354925  0.88117309  1
  Fe  Fe89  1  0.53474725  0.18705449  0.54503919  1
  Fe  Fe90  1  0.03742882  0.68967188  0.87927900  1
  Fe  Fe91  1  0.53716832  0.19537494  0.21901221  1
  Fe  Fe92  1  0.80854276  0.46816623  0.28682266  1
  Fe  Fe93  1  0.80791835  0.46457674  0.95337049  1
  Fe  Fe94  1  0.30688454  0.46480101  0.61472904  1
  Fe  Fe95  1  0.30697189  0.96611467  0.94805673  1
  Fe  Fe96  1  0.81938608  0.96424907  0.96361662  1
  Fe  Fe97  1  0.30393836  0.46060926  0.94626990  1
  Fe  Fe98  1  0.30808675  0.46451435  0.28515842  1
  Fe  Fe99  1  0.81550503  0.96222880  0.29177564  1
  Fe  Fe100  1  0.29507494  0.96470866  0.62253496  1
  Fe  Fe101  1  0.81249006  0.96568459  0.62635651  1
  S  S102  1  0.36310860  0.14186365  0.08287201  1
  S  S103  1  0.36250710  0.14880884  0.41432130  1
  S  S104  1  0.36185887  0.14007479  0.75009975  1
  S  S105  1  0.36415188  0.63416289  0.07925528  1
  S  S106  1  0.35770216  0.63644650  0.41770939  1
  S  S107  1  0.36328226  0.63786333  0.74986113  1
  S  S108  1  0.85624632  0.14532855  0.08452787  1
  S  S109  1  0.85784394  0.14085688  0.41936977  1
  S  S110  1  0.85550010  0.14212738  0.75100886  1
  S  S111  1  0.85553410  0.63631311  0.07855149  1
  S  S112  1  0.85476407  0.64236975  0.41657323  1
  S  S113  1  0.86138508  0.64392299  0.75279950  1
  S  S114  1  0.14054157  0.35952994  0.24978402  1
  S  S115  1  0.14171861  0.35758230  0.58226236  1
  S  S116  1  0.14155518  0.35605052  0.91588112  1
  S  S117  1  0.14849057  0.85620083  0.25035618  1
  S  S118  1  0.14250163  0.85413535  0.58703305  1
  S  S119  1  0.14449589  0.85843132  0.91511764  1
  S  S120  1  0.63972275  0.36158551  0.24798350  1
  S  S121  1  0.63645605  0.35785585  0.58216015  1
  S  S122  1  0.63856448  0.35981842  0.91666500  1
  S  S123  1  0.64019757  0.86499637  0.25079345  1
  S  S124  1  0.64487327  0.86003561  0.58815245  1
  S  S125  1  0.64483082  0.86080190  0.92035442  1
  S  S126  1  0.06759850  0.17196590  0.04119250  1
  S  S127  1  0.06505688  0.17763795  0.37930804  1
  S  S128  1  0.06156555  0.17615940  0.71300000  1
  S  S129  1  0.07845537  0.66815546  0.04229259  1
  S  S130  1  0.05716608  0.66430976  0.37109905  1
  S  S131  1  0.06473291  0.66881763  0.71100342  1
  S  S132  1  0.56516960  0.16798163  0.04225340  1
  S  S133  1  0.57215390  0.17223887  0.37742221  1
  S  S134  1  0.56639908  0.16702354  0.70825177  1
  S  S135  1  0.56766221  0.67162956  0.03956923  1
  S  S136  1  0.56729307  0.66520264  0.37363132  1
  S  S137  1  0.57344014  0.67476712  0.71090373  1
  S  S138  1  0.33305458  0.43152320  0.12334897  1
  S  S139  1  0.33476070  0.43058559  0.45661211  1
  S  S140  1  0.33010595  0.42790651  0.78591797  1
  S  S141  1  0.33827766  0.93827900  0.12119830  1
  S  S142  1  0.32164819  0.93620294  0.46160788  1
  S  S143  1  0.33658987  0.93145062  0.79192781  1
  S  S144  1  0.82419687  0.43138481  0.12268394  1
  S  S145  1  0.83080367  0.44002337  0.45750729  1
  S  S146  1  0.82309374  0.42991333  0.78886147  1
  S  S147  1  0.82538066  0.93500215  0.12403471  1
  S  S148  1  0.82782164  0.92563646  0.46097189  1
  S  S149  1  0.83024255  0.93315834  0.79491363  1
  S  S150  1  0.43670642  0.33357482  0.28870403  1
  S  S151  1  0.43135989  0.33459948  0.62353820  1
  S  S152  1  0.43014841  0.32593343  0.95373961  1
  S  S153  1  0.44128005  0.82815586  0.28281036  1
  S  S154  1  0.43588608  0.83611454  0.63340811  1
  S  S155  1  0.43733328  0.83095061  0.95523466  1
  S  S156  1  0.93184480  0.33146395  0.29044377  1
  S  S157  1  0.93440907  0.32742806  0.62030462  1
  S  S158  1  0.92943932  0.32340029  0.95514505  1
  S  S159  1  0.92719760  0.83126449  0.30186226  1
  S  S160  1  0.93142566  0.83002667  0.62471574  1
  S  S161  1  0.94587041  0.83997051  0.96243647  1
  S  S162  1  0.16880581  0.07530424  0.20617108  1
  S  S163  1  0.16819504  0.06400663  0.54464806  1
  S  S164  1  0.17002278  0.06223784  0.87742164  1
  S  S165  1  0.18147350  0.56778819  0.21388395  1
  S  S166  1  0.16321492  0.55667108  0.54326307  1
  S  S167  1  0.17691695  0.56726843  0.87574899  1
  S  S168  1  0.66595861  0.06761660  0.20945163  1
  S  S169  1  0.67145924  0.06757955  0.54778956  1
  S  S170  1  0.66600040  0.06635979  0.87770124  1
  S  S171  1  0.66494584  0.56456899  0.20473919  1
  S  S172  1  0.66213886  0.57146186  0.54045794  1
  S  S173  1  0.67200701  0.56779628  0.87248964  1
  O  O174  1  0.37153591  0.22059287  0.07375353  1
  O  O175  1  0.37885226  0.22439801  0.39906845  1
  O  O176  1  0.37492014  0.21582249  0.73652942  1
  O  O177  1  0.37281394  0.71072772  0.06611291  1
  O  O178  1  0.36113607  0.70748706  0.39818657  1
  O  O179  1  0.37391943  0.71934992  0.74999999  1
  O  O180  1  0.86696763  0.22420312  0.07658607  1
  O  O181  1  0.86434097  0.22137080  0.41510131  1
  O  O182  1  0.86039964  0.22259749  0.74559805  1
  O  O183  1  0.87063876  0.70986837  0.06640595  1
  O  O184  1  0.86816239  0.72523754  0.41716923  1
  O  O185  1  0.86784630  0.72676362  0.74951953  1
  O  O186  1  0.28354105  0.13373812  0.08929630  1
  O  O187  1  0.28594836  0.15189759  0.42511060  1
  O  O188  1  0.28713468  0.13744428  0.76376483  1
  O  O189  1  0.28621161  0.62624434  0.08808885  1
  O  O190  1  0.27969447  0.62017559  0.42528058  1
  O  O191  1  0.28640419  0.62736166  0.76118542  1
  O  O192  1  0.77630324  0.13744544  0.09118211  1
  O  O193  1  0.78111859  0.13008139  0.43259374  1
  O  O194  1  0.77820732  0.12983105  0.76255619  1
  O  O195  1  0.77021649  0.62883271  0.07561213  1
  O  O196  1  0.77259749  0.63539402  0.41927090  1
  O  O197  1  0.77953403  0.63336411  0.75601199  1
  O  O198  1  0.13085777  0.28013752  0.25688080  1
  O  O199  1  0.13553542  0.27703898  0.58850046  1
  O  O200  1  0.13205783  0.27469136  0.91956278  1
  O  O201  1  0.15213311  0.77509854  0.25322374  1
  O  O202  1  0.13647694  0.77782153  0.59389227  1
  O  O203  1  0.13685575  0.77908681  0.92146423  1
  O  O204  1  0.63027596  0.28113750  0.25127863  1
  O  O205  1  0.61984284  0.28224054  0.59532348  1
  O  O206  1  0.62791726  0.28268377  0.92952034  1
  O  O207  1  0.63257716  0.78600266  0.25899921  1
  O  O208  1  0.63115475  0.78161344  0.59639957  1
  O  O209  1  0.63653732  0.78145893  0.92736056  1
  O  O210  1  0.21847128  0.36721130  0.23898696  1
  O  O211  1  0.21882001  0.36728621  0.57037631  1
  O  O212  1  0.22002227  0.36316297  0.90499768  1
  O  O213  1  0.22288046  0.87862759  0.23853078  1
  O  O214  1  0.22028571  0.87125037  0.57545559  1
  O  O215  1  0.22264644  0.86838985  0.90505156  1
  O  O216  1  0.71782345  0.37202843  0.23944615  1
  O  O217  1  0.71388009  0.35954038  0.57410471  1
  O  O218  1  0.71912090  0.36513369  0.91140776  1
  O  O219  1  0.71729267  0.87734517  0.24195076  1
  O  O220  1  0.72772514  0.86675176  0.58887760  1
  O  O221  1  0.72447281  0.87262951  0.91509670  1
  O  O222  1  0.42122641  0.13534930  0.15232148  1
  O  O223  1  0.42142341  0.14501471  0.48556014  1
  O  O224  1  0.42528409  0.13144076  0.81670446  1
  O  O225  1  0.42468355  0.62652249  0.14654265  1
  O  O226  1  0.41614199  0.63990778  0.49164422  1
  O  O227  1  0.42532037  0.62391829  0.81423564  1
  O  O228  1  0.91389411  0.13800584  0.15302825  1
  O  O229  1  0.91946140  0.12892013  0.48338632  1
  O  O230  1  0.91642643  0.13315968  0.81713980  1
  O  O231  1  0.90355133  0.62799981  0.14939117  1
  O  O232  1  0.90953538  0.62610193  0.48012041  1
  O  O233  1  0.91596381  0.63938222  0.82449975  1
  O  O234  1  0.37410418  0.08244004  0.01653299  1
  O  O235  1  0.36838682  0.08564620  0.35007089  1
  O  O236  1  0.36637910  0.07603045  0.68301241  1
  O  O237  1  0.37260735  0.57208687  0.01196945  1
  O  O238  1  0.37619600  0.57049352  0.35842486  1
  O  O239  1  0.36858422  0.58265853  0.67876434  1
  O  O240  1  0.86284193  0.08642297  0.01594681  1
  O  O241  1  0.85938474  0.08406143  0.34769033  1
  O  O242  1  0.86098048  0.08588833  0.68093655  1
  O  O243  1  0.86635992  0.57150053  0.01399524  1
  O  O244  1  0.85922324  0.58857292  0.34383311  1
  O  O245  1  0.87252967  0.58941150  0.68651081  1
  O  O246  1  0.08044012  0.36771279  0.18244488  1
  O  O247  1  0.08004454  0.36666069  0.51691432  1
  O  O248  1  0.08182454  0.36823099  0.85140501  1
  O  O249  1  0.08444357  0.86206241  0.18491325  1
  O  O250  1  0.08061064  0.86139086  0.51601613  1
  O  O251  1  0.08385730  0.86914027  0.84913144  1
  O  O252  1  0.57973277  0.37257029  0.18085529  1
  O  O253  1  0.57792448  0.36687714  0.51319863  1
  O  O254  1  0.58233988  0.36296308  0.84540391  1
  O  O255  1  0.57889880  0.87293712  0.18373672  1
  O  O256  1  0.59172550  0.86831484  0.51931504  1
  O  O257  1  0.58630931  0.86878919  0.85189532  1
  O  O258  1  0.13506777  0.41777034  0.31881435  1
  O  O259  1  0.13714825  0.41464690  0.65268701  1
  O  O260  1  0.14009088  0.41183832  0.98764074  1
  O  O261  1  0.13864065  0.90686537  0.32083022  1
  O  O262  1  0.13369527  0.91732995  0.65067065  1
  O  O263  1  0.13848112  0.91684177  0.98457868  1
  O  O264  1  0.63093833  0.41847323  0.31680791  1
  O  O265  1  0.62782873  0.42175758  0.64747606  1
  O  O266  1  0.62895194  0.42146899  0.98183733  1
  O  O267  1  0.63134771  0.92397564  0.31925270  1
  O  O268  1  0.63375658  0.92007849  0.65509865  1
  O  O269  1  0.63234639  0.91933465  0.98697654  1
  O  O270  1  0.02910628  0.20023312  0.10053635  1
  O  O271  1  0.02262211  0.20942794  0.43617844  1
  O  O272  1  0.02213817  0.21085168  0.77264163  1
  O  O273  1  0.04326424  0.68282066  0.10038199  1
  O  O274  1  0.02255823  0.69861963  0.43380431  1
  O  O275  1  0.03085226  0.70011647  0.77543501  1
  O  O276  1  0.53044214  0.19940198  0.10406859  1
  O  O277  1  0.53822866  0.20178539  0.43979275  1
  O  O278  1  0.53373788  0.20061156  0.77182299  1
  O  O279  1  0.53363866  0.70307602  0.10201495  1
  O  O280  1  0.53154668  0.68935930  0.43343218  1
  O  O281  1  0.53526358  0.70230992  0.77169148  1
  O  O282  1  0.30135856  0.46522715  0.06112142  1
  O  O283  1  0.29941861  0.45961704  0.39224425  1
  O  O284  1  0.30288356  0.46595716  0.72616317  1
  O  O285  1  0.30479555  0.97088633  0.05660444  1
  O  O286  1  0.28976812  0.98849935  0.41943050  1
  O  O287  1  0.31182350  0.96618636  0.73067753  1
  O  O288  1  0.79238963  0.46556471  0.06064776  1
  O  O289  1  0.79786718  0.47175524  0.39135899  1
  O  O290  1  0.79628257  0.46652578  0.72970356  1
  O  O291  1  0.79555526  0.97885591  0.06632103  1
  O  O292  1  0.80242148  0.96430289  0.40078894  1
  O  O293  1  0.80149673  0.97199007  0.73552104  1
  O  O294  1  0.47227209  0.30170840  0.22711739  1
  O  O295  1  0.46403454  0.30698286  0.56074875  1
  O  O296  1  0.46640530  0.29797395  0.89258769  1
  O  O297  1  0.47086904  0.78716109  0.21554481  1
  O  O298  1  0.46911674  0.81118348  0.57095293  1
  O  O299  1  0.47541674  0.80041738  0.89559720  1
  O  O300  1  0.97036697  0.30233734  0.23016881  1
  O  O301  1  0.97462911  0.29087601  0.56196573  1
  O  O302  1  0.97022447  0.29474989  0.89753266  1
  O  O303  1  0.95769263  0.80260549  0.24103294  1
  O  O304  1  0.96750711  0.80628043  0.56410022  1
  O  O305  1  0.97599216  0.80603474  0.89682285  1
  O  O306  1  0.19157736  0.04972984  0.27110362  1
  O  O307  1  0.20431466  0.03165680  0.60798237  1
  O  O308  1  0.20492053  0.03218595  0.94431110  1
  O  O309  1  0.20967181  0.52586281  0.27250941  1
  O  O310  1  0.20721268  0.52438790  0.60689074  1
  O  O311  1  0.20391476  0.52492886  0.93329814  1
  O  O312  1  0.69675449  0.03566463  0.27240220  1
  O  O313  1  0.70163532  0.02746258  0.60641957  1
  O  O314  1  0.69465915  0.03143777  0.93902822  1
  O  O315  1  0.69310708  0.52770036  0.26516697  1
  O  O316  1  0.68634232  0.53647451  0.60083692  1
  O  O317  1  0.69668234  0.52543812  0.92905445  1
  O  O318  1  0.08996348  0.09200885  0.03560599  1
  O  O319  1  0.08962418  0.10316339  0.38426625  1
  O  O320  1  0.08311944  0.10058175  0.71845916  1
  O  O321  1  0.09807715  0.58532455  0.02063367  1
  O  O322  1  0.08368717  0.58760890  0.38119530  1
  O  O323  1  0.08921772  0.58948191  0.71178982  1
  O  O324  1  0.58092915  0.08521202  0.03774385  1
  O  O325  1  0.59194292  0.09123717  0.37167572  1
  O  O326  1  0.58113506  0.08463039  0.70529150  1
  O  O327  1  0.58423316  0.58996378  0.03627660  1
  O  O328  1  0.58531317  0.58132348  0.36361589  1
  O  O329  1  0.58856628  0.59201415  0.70224922  1
  O  O330  1  0.41519629  0.41419350  0.12620805  1
  O  O331  1  0.41904596  0.41952463  0.46159137  1
  O  O332  1  0.41169531  0.40917735  0.79041050  1
  O  O333  1  0.42021893  0.92003498  0.12169053  1
  O  O334  1  0.40076581  0.92094654  0.45944630  1
  O  O335  1  0.42073539  0.91563952  0.80290731  1
  O  O336  1  0.90585309  0.41472384  0.12725033  1
  O  O337  1  0.90936618  0.41494816  0.45571420  1
  O  O338  1  0.90120432  0.40414898  0.79100448  1
  O  O339  1  0.90179668  0.91432203  0.12243938  1
  O  O340  1  0.90614980  0.89957175  0.46745898  1
  O  O341  1  0.91123957  0.91448691  0.80075369  1
  O  O342  1  0.42174897  0.41626110  0.29327632  1
  O  O343  1  0.41824243  0.41955013  0.63402249  1
  O  O344  1  0.41071826  0.40709296  0.96044012  1
  O  O345  1  0.43045140  0.90786197  0.27971422  1
  O  O346  1  0.40938153  0.91572464  0.63820531  1
  O  O347  1  0.42375039  0.91433358  0.96112395  1
  O  O348  1  0.91199801  0.41200223  0.29412949  1
  O  O349  1  0.91553269  0.40359495  0.61474275  1
  O  O350  1  0.90521883  0.40063389  0.95531867  1
  O  O351  1  0.91829017  0.91817536  0.31756536  1
  O  O352  1  0.91255453  0.91186055  0.63536503  1
  O  O353  1  0.92353326  0.92044198  0.96032705  1
  O  O354  1  0.08411529  0.09148165  0.18724531  1
  O  O355  1  0.09530425  0.09611122  0.55864026  1
  O  O356  1  0.09000150  0.08279030  0.87876494  1
  O  O357  1  0.10630717  0.59231843  0.21558299  1
  O  O358  1  0.08173897  0.55519241  0.54183102  1
  O  O359  1  0.09815413  0.58849245  0.87078582  1
  O  O360  1  0.58293703  0.08494875  0.20414672  1
  O  O361  1  0.59059160  0.08439455  0.54503227  1
  O  O362  1  0.58217301  0.08146722  0.87049496  1
  O  O363  1  0.58104973  0.57982271  0.19731082  1
  O  O364  1  0.57938531  0.59063103  0.53089002  1
  O  O365  1  0.59057045  0.58797216  0.86717069  1
  O  O366  1  0.13731827  0.22787687  0.05902664  1
  O  O367  1  0.13306006  0.23550379  0.39630677  1
  O  O368  1  0.13079132  0.23201402  0.72866035  1
  O  O369  1  0.15123499  0.72219103  0.06167969  1
  O  O370  1  0.12427004  0.71671230  0.38041877  1
  O  O371  1  0.13306561  0.72312243  0.72583288  1
  O  O372  1  0.63729054  0.21788166  0.05754710  1
  O  O373  1  0.64003676  0.22578298  0.38921343  1
  O  O374  1  0.63879750  0.21567065  0.72206392  1
  O  O375  1  0.63741233  0.72227917  0.05198188  1
  O  O376  1  0.63780218  0.71757227  0.38916397  1
  O  O377  1  0.64662621  0.72650585  0.73293295  1
  O  O378  1  0.28304526  0.35996293  0.11033502  1
  O  O379  1  0.28979570  0.35758480  0.44715847  1
  O  O380  1  0.27756822  0.35733632  0.76988379  1
  O  O381  1  0.28947816  0.86591761  0.10672987  1
  O  O382  1  0.27112719  0.86336709  0.44225798  1
  O  O383  1  0.28597608  0.86158244  0.77850293  1
  O  O384  1  0.77357287  0.35931049  0.10772431  1
  O  O385  1  0.77617380  0.37310949  0.44566103  1
  O  O386  1  0.76667079  0.35997856  0.77212876  1
  O  O387  1  0.76795881  0.86722518  0.10349581  1
  O  O388  1  0.76821100  0.85924627  0.44331026  1
  O  O389  1  0.77658409  0.86233499  0.77672246  1
  O  O390  1  0.36432849  0.28424973  0.27248950  1
  O  O391  1  0.35957023  0.28601739  0.61043995  1
  O  O392  1  0.36052640  0.27250884  0.93871364  1
  O  O393  1  0.36678309  0.78247506  0.26851852  1
  O  O394  1  0.37348562  0.78090897  0.62834810  1
  O  O395  1  0.36416042  0.78168432  0.93712424  1
  O  O396  1  0.86232979  0.27698822  0.27284462  1
  O  O397  1  0.86350028  0.27300682  0.60313309  1
  O  O398  1  0.86028077  0.26655085  0.93738834  1
  O  O399  1  0.85198644  0.78908576  0.29185451  1
  O  O400  1  0.86039417  0.77579026  0.60594657  1
  O  O401  1  0.87494671  0.78974644  0.95093726  1
  O  O402  1  0.21954227  0.14689919  0.21675790  1
  O  O403  1  0.22309109  0.13094545  0.55317884  1
  O  O404  1  0.22115416  0.13526206  0.89348717  1
  O  O405  1  0.24110073  0.63377074  0.23195474  1
  O  O406  1  0.20332612  0.63242750  0.55708241  1
  O  O407  1  0.23387783  0.63665374  0.89680345  1
  O  O408  1  0.71564278  0.13707328  0.21873189  1
  O  O409  1  0.72347255  0.13929168  0.56619469  1
  O  O410  1  0.71497385  0.13918700  0.89297704  1
  O  O411  1  0.71413407  0.63699372  0.22163265  1
  O  O412  1  0.71528178  0.64165534  0.55525031  1
  O  O413  1  0.72598169  0.63894079  0.89374851  1
  O  O414  1  0.49157073  0.32875040  0.02579943  1
  O  O415  1  0.49620102  0.33563135  0.36065175  1
  O  O416  1  0.49283935  0.33430068  0.69456233  1
  O  O417  1  0.49459497  0.83133002  0.02821063  1
  O  O418  1  0.50081326  0.82695704  0.35103483  1
  O  O419  1  0.50233608  0.84774688  0.70629217  1
  O  O420  1  0.98682758  0.32933237  0.03004645  1
  O  O421  1  0.99049726  0.33448943  0.36319212  1
  O  O422  1  0.98996221  0.33294555  0.69570951  1
  O  O423  1  1.00849521  0.84990910  0.03235784  1
  O  O424  1  0.98710020  0.82770162  0.37507400  1
  O  O425  1  0.98990227  0.82782855  0.69596150  1
  O  O426  1  0.17247700  0.01172735  0.13651179  1
  O  O427  1  0.14674271  0.00241550  0.47263669  1
  O  O428  1  0.16753490  0.00162053  0.80935240  1
  O  O429  1  0.17619340  0.50897247  0.13928441  1
  O  O430  1  0.16861499  0.49982583  0.47130835  1
  O  O431  1  0.17673674  0.50960114  0.80289131  1
  O  O432  1  0.65931116  0.00539647  0.13639786  1
  O  O433  1  0.66949378  0.01068139  0.47418282  1
  O  O434  1  0.66496745  0.00792650  0.80521779  1
  O  O435  1  0.66240051  0.50621339  0.13143210  1
  O  O436  1  0.66131044  0.51062168  0.46832732  1
  O  O437  1  0.66819166  0.51130944  0.79812783  1
  O  O438  1  0.00848751  0.17028606  0.30318053  1
  O  O439  1  0.00338384  0.16994993  0.63885432  1
  O  O440  1  0.00871150  0.16827785  0.96786618  1
  O  O441  1  -0.00510211  0.64537709  0.29878313  1
  O  O442  1  0.00207419  0.65837463  0.64075774  1
  O  O443  1  0.02128029  0.67668752  0.97140055  1
  O  O444  1  0.50898328  0.16752211  0.30522199  1
  O  O445  1  0.50598635  0.16570879  0.63728998  1
  O  O446  1  0.50604595  0.16535125  0.96983033  1
  O  O447  1  0.50869452  0.66158232  0.29974500  1
  O  O448  1  0.51610267  0.67865671  0.64046127  1
  O  O449  1  0.50663104  0.66777452  0.96711849  1
  O  O450  1  0.33901202  0.49134141  0.19650467  1
  O  O451  1  0.33774510  0.49230351  0.52822108  1
  O  O452  1  0.33409270  0.48662358  0.85925110  1
  O  O453  1  0.34437547  0.99952441  0.19148987  1
  O  O454  1  0.32973033  0.98436816  0.54486998  1
  O  O455  1  0.33804740  0.99338947  0.86391411  1
  O  O456  1  0.82612622  0.49133977  0.19449297  1
  O  O457  1  0.84099727  0.50404590  0.52681007  1
  O  O458  1  0.82887181  0.48744999  0.86296132  1
  O  O459  1  0.82808767  0.99204305  0.19840670  1
  O  O460  1  0.83109943  0.98701302  0.53286691  1
  O  O461  1  0.83022241  0.99158290  0.86733443  1
