# generated using pymatgen
data_Na31Fe20(SO4)36
_symmetry_space_group_name_H-M   'P 1'
_cell_length_a   18.07192802
_cell_length_b   18.06682160
_cell_length_c   19.70003632
_cell_angle_alpha   107.57523735
_cell_angle_beta   107.58479743
_cell_angle_gamma   90.68143593
_symmetry_Int_Tables_number   1
_chemical_formula_structural   Na31Fe20(SO4)36
_chemical_formula_sum   'Na62 Fe40 S72 O288'
_cell_volume   5807.57445212
_cell_formula_units_Z   2
loop_
 _symmetry_equiv_pos_site_id
 _symmetry_equiv_pos_as_xyz
  1  'x, y, z'
loop_
 _atom_site_type_symbol
 _atom_site_label
 _atom_site_symmetry_multiplicity
 _atom_site_fract_x
 _atom_site_fract_y
 _atom_site_fract_z
 _atom_site_occupancy
  Na  Na0  1  0.13213501  0.35611921  0.08478809  1
  Na  Na1  1  0.13613067  0.37187352  0.42890704  1
  Na  Na2  1  0.13607264  0.36144149  0.75014793  1
  Na  Na3  1  0.13614560  0.87548908  0.08268534  1
  Na  Na4  1  0.14512466  0.86064153  0.41857050  1
  Na  Na5  1  0.13321694  0.86409109  0.74429016  1
  Na  Na6  1  0.63701832  0.37108527  0.08684618  1
  Na  Na7  1  0.63514592  0.36395025  0.41700835  1
  Na  Na8  1  0.62575052  0.33909637  0.71845302  1
  Na  Na9  1  0.63083906  0.86617014  0.07883719  1
  Na  Na10  1  0.62183098  0.85859368  0.41628019  1
  Na  Na11  1  0.65331788  0.87619020  0.77211805  1
  Na  Na12  1  0.35983507  0.13570762  0.24232414  1
  Na  Na13  1  0.37607026  0.13297195  0.58111656  1
  Na  Na14  1  0.38066631  0.13155023  0.92470746  1
  Na  Na15  1  0.37259846  0.63960385  0.26416038  1
  Na  Na16  1  0.36921555  0.61971323  0.57870975  1
  Na  Na17  1  0.36351073  0.62750009  0.91119530  1
  Na  Na18  1  0.86873712  0.14153161  0.25762504  1
  Na  Na19  1  0.83451344  0.15137913  0.58055066  1
  Na  Na20  1  0.86560457  0.13066171  0.92243695  1
  Na  Na21  1  0.86657859  0.63752959  0.24967339  1
  Na  Na22  1  0.86526674  0.62526227  0.57420587  1
  Na  Na23  1  0.86213616  0.64334164  0.91863048  1
  Na  Na24  1  0.48684690  0.02926938  0.41971153  1
  Na  Na25  1  0.50610220  0.51297568  0.42364626  1
  Na  Na26  1  0.96900507  0.01980627  0.06818758  1
  Na  Na27  1  0.98250801  0.01116661  0.75335941  1
  Na  Na28  1  1.00755783  0.50477325  0.72497717  1
  Na  Na29  1  0.49650571  -0.00129304  0.76635631  1
  Na  Na30  1  1.00398049  0.48793928  0.08794046  1
  Na  Na31  1  0.97637502  0.50246093  0.43374667  1
  Na  Na32  1  0.98912621  0.01378934  0.41428930  1
  Na  Na33  1  0.03207102  0.98401149  0.92436167  1
  Na  Na34  1  0.00539250  0.49517537  0.91187270  1
  Na  Na35  1  0.48373486  1.03845107  0.18680104  1
  Na  Na36  1  0.51095657  0.96568100  0.57235904  1
  Na  Na37  1  0.00357442  0.99261360  0.58382893  1
  Na  Na38  1  0.00869432  0.99676770  0.24164346  1
  Na  Na39  1  0.54634317  0.49129758  0.24964641  1
  Na  Na40  1  0.51072193  0.49064482  0.91214701  1
  Na  Na41  1  0.00276126  0.46239749  0.24771123  1
  Na  Na42  1  0.74413037  0.74177979  0.67556379  1
  Na  Na43  1  0.25740801  0.75041463  0.34230091  1
  Na  Na44  1  0.75833486  0.25895376  0.00311333  1
  Na  Na45  1  0.26173118  0.75454012  0.65267822  1
  Na  Na46  1  0.74047856  0.73728519  0.33845322  1
  Na  Na47  1  0.72961843  0.23630818  0.34529041  1
  Na  Na48  1  0.24325964  0.23236776  0.00614794  1
  Na  Na49  1  0.25464591  0.75197617  -0.00490362  1
  Na  Na50  1  0.26242587  0.26467154  0.65995706  1
  Na  Na51  1  0.24901589  0.25179924  0.33297965  1
  Na  Na52  1  0.73897981  0.73371678  0.50285268  1
  Na  Na53  1  0.25328623  0.25123472  0.83480897  1
  Na  Na54  1  0.26027242  0.26630754  0.50109410  1
  Na  Na55  1  0.74408838  0.24410922  0.17627157  1
  Na  Na56  1  0.75633363  0.25628611  0.82214514  1
  Na  Na57  1  0.75213783  0.75572065  0.15772551  1
  Na  Na58  1  0.74644939  0.75034297  0.85163047  1
  Na  Na59  1  0.25520607  0.75576501  0.16625059  1
  Na  Na60  1  0.23615885  0.23554633  0.16747241  1
  Na  Na61  1  0.25966714  0.75726796  0.82443403  1
  Fe  Fe62  1  0.97070753  0.80509684  0.44663310  1
  Fe  Fe63  1  0.96633544  0.80238487  0.78150378  1
  Fe  Fe64  1  0.95898390  0.31039997  0.45807698  1
  Fe  Fe65  1  0.47575445  0.29542752  0.12530159  1
  Fe  Fe66  1  0.96526521  0.80846208  0.11253694  1
  Fe  Fe67  1  0.96131176  0.30977387  0.78326202  1
  Fe  Fe68  1  0.46174175  0.81195884  0.79016814  1
  Fe  Fe69  1  0.46884364  0.30089998  0.78085963  1
  Fe  Fe70  1  0.47088487  0.29835553  0.46056301  1
  Fe  Fe71  1  0.46311637  0.81058742  0.12394494  1
  Fe  Fe72  1  0.19847272  0.53090741  0.38511446  1
  Fe  Fe73  1  0.69597646  0.03298076  0.71537008  1
  Fe  Fe74  1  0.68519420  0.03418003  0.38169783  1
  Fe  Fe75  1  0.68224457  0.53574599  0.70901691  1
  Fe  Fe76  1  0.69170369  0.54098564  0.04429662  1
  Fe  Fe77  1  0.69978710  0.03126581  0.04449135  1
  Fe  Fe78  1  0.19000006  0.03791283  0.71423023  1
  Fe  Fe79  1  0.18680348  0.04183443  0.38190146  1
  Fe  Fe80  1  0.19705221  0.53078716  0.05037213  1
  Fe  Fe81  1  0.20235259  0.52875185  0.71098809  1
  Fe  Fe82  1  0.03617677  0.69160976  0.21300670  1
  Fe  Fe83  1  0.03128530  0.19578704  0.88511159  1
  Fe  Fe84  1  0.04139794  0.69302087  0.54585110  1
  Fe  Fe85  1  0.02618409  0.20328998  0.21118049  1
  Fe  Fe86  1  0.02744620  0.19636634  0.55277579  1
  Fe  Fe87  1  0.53140655  0.70406028  0.54636161  1
  Fe  Fe88  1  0.53067212  0.69481412  0.21527886  1
  Fe  Fe89  1  0.03780078  0.68756447  0.87798134  1
  Fe  Fe90  1  0.53391944  0.69443988  0.88095697  1
  Fe  Fe91  1  0.54135414  0.19231462  0.88107865  1
  Fe  Fe92  1  0.30914051  0.96615448  0.61762150  1
  Fe  Fe93  1  0.31339869  0.45811186  0.29023319  1
  Fe  Fe94  1  0.80723934  0.46969980  0.94952202  1
  Fe  Fe95  1  0.80061315  0.47247278  0.28600056  1
  Fe  Fe96  1  0.31809563  0.45939357  0.96270997  1
  Fe  Fe97  1  0.80963887  0.96232280  0.61581705  1
  Fe  Fe98  1  0.80805901  0.96362787  0.28297937  1
  Fe  Fe99  1  0.30085672  0.96974675  0.28442245  1
  Fe  Fe100  1  0.29850560  0.96974007  0.95608245  1
  Fe  Fe101  1  0.79972696  0.46467746  0.61500640  1
  S  S102  1  0.35807343  0.14048053  0.08005844  1
  S  S103  1  0.35176234  0.14201242  0.41274403  1
  S  S104  1  0.35841337  0.13921239  0.75100682  1
  S  S105  1  0.35734430  0.63969533  0.08601744  1
  S  S106  1  0.36259996  0.63427365  0.41768890  1
  S  S107  1  0.36019942  0.64271441  0.75129766  1
  S  S108  1  0.85581551  0.14574848  0.09016143  1
  S  S109  1  0.85823572  0.13749904  0.41910995  1
  S  S110  1  0.86087091  0.13889943  0.74806589  1
  S  S111  1  0.86207060  0.64384258  0.08010299  1
  S  S112  1  0.86587004  0.64275433  0.41407810  1
  S  S113  1  0.86110921  0.63673585  0.74960637  1
  S  S114  1  0.14007042  0.36251120  0.24936661  1
  S  S115  1  0.13519403  0.35699344  0.58951205  1
  S  S116  1  0.14109306  0.35952507  0.91990236  1
  S  S117  1  0.13699551  0.86172880  0.25036316  1
  S  S118  1  0.14011421  0.86369479  0.58130815  1
  S  S119  1  0.14091906  0.85188249  0.90978980  1
  S  S120  1  0.64646555  0.35920940  0.24968750  1
  S  S121  1  0.63908651  0.36010661  0.58071367  1
  S  S122  1  0.64167925  0.36207423  0.91346184  1
  S  S123  1  0.64146096  0.85814374  0.25028570  1
  S  S124  1  0.64985497  0.85812467  0.58992967  1
  S  S125  1  0.63496153  0.86354069  0.91788585  1
  S  S126  1  0.05661688  0.16940641  0.04234070  1
  S  S127  1  0.06283922  0.17529536  0.37897080  1
  S  S128  1  0.06304116  0.17067252  0.71282286  1
  S  S129  1  0.06993527  0.66503887  0.04147556  1
  S  S130  1  0.07332016  0.66721185  0.37148646  1
  S  S131  1  0.07141000  0.66806585  0.70752504  1
  S  S132  1  0.57958132  0.17102892  0.04196653  1
  S  S133  1  0.55683692  0.16224866  0.37141492  1
  S  S134  1  0.56576961  0.15721417  0.70907409  1
  S  S135  1  0.56289994  0.67192067  0.04317897  1
  S  S136  1  0.56501742  0.66816831  0.37619874  1
  S  S137  1  0.57008966  0.68264439  0.71461683  1
  S  S138  1  0.33177014  0.42341090  0.12489517  1
  S  S139  1  0.33019482  0.42392431  0.45779863  1
  S  S140  1  0.33059993  0.42744659  0.79704403  1
  S  S141  1  0.32417077  0.93018885  0.12279046  1
  S  S142  1  0.32708725  0.94403488  0.45471769  1
  S  S143  1  0.32266391  0.93427241  0.78800043  1
  S  S144  1  0.83032258  0.44484837  0.12210078  1
  S  S145  1  0.82879771  0.43297896  0.45610696  1
  S  S146  1  0.82866456  0.43489395  0.79006113  1
  S  S147  1  0.83464025  0.93528670  0.12718143  1
  S  S148  1  0.83622730  0.92950491  0.45549439  1
  S  S149  1  0.84537728  0.93555727  0.79274984  1
  S  S150  1  0.43111430  0.32530930  0.29321508  1
  S  S151  1  0.42796036  0.32424379  0.62051107  1
  S  S152  1  0.43840201  0.32431829  0.95750945  1
  S  S153  1  0.42968493  0.83514696  0.29216508  1
  S  S154  1  0.43723515  0.83861472  0.63222772  1
  S  S155  1  0.42332363  0.82727874  0.95807942  1
  S  S156  1  0.93269489  0.33777163  0.29834277  1
  S  S157  1  0.92804948  0.33378662  0.62847363  1
  S  S158  1  0.93546866  0.33750526  0.95606036  1
  S  S159  1  0.93701033  0.83168210  0.28756062  1
  S  S160  1  0.93635267  0.82666750  0.61902256  1
  S  S161  1  0.94463873  0.83016807  0.95438143  1
  S  S162  1  0.15775907  0.06791392  0.20772276  1
  S  S163  1  0.16077509  0.07077414  0.54246504  1
  S  S164  1  0.16294672  0.06487596  0.87128241  1
  S  S165  1  0.17170585  0.56705102  0.21119195  1
  S  S166  1  0.16878900  0.56678726  0.54313036  1
  S  S167  1  0.16982693  0.56132917  0.87563654  1
  S  S168  1  0.68107774  0.06748204  0.21234492  1
  S  S169  1  0.66493143  0.05053091  0.54028247  1
  S  S170  1  0.67772701  0.07167112  0.88132416  1
  S  S171  1  0.67123055  0.57386675  0.20495058  1
  S  S172  1  0.66763915  0.57071820  0.54368973  1
  S  S173  1  0.66988624  0.57200442  0.87585766  1
  O  O174  1  0.37853920  0.21647847  0.06824022  1
  O  O175  1  0.36742485  0.22357738  0.41046990  1
  O  O176  1  0.36848441  0.21966262  0.74683906  1
  O  O177  1  0.36432159  0.71935176  0.07880770  1
  O  O178  1  0.36703428  0.70802760  0.40282426  1
  O  O179  1  0.36430594  0.72742251  0.75208368  1
  O  O180  1  0.85603405  0.22602611  0.08947878  1
  O  O181  1  0.86669906  0.21517020  0.40863852  1
  O  O182  1  0.86898299  0.21911018  0.74406058  1
  O  O183  1  0.87406759  0.72112455  0.07019051  1
  O  O184  1  0.88006773  0.71911551  0.40057819  1
  O  O185  1  0.87102859  0.71459794  0.73843348  1
  O  O186  1  0.27813378  0.14225976  0.08415365  1
  O  O187  1  0.27121922  0.14046180  0.42008470  1
  O  O188  1  0.27931082  0.13126137  0.75985697  1
  O  O189  1  0.27727302  0.62892005  0.09264476  1
  O  O190  1  0.28581744  0.61981389  0.42843691  1
  O  O191  1  0.28324759  0.62985990  0.76434983  1
  O  O192  1  0.77743434  0.12467955  0.09922562  1
  O  O193  1  0.77824605  0.12473719  0.42207958  1
  O  O194  1  0.78292273  0.12735224  0.75722439  1
  O  O195  1  0.78249515  0.63728724  0.08672056  1
  O  O196  1  0.78966394  0.64013074  0.42438534  1
  O  O197  1  0.78286255  0.63071500  0.75933281  1
  O  O198  1  0.12989065  0.28179934  0.25420657  1
  O  O199  1  0.11992167  0.28106431  0.60391788  1
  O  O200  1  0.13057677  0.28086552  0.92816636  1
  O  O201  1  0.12953568  0.78230509  0.25800050  1
  O  O202  1  0.13289457  0.78638199  0.59301528  1
  O  O203  1  0.13558719  0.76988539  0.91334890  1
  O  O204  1  0.64663983  0.27943466  0.25270482  1
  O  O205  1  0.63550852  0.28677610  0.59510530  1
  O  O206  1  0.63594591  0.28478870  0.92528577  1
  O  O207  1  0.63015372  0.77930296  0.25836533  1
  O  O208  1  0.63776760  0.77772761  0.59441297  1
  O  O209  1  0.62153729  0.78703793  0.92951810  1
  O  O210  1  0.21939667  0.36879661  0.24025009  1
  O  O211  1  0.21322232  0.35877672  0.58237876  1
  O  O212  1  0.22069352  0.36773056  0.91343088  1
  O  O213  1  0.21620011  0.87185563  0.24335508  1
  O  O214  1  0.21915546  0.87533607  0.57585719  1
  O  O215  1  0.22006652  0.86492990  0.90313011  1
  O  O216  1  0.72046546  0.37693999  0.23282578  1
  O  O217  1  0.71242605  0.37627074  0.56461187  1
  O  O218  1  0.72189922  0.37334959  0.90856676  1
  O  O219  1  0.72143431  0.86530282  0.24332697  1
  O  O220  1  0.72940009  0.86235472  0.58059304  1
  O  O221  1  0.70689084  0.86750364  0.89936117  1
  O  O222  1  0.41317213  0.12982795  0.14702701  1
  O  O223  1  0.40810884  0.12376653  0.47411859  1
  O  O224  1  0.41781873  0.12633017  0.81618380  1
  O  O225  1  0.41484370  0.63277070  0.15480965  1
  O  O226  1  0.42453138  0.63140490  0.48718855  1
  O  O227  1  0.42187363  0.63483404  0.81856556  1
  O  O228  1  0.91604791  0.13694093  0.15890168  1
  O  O229  1  0.91511062  0.13299772  0.49062731  1
  O  O230  1  0.92129306  0.12739644  0.81410043  1
  O  O231  1  0.91941015  0.63661827  0.14993280  1
  O  O232  1  0.92723106  0.63458007  0.48168770  1
  O  O233  1  0.92090561  0.63043677  0.81836341  1
  O  O234  1  0.36162725  0.07831119  0.01063382  1
  O  O235  1  0.35208674  0.08715611  0.33895468  1
  O  O236  1  0.36261936  0.08260359  0.68005362  1
  O  O237  1  0.36469974  0.58163615  0.01747802  1
  O  O238  1  0.37362336  0.57010282  0.35272549  1
  O  O239  1  0.36461367  0.59087898  0.68144160  1
  O  O240  1  0.86718290  0.09033370  0.02356863  1
  O  O241  1  0.87463463  0.07723552  0.35540569  1
  O  O242  1  0.86913261  0.08221851  0.67832325  1
  O  O243  1  0.87191235  0.58286789  0.01391150  1
  O  O244  1  0.87254293  0.58067877  0.34687433  1
  O  O245  1  0.86995365  0.57582057  0.68287839  1
  O  O246  1  0.08169699  0.37713028  0.18622022  1
  O  O247  1  0.07648526  0.36200606  0.51995442  1
  O  O248  1  0.08266609  0.36866482  0.85175887  1
  O  O249  1  0.07863107  0.86937951  0.18144321  1
  O  O250  1  0.08203054  0.86814920  0.51071658  1
  O  O251  1  0.08269203  0.85926358  0.84007374  1
  O  O252  1  0.58134677  0.36696009  0.18257588  1
  O  O253  1  0.57411840  0.36276617  0.51096645  1
  O  O254  1  0.58356975  0.36500933  0.84261998  1
  O  O255  1  0.58368856  0.86523980  0.18116502  1
  O  O256  1  0.59135409  0.87247697  0.52718704  1
  O  O257  1  0.56910741  0.87794473  0.85773037  1
  O  O258  1  0.13563997  0.41861758  0.32144689  1
  O  O259  1  0.12825456  0.42024914  0.65595115  1
  O  O260  1  0.13210381  0.41905071  0.98766896  1
  O  O261  1  0.12613900  0.92029463  0.31736405  1
  O  O262  1  0.12554536  0.92408841  0.64559258  1
  O  O263  1  0.12886477  0.90694834  0.97574282  1
  O  O264  1  0.63904055  0.41652458  0.31725485  1
  O  O265  1  0.63043800  0.42451336  0.64598159  1
  O  O266  1  0.62848826  0.42347151  0.97780460  1
  O  O267  1  0.63436962  0.91719525  0.31832372  1
  O  O268  1  0.64813985  0.91425770  0.66308163  1
  O  O269  1  0.63892275  0.92493924  0.99127080  1
  O  O270  1  0.02493223  0.20457611  0.10421648  1
  O  O271  1  0.02706011  0.20094079  0.44083538  1
  O  O272  1  0.03055948  0.20296799  0.77621606  1
  O  O273  1  0.03553158  0.69833631  0.10329618  1
  O  O274  1  0.04194107  0.70169034  0.43582191  1
  O  O275  1  0.03088670  0.69597835  0.76610245  1
  O  O276  1  0.54063198  0.19643832  0.09913178  1
  O  O277  1  0.52300251  0.19856544  0.43361489  1
  O  O278  1  0.53127446  0.19273676  0.77303807  1
  O  O279  1  0.52460118  0.69752774  0.10339053  1
  O  O280  1  0.53640077  0.70365633  0.44004370  1
  O  O281  1  0.53104533  0.71182035  0.77448790  1
  O  O282  1  0.30326350  0.46481401  0.06584911  1
  O  O283  1  0.29983502  0.45633357  0.39218074  1
  O  O284  1  0.30162245  0.46547125  0.73945224  1
  O  O285  1  0.29790647  0.96092416  0.05977961  1
  O  O286  1  0.28814032  0.97993610  0.39364364  1
  O  O287  1  0.29384005  0.97185289  0.72695457  1
  O  O288  1  0.79499335  0.48060678  0.06010260  1
  O  O289  1  0.81546652  0.47223668  0.39851594  1
  O  O290  1  0.79626310  0.46603760  0.72629929  1
  O  O291  1  0.79948325  0.96919630  0.06666853  1
  O  O292  1  0.80353127  0.96407447  0.39430510  1
  O  O293  1  0.81487517  0.96687895  0.72726803  1
  O  O294  1  0.46726752  0.30276457  0.23370208  1
  O  O295  1  0.46431582  0.29578339  0.55892191  1
  O  O296  1  0.47518234  0.29560140  0.89590906  1
  O  O297  1  0.46385391  0.80276885  0.22750633  1
  O  O298  1  0.47370296  0.80875871  0.57317699  1
  O  O299  1  0.46285318  0.79879705  0.89955329  1
  O  O300  1  0.97279805  0.31052546  0.24166625  1
  O  O301  1  0.95965073  0.29845109  0.56448280  1
  O  O302  1  0.96644797  0.30145931  0.89075228  1
  O  O303  1  0.96959836  0.80070107  0.22412895  1
  O  O304  1  0.97244512  0.79870473  0.55746003  1
  O  O305  1  0.97812989  0.79101915  0.89171964  1
  O  O306  1  0.18804764  0.03431472  0.27230390  1
  O  O307  1  0.19383113  0.03543185  0.60341955  1
  O  O308  1  0.19153321  0.02674003  0.92899661  1
  O  O309  1  0.20111167  0.53268548  0.27288366  1
  O  O310  1  0.18619035  0.53058054  0.60267181  1
  O  O311  1  0.19639175  0.52594473  0.93730812  1
  O  O312  1  0.70799627  0.02452155  0.26994238  1
  O  O313  1  0.70713495  0.02081925  0.60596490  1
  O  O314  1  0.69996380  0.03794724  0.94365141  1
  O  O315  1  0.70180771  0.53914350  0.26552958  1
  O  O316  1  0.70157657  0.54148371  0.61051304  1
  O  O317  1  0.70387910  0.53500197  0.93685460  1
  O  O318  1  0.06321971  0.08589696  0.03218052  1
  O  O319  1  0.07611502  0.09036978  0.36858845  1
  O  O320  1  0.07585979  0.08665571  0.70464216  1
  O  O321  1  0.08622650  0.58274392  0.03855314  1
  O  O322  1  0.08877508  0.58510091  0.36648970  1
  O  O323  1  0.09456061  0.58955213  0.70822375  1
  O  O324  1  0.60678039  0.09265551  0.04075481  1
  O  O325  1  0.58632979  0.08742861  0.38436586  1
  O  O326  1  0.58524710  0.07617759  0.71055065  1
  O  O327  1  0.58340685  0.59035280  0.03444737  1
  O  O328  1  0.57145224  0.58441554  0.36520139  1
  O  O329  1  0.58912534  0.60285763  0.71142882  1
  O  O330  1  0.41109984  0.40243082  0.12821053  1
  O  O331  1  0.40617109  0.39247553  0.45439679  1
  O  O332  1  0.41123365  0.40585270  0.80206388  1
  O  O333  1  0.40776351  0.91420352  0.13636702  1
  O  O334  1  0.40926582  0.94032615  0.45997214  1
  O  O335  1  0.40426786  0.91773778  0.79353494  1
  O  O336  1  0.91236260  0.43579277  0.12647423  1
  O  O337  1  0.91265060  0.41506048  0.47473622  1
  O  O338  1  0.91173470  0.41841167  0.79519955  1
  O  O339  1  0.91567802  0.91710429  0.12423787  1
  O  O340  1  0.91988281  0.91550746  0.45897645  1
  O  O341  1  0.92711373  0.91339459  0.79300653  1
  O  O342  1  0.42020328  0.41100191  0.31084340  1
  O  O343  1  0.40455659  0.40099093  0.62803175  1
  O  O344  1  0.42215119  0.40647468  0.96314722  1
  O  O345  1  0.40365329  0.91340976  0.29093632  1
  O  O346  1  0.41770065  0.92088408  0.63289594  1
  O  O347  1  0.39708007  0.90377422  0.95708909  1
  O  O348  1  0.91336221  0.41954472  0.30070350  1
  O  O349  1  0.90968484  0.41431275  0.62987104  1
  O  O350  1  0.91588938  0.41857524  0.95412202  1
  O  O351  1  0.92217201  0.91506734  0.29517844  1
  O  O352  1  0.92132959  0.91026863  0.62660032  1
  O  O353  1  0.94085356  0.91255707  0.95975930  1
  O  O354  1  0.07773535  0.09176492  0.20780077  1
  O  O355  1  0.07749780  0.08472096  0.53968634  1
  O  O356  1  0.08090860  0.08402967  0.86816765  1
  O  O357  1  0.08854052  0.58379363  0.20267860  1
  O  O358  1  0.08580490  0.58757431  0.52672023  1
  O  O359  1  0.08540091  0.57675681  0.86590962  1
  O  O360  1  0.60259692  0.08646539  0.20677847  1
  O  O361  1  0.58205716  0.04828544  0.53477114  1
  O  O362  1  0.59409978  0.08708521  0.86542408  1
  O  O363  1  0.59063918  0.59313237  0.20348737  1
  O  O364  1  0.59214359  0.60162618  0.54721672  1
  O  O365  1  0.58982393  0.58939014  0.87783734  1
  O  O366  1  0.13231715  0.21488421  0.05636320  1
  O  O367  1  0.13602994  0.22479845  0.39759227  1
  O  O368  1  0.13687391  0.21767334  0.72789922  1
  O  O369  1  0.14109894  0.71508355  0.05421706  1
  O  O370  1  0.14320357  0.71681086  0.38110612  1
  O  O371  1  0.14007617  0.72361517  0.72380624  1
  O  O372  1  0.64689951  0.22802227  0.05586267  1
  O  O373  1  0.62196317  0.21531991  0.37691773  1
  O  O374  1  0.63750500  0.20792344  0.72508845  1
  O  O375  1  0.63250361  0.72662746  0.06202565  1
  O  O376  1  0.64045431  0.71375169  0.38894611  1
  O  O377  1  0.64278437  0.73593445  0.73533966  1
  O  O378  1  0.27469581  0.35461764  0.10501391  1
  O  O379  1  0.27104902  0.35768072  0.44319400  1
  O  O380  1  0.27671633  0.35667647  0.78148509  1
  O  O381  1  0.27365653  0.85744892  0.10829150  1
  O  O382  1  0.28243741  0.86804595  0.43693105  1
  O  O383  1  0.27074286  0.86110036  0.76678737  1
  O  O384  1  0.78199568  0.37118898  0.10450379  1
  O  O385  1  0.77520530  0.36168418  0.43279577  1
  O  O386  1  0.78013006  0.36497745  0.78137918  1
  O  O387  1  0.78656321  0.86566984  0.12035878  1
  O  O388  1  0.78901139  0.85681420  0.44310467  1
  O  O389  1  0.79440251  0.86459616  0.77987380  1
  O  O390  1  0.35508007  0.27735853  0.27186762  1
  O  O391  1  0.36084195  0.26412696  0.60412613  1
  O  O392  1  0.36526303  0.27310883  0.93785808  1
  O  O393  1  0.36063052  0.77929625  0.27663636  1
  O  O394  1  0.36735149  0.78824216  0.62090080  1
  O  O395  1  0.35619187  0.76877950  0.94225085  1
  O  O396  1  0.86234560  0.28529910  0.28308104  1
  O  O397  1  0.86104995  0.28433926  0.62287193  1
  O  O398  1  0.86444042  0.28775560  0.94450399  1
  O  O399  1  0.86487318  0.78263644  0.27367962  1
  O  O400  1  0.86489460  0.77572347  0.60260530  1
  O  O401  1  0.86932478  0.78601274  0.93926273  1
  O  O402  1  0.21202140  0.13787219  0.22307055  1
  O  O403  1  0.20854586  0.14297364  0.55523611  1
  O  O404  1  0.21389755  0.13627642  0.88518198  1
  O  O405  1  0.22231084  0.63868129  0.22550550  1
  O  O406  1  0.22353492  0.63625204  0.56163459  1
  O  O407  1  0.22028234  0.63372554  0.89335203  1
  O  O408  1  0.73744933  0.13782697  0.23588010  1
  O  O409  1  0.70345976  0.12693242  0.55292352  1
  O  O410  1  0.72893924  0.14412029  0.89908450  1
  O  O411  1  0.72298262  0.64492203  0.21766515  1
  O  O412  1  0.72602109  0.63551369  0.55373964  1
  O  O413  1  0.72082548  0.64317873  0.89087159  1
  O  O414  1  0.49542253  0.32305999  0.02911606  1
  O  O415  1  0.48624841  0.31559382  0.36356978  1
  O  O416  1  0.48950311  0.32005086  0.69106603  1
  O  O417  1  0.48246129  0.83426706  0.03272673  1
  O  O418  1  0.49077510  0.84352956  0.36234523  1
  O  O419  1  0.49625606  0.84991997  0.70852609  1
  O  O420  1  0.99791885  0.34771077  0.02658884  1
  O  O421  1  0.98981760  0.34523831  0.37476012  1
  O  O422  1  0.99435357  0.34211931  0.70027995  1
  O  O423  1  1.00148936  0.82467245  0.02620813  1
  O  O424  1  0.99838367  0.83213713  0.35835348  1
  O  O425  1  0.99562260  0.82634835  0.69038609  1
  O  O426  1  0.15060809  0.00686594  0.13767977  1
  O  O427  1  0.15523730  0.01149868  0.46832278  1
  O  O428  1  0.15608412  0.00694769  0.79540676  1
  O  O429  1  0.16925365  0.50615699  0.13882067  1
  O  O430  1  0.17070387  0.50628615  0.47215584  1
  O  O431  1  0.16995975  0.50333891  0.80356115  1
  O  O432  1  0.68431261  0.01142231  0.13874208  1
  O  O433  1  0.67372950  -0.00744037  0.47031004  1
  O  O434  1  0.68466138  0.01171398  0.81271627  1
  O  O435  1  0.66579015  0.51428977  0.13097884  1
  O  O436  1  0.65260042  0.50554052  0.47413599  1
  O  O437  1  0.66480788  0.51255618  0.80310785  1
  O  O438  1  0.00518315  0.17865001  0.30835703  1
  O  O439  1  0.00236615  0.17172482  0.64261175  1
  O  O440  1  0.00006660  0.17610066  0.97024202  1
  O  O441  1  0.00921273  0.66514439  0.30086771  1
  O  O442  1  0.01282552  0.66268969  0.63364801  1
  O  O443  1  0.00992809  0.65929930  0.96795235  1
  O  O444  1  0.49405206  0.13908733  0.29871111  1
  O  O445  1  0.50611878  0.15031472  0.63844912  1
  O  O446  1  0.52039264  0.16156159  0.96616246  1
  O  O447  1  0.50712816  0.67516801  0.30514723  1
  O  O448  1  0.51312052  0.68361459  0.64271895  1
  O  O449  1  0.50359495  0.67006278  0.97066640  1
  O  O450  1  0.33381762  0.48215821  0.19770171  1
  O  O451  1  0.34002898  0.48659071  0.52678068  1
  O  O452  1  0.33616739  0.48554503  0.87268792  1
  O  O453  1  0.32002786  0.99160234  0.19204609  1
  O  O454  1  0.32095073  0.99857600  0.52724695  1
  O  O455  1  0.32052230  0.99069177  0.85952425  1
  O  O456  1  0.82885703  0.50077351  0.19523876  1
  O  O457  1  0.82226823  0.49102915  0.52626183  1
  O  O458  1  0.83385292  0.49896559  0.86150851  1
  O  O459  1  0.84786939  0.99631011  0.20303661  1
  O  O460  1  0.84171683  0.98915964  0.52933334  1
  O  O461  1  0.85375353  0.99747290  0.86252937  1
