# generated using pymatgen
data_Na31Fe20(SO4)36
_symmetry_space_group_name_H-M   'P 1'
_cell_length_a   18.07505897
_cell_length_b   18.07387168
_cell_length_c   19.70836062
_cell_angle_alpha   107.56321730
_cell_angle_beta   107.58979325
_cell_angle_gamma   90.73982593
_symmetry_Int_Tables_number   1
_chemical_formula_structural   Na31Fe20(SO4)36
_chemical_formula_sum   'Na62 Fe40 S72 O288'
_cell_volume   5812.80427122
_cell_formula_units_Z   2
loop_
 _symmetry_equiv_pos_site_id
 _symmetry_equiv_pos_as_xyz
  1  'x, y, z'
loop_
 _atom_site_type_symbol
 _atom_site_label
 _atom_site_symmetry_multiplicity
 _atom_site_fract_x
 _atom_site_fract_y
 _atom_site_fract_z
 _atom_site_occupancy
  Na  Na0  1  0.13687633  0.36428452  0.08487561  1
  Na  Na1  1  0.14546899  0.36133332  0.42580292  1
  Na  Na2  1  0.13828441  0.35945520  0.74527831  1
  Na  Na3  1  0.15330152  0.85557907  0.09239847  1
  Na  Na4  1  0.12894800  0.86203935  0.41757692  1
  Na  Na5  1  0.13022916  0.86430957  0.74123697  1
  Na  Na6  1  0.63922887  0.37310745  0.09374880  1
  Na  Na7  1  0.63976927  0.37407033  0.42210061  1
  Na  Na8  1  0.63391744  0.36996785  0.74799012  1
  Na  Na9  1  0.62309263  0.85217459  0.07054116  1
  Na  Na10  1  0.63145610  0.86282593  0.41157103  1
  Na  Na11  1  0.61581005  0.86961856  0.74258736  1
  Na  Na12  1  0.37104592  0.13388422  0.25562734  1
  Na  Na13  1  0.35342527  0.14921887  0.58955933  1
  Na  Na14  1  0.35530765  0.12697266  0.89793852  1
  Na  Na15  1  0.37164988  0.64500862  0.25854281  1
  Na  Na16  1  0.34593962  0.62664705  0.56783183  1
  Na  Na17  1  0.37275730  0.65087148  0.92657761  1
  Na  Na18  1  0.86553879  0.13815685  0.25088726  1
  Na  Na19  1  0.87067862  0.13073062  0.58092351  1
  Na  Na20  1  0.87015632  0.12638016  0.91396768  1
  Na  Na21  1  0.86462733  0.62483140  0.24980116  1
  Na  Na22  1  0.86052563  0.63424830  0.58206983  1
  Na  Na23  1  0.86054352  0.63523060  0.91626417  1
  Na  Na24  1  0.49014250  0.52962485  0.38817184  1
  Na  Na25  1  0.50297605  -0.01140644  0.08753673  1
  Na  Na26  1  0.98836980  0.50999831  0.08931615  1
  Na  Na27  1  0.96219965  0.51412086  0.73599291  1
  Na  Na28  1  0.48000800  0.51281350  0.09737825  1
  Na  Na29  1  0.98254173  0.53412048  0.42087740  1
  Na  Na30  1  0.51134957  -0.03699286  0.47930608  1
  Na  Na31  1  1.01749291  -0.00796107  0.06613819  1
  Na  Na32  1  0.49129007  0.54182010  0.74657596  1
  Na  Na33  1  0.05392116  0.99452097  0.60681485  1
  Na  Na34  1  0.05441329  0.48687766  0.27841148  1
  Na  Na35  1  0.49321294  0.52161965  0.90636982  1
  Na  Na36  1  0.52108655  0.50529405  0.57026246  1
  Na  Na37  1  0.01439886  0.48882855  0.91404591  1
  Na  Na38  1  0.50392541  0.99349964  0.90222366  1
  Na  Na39  1  -0.01129673  0.51216089  0.57945422  1
  Na  Na40  1  0.00714339  0.98757676  0.26469979  1
  Na  Na41  1  0.50596918  0.95648784  0.25053046  1
  Na  Na42  1  0.26327550  0.75577643  0.32929490  1
  Na  Na43  1  0.75680654  0.25602301  -0.00615040  1
  Na  Na44  1  0.26399597  0.75938018  0.00200892  1
  Na  Na45  1  0.74753642  0.74476191  0.33701681  1
  Na  Na46  1  0.25060995  0.24590683  -0.00691250  1
  Na  Na47  1  0.24492606  0.23970931  0.34653595  1
  Na  Na48  1  0.73684296  0.74163391  0.00321800  1
  Na  Na49  1  0.74640923  0.75469034  0.66663495  1
  Na  Na50  1  0.75834081  0.26415091  0.65652898  1
  Na  Na51  1  0.76326130  0.27312317  0.32617864  1
  Na  Na52  1  0.75611787  0.25617518  0.82702572  1
  Na  Na53  1  0.73937113  0.74180842  0.17128025  1
  Na  Na54  1  0.22440807  0.72407822  0.50780018  1
  Na  Na55  1  0.25451072  0.24859588  0.81710984  1
  Na  Na56  1  0.76118176  0.26402293  0.16126617  1
  Na  Na57  1  0.73884974  0.74943464  0.83589863  1
  Na  Na58  1  0.76352424  0.26734416  0.49428854  1
  Na  Na59  1  0.75097322  0.75197554  0.50139829  1
  Na  Na60  1  0.24830328  0.24406776  0.17008263  1
  Na  Na61  1  0.25496898  0.75703042  0.81411861  1
  Fe  Fe62  1  0.96609649  0.80839576  0.78812048  1
  Fe  Fe63  1  0.46482833  0.30628448  0.78152420  1
  Fe  Fe64  1  0.46547027  0.30774846  0.45384590  1
  Fe  Fe65  1  0.96856911  0.80544942  0.46210797  1
  Fe  Fe66  1  0.96473584  0.30647491  0.78209714  1
  Fe  Fe67  1  0.46330447  0.31096397  0.12213497  1
  Fe  Fe68  1  0.96691469  0.30742420  0.12151173  1
  Fe  Fe69  1  0.96875806  0.31159507  0.45566396  1
  Fe  Fe70  1  0.96563505  0.80511774  0.12067591  1
  Fe  Fe71  1  0.46196971  0.79753858  0.78613248  1
  Fe  Fe72  1  0.19123934  0.03505459  0.04443812  1
  Fe  Fe73  1  0.69089818  0.03551192  0.71358535  1
  Fe  Fe74  1  0.69977627  0.53172399  0.37269168  1
  Fe  Fe75  1  0.69749232  0.03851907  0.38355740  1
  Fe  Fe76  1  0.19277792  0.53513550  0.04993935  1
  Fe  Fe77  1  0.18369681  0.53355466  0.70916101  1
  Fe  Fe78  1  0.19477040  0.03803346  0.39184817  1
  Fe  Fe79  1  0.69848750  0.53347583  0.70713757  1
  Fe  Fe80  1  0.69297154  0.53320051  0.04497243  1
  Fe  Fe81  1  0.69308655  0.03622926  0.04806305  1
  Fe  Fe82  1  0.53483670  0.19093293  0.87776924  1
  Fe  Fe83  1  0.53273922  0.19369865  0.54818909  1
  Fe  Fe84  1  0.03659410  0.18232172  0.87395570  1
  Fe  Fe85  1  0.53283653  0.19407435  0.21491425  1
  Fe  Fe86  1  0.52435490  0.70437961  0.53673407  1
  Fe  Fe87  1  0.03744575  0.69346531  0.21944514  1
  Fe  Fe88  1  0.03497530  0.69168055  0.88407460  1
  Fe  Fe89  1  0.03655140  0.18871797  0.21552864  1
  Fe  Fe90  1  0.04169823  0.18809314  0.54947727  1
  Fe  Fe91  1  0.52947545  0.70486470  0.20956690  1
  Fe  Fe92  1  0.80705749  0.96498841  0.95292103  1
  Fe  Fe93  1  0.30928385  0.96468469  0.29066593  1
  Fe  Fe94  1  0.29898343  0.46822045  0.28997508  1
  Fe  Fe95  1  0.30088641  0.96361947  0.62285360  1
  Fe  Fe96  1  0.81414813  0.96701753  0.29164616  1
  Fe  Fe97  1  0.30500239  0.96729088  0.94901988  1
  Fe  Fe98  1  0.81181728  0.96633583  0.62509614  1
  Fe  Fe99  1  0.80778201  0.46299158  0.95122232  1
  Fe  Fe100  1  0.30466429  0.46273252  0.61673647  1
  Fe  Fe101  1  0.30430383  0.46315839  0.94933969  1
  S  S102  1  0.36024404  0.14293811  0.08193487  1
  S  S103  1  0.36095606  0.14060083  0.41780646  1
  S  S104  1  0.36456264  0.13572668  0.74834252  1
  S  S105  1  0.35857376  0.63561200  0.08020424  1
  S  S106  1  0.35643643  0.63914696  0.41383319  1
  S  S107  1  0.35517274  0.63454487  0.75186416  1
  S  S108  1  0.86063796  0.13971449  0.08427704  1
  S  S109  1  0.86310076  0.14283442  0.41718964  1
  S  S110  1  0.85646399  0.14335893  0.74956902  1
  S  S111  1  0.86130748  0.63922227  0.08224345  1
  S  S112  1  0.85898326  0.64623222  0.42176949  1
  S  S113  1  0.85650207  0.64589597  0.75333930  1
  S  S114  1  0.14431473  0.34937048  0.24729308  1
  S  S115  1  0.14338245  0.35462212  0.58549624  1
  S  S116  1  0.13821712  0.35860586  0.91622403  1
  S  S117  1  0.13890135  0.86088290  0.24994626  1
  S  S118  1  0.14217727  0.85442405  0.58118029  1
  S  S119  1  0.13942769  0.85842222  0.92115366  1
  S  S120  1  0.63736851  0.35759872  0.24884706  1
  S  S121  1  0.63985801  0.35994976  0.58208502  1
  S  S122  1  0.64015970  0.35776684  0.91695390  1
  S  S123  1  0.64626643  0.86605457  0.24914303  1
  S  S124  1  0.64256389  0.86436831  0.58489403  1
  S  S125  1  0.63791926  0.86269480  0.91660103  1
  S  S126  1  0.06551667  0.17013812  0.04209848  1
  S  S127  1  0.06697947  0.16785298  0.37338434  1
  S  S128  1  0.06391686  0.17122639  0.71322847  1
  S  S129  1  0.06529678  0.66630513  0.04219971  1
  S  S130  1  0.05808074  0.67046888  0.37536531  1
  S  S131  1  0.05856580  0.66597247  0.71340033  1
  S  S132  1  0.56692779  0.16857500  0.04198698  1
  S  S133  1  0.57142765  0.17174405  0.37803073  1
  S  S134  1  0.57341520  0.17664000  0.71174106  1
  S  S135  1  0.56812507  0.66547567  0.03973544  1
  S  S136  1  0.57379212  0.67317090  0.37160829  1
  S  S137  1  0.56594190  0.67153742  0.70275890  1
  S  S138  1  0.32457545  0.42879357  0.12255950  1
  S  S139  1  0.33522633  0.42888428  0.45839963  1
  S  S140  1  0.33215251  0.43109172  0.79306869  1
  S  S141  1  0.33248150  0.94506509  0.12601282  1
  S  S142  1  0.31736631  0.92859632  0.45533033  1
  S  S143  1  0.32881209  0.92766000  0.78859956  1
  S  S144  1  0.83307087  0.43348175  0.12210048  1
  S  S145  1  0.83345781  0.43759599  0.45704740  1
  S  S146  1  0.83393992  0.43606493  0.79215771  1
  S  S147  1  0.83199955  0.93214198  0.12520707  1
  S  S148  1  0.83036196  0.93091748  0.45946734  1
  S  S149  1  0.82425247  0.93133014  0.79052635  1
  S  S150  1  0.42944073  0.33005013  0.29158698  1
  S  S151  1  0.43585442  0.33704969  0.62826883  1
  S  S152  1  0.43132429  0.32904637  0.95666781  1
  S  S153  1  0.43659009  0.83630216  0.29632586  1
  S  S154  1  0.42021846  0.82165265  0.62192015  1
  S  S155  1  0.43185328  0.83814562  0.95637530  1
  S  S156  1  0.94516668  0.33289452  0.29201620  1
  S  S157  1  0.94019388  0.33181158  0.62280199  1
  S  S158  1  0.93561328  0.33098353  0.95776332  1
  S  S159  1  0.93046278  0.82658310  0.29125379  1
  S  S160  1  0.93195049  0.83320930  0.62805057  1
  S  S161  1  0.93075125  0.82816128  0.95784819  1
  S  S162  1  0.16977342  0.06391154  0.20862662  1
  S  S163  1  0.16904241  0.06218501  0.54104360  1
  S  S164  1  0.17029535  0.06343852  0.87610017  1
  S  S165  1  0.16643597  0.56298738  0.20800817  1
  S  S166  1  0.16061521  0.55181301  0.54079692  1
  S  S167  1  0.16804871  0.56535848  0.87662693  1
  S  S168  1  0.67242206  0.07219795  0.21125666  1
  S  S169  1  0.67420373  0.07121521  0.54511353  1
  S  S170  1  0.67355389  0.06998599  0.87901638  1
  S  S171  1  0.66741783  0.57151995  0.20614803  1
  S  S172  1  0.66406564  0.57318723  0.53564456  1
  S  S173  1  0.67053938  0.56157651  0.87231080  1
  O  O174  1  0.37081368  0.22294276  0.07561789  1
  O  O175  1  0.37463931  0.21764443  0.40648728  1
  O  O176  1  0.37856560  0.21251613  0.73696662  1
  O  O177  1  0.36783944  0.70708620  0.06261399  1
  O  O178  1  0.36823222  0.71352391  0.40161353  1
  O  O179  1  0.36602026  0.71655073  0.75126047  1
  O  O180  1  0.86804900  0.21959438  0.07699767  1
  O  O181  1  0.87075952  0.22162755  0.40772857  1
  O  O182  1  0.86297578  0.22358463  0.74235411  1
  O  O183  1  0.87008571  0.71807083  0.07315565  1
  O  O184  1  0.86655637  0.73121483  0.42286699  1
  O  O185  1  0.86373853  0.72800546  0.75165272  1
  O  O186  1  0.28090007  0.13575576  0.08965576  1
  O  O187  1  0.27976065  0.13529265  0.42003746  1
  O  O188  1  0.29231903  0.13197342  0.76611110  1
  O  O189  1  0.27927724  0.62443230  0.08669995  1
  O  O190  1  0.28266896  0.62747104  0.42724319  1
  O  O191  1  0.27485590  0.62499437  0.75761633  1
  O  O192  1  0.78166318  0.13056948  0.09295484  1
  O  O193  1  0.78483251  0.13454255  0.42778488  1
  O  O194  1  0.77771648  0.13291939  0.75799426  1
  O  O195  1  0.78140823  0.63045166  0.08805288  1
  O  O196  1  0.77583209  0.63550358  0.42201738  1
  O  O197  1  0.77706247  0.63465518  0.76139726  1
  O  O198  1  0.13837597  0.26490539  0.24312292  1
  O  O199  1  0.13311360  0.27695940  0.59472937  1
  O  O200  1  0.12771471  0.28017491  0.92441296  1
  O  O201  1  0.13109337  0.78259257  0.25968272  1
  O  O202  1  0.13769115  0.77424996  0.58012970  1
  O  O203  1  0.13107185  0.78078060  0.93326821  1
  O  O204  1  0.62479134  0.27976642  0.26021575  1
  O  O205  1  0.62584801  0.28258479  0.59291657  1
  O  O206  1  0.63031839  0.27826607  0.92430513  1
  O  O207  1  0.63672974  0.78604929  0.25488808  1
  O  O208  1  0.62748824  0.78496456  0.59037722  1
  O  O209  1  0.63310577  0.78831191  0.93052451  1
  O  O210  1  0.22160422  0.36421626  0.23757880  1
  O  O211  1  0.22098402  0.36524562  0.57693280  1
  O  O212  1  0.21775683  0.36633984  0.90884156  1
  O  O213  1  0.21717859  0.87213016  0.24260718  1
  O  O214  1  0.21914065  0.87259994  0.56819212  1
  O  O215  1  0.21977732  0.86784709  0.91640099  1
  O  O216  1  0.71296869  0.36113985  0.23636401  1
  O  O217  1  0.71687113  0.36486299  0.57334335  1
  O  O218  1  0.71949953  0.36427512  0.90765383  1
  O  O219  1  0.72770056  0.87500459  0.24508567  1
  O  O220  1  0.72621833  0.86970937  0.58542958  1
  O  O221  1  0.71652852  0.87525815  0.90734663  1
  O  O222  1  0.41855446  0.13472779  0.15074642  1
  O  O223  1  0.41657439  0.13611592  0.48923558  1
  O  O224  1  0.43014465  0.12558079  0.81231984  1
  O  O225  1  0.41708101  0.63324523  0.15184575  1
  O  O226  1  0.42212652  0.62887479  0.47873717  1
  O  O227  1  0.41301981  0.61952743  0.81567626  1
  O  O228  1  0.91929040  0.13137527  0.15197811  1
  O  O229  1  0.92289286  0.13459621  0.48386503  1
  O  O230  1  0.91527919  0.13736748  0.81830934  1
  O  O231  1  0.91966592  0.63142527  0.15039946  1
  O  O232  1  0.91302516  0.63470475  0.48891919  1
  O  O233  1  0.91498253  0.63499797  0.82134782  1
  O  O234  1  0.36846585  0.08532528  0.01389757  1
  O  O235  1  0.37147391  0.07935569  0.35245072  1
  O  O236  1  0.36358481  0.07380904  0.67716529  1
  O  O237  1  0.37163650  0.56808880  0.01843614  1
  O  O238  1  0.36380090  0.57567461  0.34465568  1
  O  O239  1  0.36287053  0.58030873  0.68024878  1
  O  O240  1  0.86886660  0.08167093  0.01610778  1
  O  O241  1  0.86748893  0.08365194  0.34749612  1
  O  O242  1  0.86441591  0.08600225  0.68135854  1
  O  O243  1  0.87135352  0.57977572  0.01525181  1
  O  O244  1  0.87001258  0.59466516  0.35334617  1
  O  O245  1  0.86475567  0.59047060  0.68554289  1
  O  O246  1  0.08346613  0.36323241  0.18198530  1
  O  O247  1  0.08334825  0.36174172  0.51702204  1
  O  O248  1  0.08005759  0.36921605  0.84881530  1
  O  O249  1  0.07945606  0.86484565  0.17907745  1
  O  O250  1  0.07914942  0.86749369  0.51471313  1
  O  O251  1  0.08245747  0.86190974  0.85059260  1
  O  O252  1  0.57549214  0.36496636  0.18136015  1
  O  O253  1  0.57904388  0.36940277  0.51488272  1
  O  O254  1  0.58138656  0.36832932  0.85064449  1
  O  O255  1  0.58963313  0.87777931  0.18345430  1
  O  O256  1  0.59150149  0.87574819  0.51683981  1
  O  O257  1  0.57749560  0.86618048  0.84663855  1
  O  O258  1  0.13691978  0.39905553  0.31769926  1
  O  O259  1  0.13382044  0.41443839  0.65314468  1
  O  O260  1  0.12963339  0.41857739  0.98384781  1
  O  O261  1  0.12525020  0.92130501  0.31414309  1
  O  O262  1  0.13593221  0.91145309  0.64932868  1
  O  O263  1  0.12820333  0.91874372  0.98728853  1
  O  O264  1  0.63285504  0.41830631  0.31718447  1
  O  O265  1  0.63330742  0.42160525  0.65007773  1
  O  O266  1  0.63595795  0.41555779  0.98687892  1
  O  O267  1  0.63870072  0.92363157  0.31927722  1
  O  O268  1  0.63399235  0.92259858  0.65357157  1
  O  O269  1  0.62828436  0.92734168  0.98168981  1
  O  O270  1  0.02641104  0.19929025  0.10123207  1
  O  O271  1  0.03387284  0.19856882  0.43601046  1
  O  O272  1  0.02311991  0.20582678  0.77227515  1
  O  O273  1  0.03097269  0.69737423  0.10466412  1
  O  O274  1  0.01854987  0.70635646  0.43185252  1
  O  O275  1  0.02677575  0.69996902  0.77930688  1
  O  O276  1  0.53146650  0.19867612  0.10325171  1
  O  O277  1  0.53462582  0.19896654  0.43912654  1
  O  O278  1  0.53836667  0.20796664  0.77368363  1
  O  O279  1  0.54026314  0.69125454  0.10524162  1
  O  O280  1  0.53842447  0.69756219  0.43196367  1
  O  O281  1  0.52545160  0.69762027  0.75999516  1
  O  O282  1  0.29248073  0.46366666  0.06048821  1
  O  O283  1  0.31007168  0.46078660  0.39610390  1
  O  O284  1  0.30180638  0.46284928  0.72985601  1
  O  O285  1  0.29591896  0.97913942  0.06330303  1
  O  O286  1  0.29207575  0.97597581  0.40050165  1
  O  O287  1  0.30676273  0.96102042  0.72608706  1
  O  O288  1  0.80097364  0.46656327  0.05721362  1
  O  O289  1  0.80108721  0.46858300  0.39379344  1
  O  O290  1  0.80503258  0.47301295  0.73368795  1
  O  O291  1  0.80181282  0.96882249  0.06435184  1
  O  O292  1  0.80509577  0.97182976  0.40085190  1
  O  O293  1  0.79801407  0.97393642  0.73352231  1
  O  O294  1  0.46427815  0.29948791  0.22917807  1
  O  O295  1  0.46929857  0.30421353  0.56495745  1
  O  O296  1  0.46766717  0.29925555  0.89577935  1
  O  O297  1  0.47151083  0.80681693  0.23443148  1
  O  O298  1  0.46509962  0.80337707  0.56863410  1
  O  O299  1  0.46459431  0.81114624  0.89357033  1
  O  O300  1  0.97761790  0.29157981  0.22845294  1
  O  O301  1  0.97359922  0.29207180  0.56109220  1
  O  O302  1  0.96831900  0.30155590  0.89494751  1
  O  O303  1  0.96916616  0.79669777  0.23122883  1
  O  O304  1  0.96966440  0.81305806  0.56890981  1
  O  O305  1  0.96816960  0.79899978  0.89814284  1
  O  O306  1  0.20039471  0.02919438  0.26981731  1
  O  O307  1  0.20357117  0.02794600  0.60218034  1
  O  O308  1  0.20515746  0.03168542  0.94252231  1
  O  O309  1  0.19004455  0.52243167  0.26478087  1
  O  O310  1  0.20181826  0.52245855  0.60828657  1
  O  O311  1  0.19789379  0.52713375  0.93676884  1
  O  O312  1  0.70335090  0.03765887  0.27321519  1
  O  O313  1  0.70367681  0.03309048  0.60481803  1
  O  O314  1  0.70694231  0.03549828  0.94125995  1
  O  O315  1  0.69153514  0.53514334  0.26529771  1
  O  O316  1  0.67984765  0.53752850  0.59645902  1
  O  O317  1  0.70512962  0.52550919  0.93402019  1
  O  O318  1  0.08528052  0.08975382  0.04088772  1
  O  O319  1  0.08952107  0.08791991  0.37074781  1
  O  O320  1  0.08069276  0.09375592  0.71573965  1
  O  O321  1  0.07926751  0.58274616  0.03611803  1
  O  O322  1  0.07108429  0.59115172  0.37756468  1
  O  O323  1  0.07798703  0.58452663  0.71398105  1
  O  O324  1  0.58320562  0.08562095  0.03624118  1
  O  O325  1  0.59105139  0.09042090  0.37038370  1
  O  O326  1  0.59512530  0.09806906  0.71084191  1
  O  O327  1  0.58900987  0.58213344  0.02887202  1
  O  O328  1  0.59269481  0.59105331  0.36131723  1
  O  O329  1  0.58756217  0.59033602  0.70125558  1
  O  O330  1  0.40708548  0.41517761  0.12637948  1
  O  O331  1  0.42036521  0.41507580  0.47218212  1
  O  O332  1  0.41476773  0.41325153  0.79943218  1
  O  O333  1  0.41592854  0.94228823  0.13419174  1
  O  O334  1  0.39500532  0.90826015  0.45819717  1
  O  O335  1  0.40941396  0.90315251  0.79907799  1
  O  O336  1  0.91363802  0.41216061  0.12131712  1
  O  O337  1  0.91369377  0.41287282  0.45555575  1
  O  O338  1  0.91642788  0.41763095  0.79589430  1
  O  O339  1  0.91431699  0.91469897  0.13071068  1
  O  O340  1  0.90862728  0.90569235  0.46234125  1
  O  O341  1  0.90112734  0.90539570  0.79148048  1
  O  O342  1  0.40841901  0.40988530  0.29511607  1
  O  O343  1  0.42004161  0.41966518  0.63335818  1
  O  O344  1  0.41374990  0.41115382  0.96303525  1
  O  O345  1  0.40812595  0.91387291  0.28995236  1
  O  O346  1  0.39470087  0.90133453  0.62836228  1
  O  O347  1  0.41116991  0.92126722  0.96290148  1
  O  O348  1  0.94494722  0.41535468  0.29738670  1
  O  O349  1  0.93160528  0.41284562  0.62471724  1
  O  O350  1  0.92039583  0.41455898  0.96525957  1
  O  O351  1  0.91555676  0.90853533  0.29371225  1
  O  O352  1  0.91259088  0.91522889  0.64029811  1
  O  O353  1  0.91265662  0.91003197  0.96412759  1
  O  O354  1  0.08730104  0.08114937  0.20408228  1
  O  O355  1  0.09070884  0.08421549  0.54719926  1
  O  O356  1  0.09291480  0.08776819  0.88116183  1
  O  O357  1  0.08418212  0.58346465  0.20255897  1
  O  O358  1  0.08092524  0.56477329  0.54400556  1
  O  O359  1  0.08447433  0.57900453  0.87143916  1
  O  O360  1  0.59006257  0.08873252  0.20471111  1
  O  O361  1  0.59300620  0.08962614  0.54074639  1
  O  O362  1  0.59371800  0.08842760  0.87942060  1
  O  O363  1  0.58673528  0.59404027  0.19526928  1
  O  O364  1  0.58015595  0.58984975  0.51691415  1
  O  O365  1  0.58762540  0.56761641  0.86365376  1
  O  O366  1  0.13718398  0.22249246  0.05972876  1
  O  O367  1  0.13344321  0.22070299  0.38085987  1
  O  O368  1  0.13346027  0.22579937  0.73091315  1
  O  O369  1  0.13652010  0.71453472  0.05442439  1
  O  O370  1  0.13074299  0.71924652  0.38929190  1
  O  O371  1  0.12865666  0.71672218  0.72635041  1
  O  O372  1  0.63926272  0.21912190  0.05772696  1
  O  O373  1  0.64118969  0.22603494  0.39466941  1
  O  O374  1  0.64243034  0.23105595  0.72511790  1
  O  O375  1  0.64029635  0.71776419  0.05513745  1
  O  O376  1  0.64495626  0.72715430  0.38916007  1
  O  O377  1  0.63691483  0.72584787  0.72207996  1
  O  O378  1  0.27614310  0.35431326  0.10484202  1
  O  O379  1  0.28679399  0.35595446  0.44337660  1
  O  O380  1  0.28185925  0.36181456  0.78394339  1
  O  O381  1  0.28896267  0.86811524  0.10724222  1
  O  O382  1  0.25910178  0.86007740  0.42921953  1
  O  O383  1  0.27169340  0.86273814  0.77651559  1
  O  O384  1  0.78095296  0.36098023  0.10496258  1
  O  O385  1  0.78136948  0.36621175  0.44465248  1
  O  O386  1  0.78314566  0.36400124  0.77736869  1
  O  O387  1  0.78026103  0.86089564  0.10910021  1
  O  O388  1  0.77158998  0.86405542  0.44109015  1
  O  O389  1  0.76479963  0.86536607  0.77323365  1
  O  O390  1  0.36052536  0.27531110  0.27734834  1
  O  O391  1  0.36667521  0.28749823  0.61790999  1
  O  O392  1  0.35929035  0.27711628  0.93946742  1
  O  O393  1  0.37018481  0.78191139  0.28610338  1
  O  O394  1  0.35344581  0.76296387  0.60101330  1
  O  O395  1  0.35990684  0.78586344  0.93961761  1
  O  O396  1  0.86667491  0.29041047  0.27314698  1
  O  O397  1  0.86534279  0.28519726  0.60852351  1
  O  O398  1  0.86252864  0.28153120  0.94264485  1
  O  O399  1  0.85757961  0.77585333  0.27207274  1
  O  O400  1  0.86103403  0.77840880  0.60822009  1
  O  O401  1  0.85908763  0.77650466  0.94164825  1
  O  O402  1  0.22148601  0.13459491  0.22250833  1
  O  O403  1  0.21863336  0.12920214  0.54536789  1
  O  O404  1  0.22319197  0.13413050  0.89011505  1
  O  O405  1  0.21983313  0.63240465  0.22427591  1
  O  O406  1  0.20886962  0.62338844  0.55279465  1
  O  O407  1  0.21708696  0.63876035  0.89529869  1
  O  O408  1  0.72373249  0.14355952  0.22540124  1
  O  O409  1  0.72710154  0.14187682  0.56109749  1
  O  O410  1  0.72539689  0.14081712  0.89250633  1
  O  O411  1  0.72354504  0.64103460  0.22277531  1
  O  O412  1  0.71796060  0.64541522  0.55849199  1
  O  O413  1  0.71714788  0.63800910  0.89291367  1
  O  O414  1  0.48993972  0.33110630  0.02956471  1
  O  O415  1  0.49096779  0.33352568  0.36330706  1
  O  O416  1  0.49918482  0.34072213  0.69983858  1
  O  O417  1  0.49137462  0.84351406  0.02761004  1
  O  O418  1  0.49864293  0.85484872  0.36935881  1
  O  O419  1  0.47730733  0.82504767  0.69788506  1
  O  O420  1  0.99478094  0.33100771  0.02941602  1
  O  O421  1  0.99843943  0.32298609  0.36223263  1
  O  O422  1  0.99645101  0.33126133  0.69641340  1
  O  O423  1  0.99036260  0.83121004  0.03085476  1
  O  O424  1  0.98614874  0.82771974  0.36447475  1
  O  O425  1  0.99049026  0.82919591  0.69868591  1
  O  O426  1  0.16277566  0.00479503  0.13397456  1
  O  O427  1  0.15404021  0.00007502  0.46615725  1
  O  O428  1  0.16340620  0.00138714  0.80762365  1
  O  O429  1  0.15926878  0.50490002  0.13204089  1
  O  O430  1  0.15759437  0.49021507  0.47167798  1
  O  O431  1  0.16883472  0.50766838  0.80473385  1
  O  O432  1  0.66962648  0.01143663  0.13888502  1
  O  O433  1  0.67091114  0.01210888  0.47184643  1
  O  O434  1  0.66867303  0.01037680  0.80651628  1
  O  O435  1  0.66796144  0.51112154  0.13411567  1
  O  O436  1  0.67307025  0.51466606  0.46732102  1
  O  O437  1  0.67839702  0.50769860  0.80108516  1
  O  O438  1  0.00328654  0.15740770  0.30012544  1
  O  O439  1  0.00662680  0.16815028  0.63875183  1
  O  O440  1  0.00818920  0.16740846  0.96882121  1
  O  O441  1  0.00243299  0.66504789  0.29861796  1
  O  O442  1  -0.00457640  0.65747466  0.64405842  1
  O  O443  1  0.00366424  0.66336504  0.96990154  1
  O  O444  1  0.51078446  0.17031101  0.30618986  1
  O  O445  1  0.51198171  0.17194707  0.63980632  1
  O  O446  1  0.50798501  0.16621656  0.96925602  1
  O  O447  1  0.51460116  0.67618097  0.30062253  1
  O  O448  1  0.51101173  0.66385580  0.62676765  1
  O  O449  1  0.50687832  0.66340203  0.97069761  1
  O  O450  1  0.32337890  0.48598980  0.19394388  1
  O  O451  1  0.33211899  0.48880578  0.52896092  1
  O  O452  1  0.33760576  0.49439189  0.86534980  1
  O  O453  1  0.32463250  0.99908397  0.19735301  1
  O  O454  1  0.31681535  0.98300445  0.53030099  1
  O  O455  1  0.33399514  0.99241316  0.85975986  1
  O  O456  1  0.83703798  0.49222688  0.19176488  1
  O  O457  1  0.84495753  0.49717404  0.52987358  1
  O  O458  1  0.84057267  0.49272070  0.86801018  1
  O  O459  1  0.83557142  0.99182147  0.19812747  1
  O  O460  1  0.83525331  0.99013949  0.53282310  1
  O  O461  1  0.83140767  0.99051714  0.86507172  1
