# generated using pymatgen
data_Na31Fe20(SO4)36
_symmetry_space_group_name_H-M   'P 1'
_cell_length_a   18.08385775
_cell_length_b   18.09019187
_cell_length_c   19.71640211
_cell_angle_alpha   107.62749019
_cell_angle_beta   107.57161215
_cell_angle_gamma   90.72078950
_symmetry_Int_Tables_number   1
_chemical_formula_structural   Na31Fe20(SO4)36
_chemical_formula_sum   'Na62 Fe40 S72 O288'
_cell_volume   5821.82948032
_cell_formula_units_Z   2
loop_
 _symmetry_equiv_pos_site_id
 _symmetry_equiv_pos_as_xyz
  1  'x, y, z'
loop_
 _atom_site_type_symbol
 _atom_site_label
 _atom_site_symmetry_multiplicity
 _atom_site_fract_x
 _atom_site_fract_y
 _atom_site_fract_z
 _atom_site_occupancy
  Na  Na0  1  0.14273873  0.36553239  0.08094075  1
  Na  Na1  1  0.13925397  0.36189539  0.42330753  1
  Na  Na2  1  0.15042985  0.37383951  0.76929003  1
  Na  Na3  1  0.13116301  0.85732431  0.08000081  1
  Na  Na4  1  0.11907677  0.86103318  0.40230240  1
  Na  Na5  1  0.13296029  0.86498982  0.74684603  1
  Na  Na6  1  0.62745212  0.36093657  0.07766318  1
  Na  Na7  1  0.64445481  0.36444309  0.42123794  1
  Na  Na8  1  0.63776434  0.36626736  0.75240936  1
  Na  Na9  1  0.63024684  0.87551284  0.08741969  1
  Na  Na10  1  0.63358448  0.86218351  0.41566260  1
  Na  Na11  1  0.62985266  0.86682664  0.74926318  1
  Na  Na12  1  0.37391359  0.12780365  0.24940933  1
  Na  Na13  1  0.37259844  0.12922593  0.58220792  1
  Na  Na14  1  0.36140505  0.13653150  0.91903217  1
  Na  Na15  1  0.34292000  0.62405262  0.22651612  1
  Na  Na16  1  0.36058653  0.63026192  0.58256578  1
  Na  Na17  1  0.35288972  0.63560494  0.91860963  1
  Na  Na18  1  0.87010398  0.15347492  0.26658941  1
  Na  Na19  1  0.84896576  0.12625828  0.55695940  1
  Na  Na20  1  0.86187552  0.13677929  0.92000202  1
  Na  Na21  1  0.86555976  0.63719594  0.24751801  1
  Na  Na22  1  0.86700919  0.63263219  0.58080466  1
  Na  Na23  1  0.87734281  0.64281224  0.93099501  1
  Na  Na24  1  0.98881715  0.50160083  0.74708066  1
  Na  Na25  1  1.02719460  0.62195949  0.14392261  1
  Na  Na26  1  0.99295594  0.02176390  0.72736854  1
  Na  Na27  1  1.00481016  -0.01938344  0.09832680  1
  Na  Na28  1  1.00091314  0.49423880  0.41712166  1
  Na  Na29  1  0.49335208  0.04724977  0.75718948  1
  Na  Na30  1  0.45530832  0.50160955  0.74777580  1
  Na  Na31  1  0.49168567  0.50447811  0.41185009  1
  Na  Na32  1  0.53799202  -0.01241507  0.36810650  1
  Na  Na33  1  0.50010954  0.48874163  0.58813914  1
  Na  Na34  1  0.01131334  0.44746231  0.57237779  1
  Na  Na35  1  0.49394881  0.51114116  0.22280802  1
  Na  Na36  1  0.00712677  0.99417998  0.91307327  1
  Na  Na37  1  -0.00180714  0.49881490  0.24585938  1
  Na  Na38  1  0.07308120  0.50338384  0.94452974  1
  Na  Na39  1  0.49711769  1.00762976  0.92670695  1
  Na  Na40  1  0.45878514  0.51606871  0.97966154  1
  Na  Na41  1  -0.00031158  0.95821745  0.25909109  1
  Na  Na42  1  0.75639666  0.24953043  0.65309516  1
  Na  Na43  1  0.26468076  0.26684719  0.66898276  1
  Na  Na44  1  0.75556169  0.75692061  0.32573014  1
  Na  Na45  1  0.75215151  0.75328131  0.66314634  1
  Na  Na46  1  0.23830468  0.74870105  0.32040461  1
  Na  Na47  1  0.75679534  0.76083259  -0.00503302  1
  Na  Na48  1  0.74999952  0.24116371  0.34878930  1
  Na  Na49  1  0.73337549  0.23812779  0.01500447  1
  Na  Na50  1  0.25549376  0.25402112  0.32930711  1
  Na  Na51  1  0.24615067  0.74447955  0.66971013  1
  Na  Na52  1  0.24822833  0.75366832  0.49349319  1
  Na  Na53  1  0.25168503  0.25100250  0.84600423  1
  Na  Na54  1  0.26104656  0.25527191  0.50014974  1
  Na  Na55  1  0.24263049  0.74437257  0.84117834  1
  Na  Na56  1  0.75308058  0.75455085  0.49312805  1
  Na  Na57  1  0.75224059  0.75070706  0.83238478  1
  Na  Na58  1  0.73505495  0.24022453  0.84214321  1
  Na  Na59  1  0.25909278  0.25345181  0.15427677  1
  Na  Na60  1  0.76138539  0.76375414  0.15817865  1
  Na  Na61  1  0.25146860  0.75155875  0.14427422  1
  Fe  Fe62  1  0.46196060  0.80830347  0.45485200  1
  Fe  Fe63  1  0.46453608  0.81202968  0.78872036  1
  Fe  Fe64  1  0.46683534  0.30534501  0.45351847  1
  Fe  Fe65  1  0.96498826  0.80617453  0.78334920  1
  Fe  Fe66  1  0.46774442  0.30044133  0.11643439  1
  Fe  Fe67  1  0.96329613  0.30811426  0.78622301  1
  Fe  Fe68  1  0.96440321  0.80793443  0.45289458  1
  Fe  Fe69  1  0.96492365  0.30840740  0.11850338  1
  Fe  Fe70  1  0.47245882  0.30397888  0.79629248  1
  Fe  Fe71  1  0.46357831  0.81017390  0.11981329  1
  Fe  Fe72  1  0.69479696  0.53471162  0.71427613  1
  Fe  Fe73  1  0.69030999  0.53185027  0.37724086  1
  Fe  Fe74  1  0.69348682  0.03972296  0.05442529  1
  Fe  Fe75  1  0.19458796  0.53097918  0.38178535  1
  Fe  Fe76  1  0.20782839  0.52252736  0.70964214  1
  Fe  Fe77  1  0.19333164  0.03525641  0.37956944  1
  Fe  Fe78  1  0.68849826  0.53389207  0.04422558  1
  Fe  Fe79  1  0.19348053  0.03503659  0.04782841  1
  Fe  Fe80  1  0.18690576  0.03859597  0.70995798  1
  Fe  Fe81  1  0.68610158  0.03510583  0.71318310  1
  Fe  Fe82  1  0.53962202  0.18812916  0.54457356  1
  Fe  Fe83  1  0.53339164  0.69488896  0.88178657  1
  Fe  Fe84  1  0.03842770  0.69169847  0.87757537  1
  Fe  Fe85  1  0.03288839  0.19252381  0.88151307  1
  Fe  Fe86  1  0.53567126  0.69275384  0.21266907  1
  Fe  Fe87  1  0.03049957  0.19442033  0.21567764  1
  Fe  Fe88  1  0.03229931  0.19567675  0.54053157  1
  Fe  Fe89  1  0.53270594  0.69383796  0.54845639  1
  Fe  Fe90  1  0.54027710  0.18550604  0.21523462  1
  Fe  Fe91  1  0.03517065  0.69169535  0.54450436  1
  Fe  Fe92  1  0.30964937  0.96324938  0.95607978  1
  Fe  Fe93  1  0.30983462  0.45912701  0.28044233  1
  Fe  Fe94  1  0.80861876  0.96716541  0.95791464  1
  Fe  Fe95  1  0.30358302  0.96833912  0.61909010  1
  Fe  Fe96  1  0.81450649  0.46914598  0.95508183  1
  Fe  Fe97  1  0.80813550  0.46094746  0.28253123  1
  Fe  Fe98  1  0.79993981  0.97303628  0.29941163  1
  Fe  Fe99  1  0.30666171  0.96332836  0.28397341  1
  Fe  Fe100  1  0.80887525  0.46200272  0.61379194  1
  Fe  Fe101  1  0.80042387  0.96615651  0.61849389  1
  S  S102  1  0.36098189  0.13610002  0.08421147  1
  S  S103  1  0.36130028  0.13739036  0.41568961  1
  S  S104  1  0.35559075  0.13992942  0.74984440  1
  S  S105  1  0.36443744  0.64291023  0.08766064  1
  S  S106  1  0.36064861  0.63966064  0.41842862  1
  S  S107  1  0.36205310  0.64505298  0.75030518  1
  S  S108  1  0.85923927  0.14268628  0.08392908  1
  S  S109  1  0.86437108  0.14114819  0.41628823  1
  S  S110  1  0.85786903  0.13980971  0.75158031  1
  S  S111  1  0.84960489  0.64258356  0.08266126  1
  S  S112  1  0.85733042  0.63905812  0.41487734  1
  S  S113  1  0.85886245  0.63959401  0.74536422  1
  S  S114  1  0.14102276  0.35524280  0.25048156  1
  S  S115  1  0.14458928  0.35224728  0.58519169  1
  S  S116  1  0.13719793  0.35375240  0.91302340  1
  S  S117  1  0.13912711  0.86422247  0.24795180  1
  S  S118  1  0.13983596  0.86032181  0.58285610  1
  S  S119  1  0.13781579  0.86383074  0.91275002  1
  S  S120  1  0.64270632  0.35751043  0.25151268  1
  S  S121  1  0.64145930  0.36194632  0.58332988  1
  S  S122  1  0.64923481  0.36281420  0.91580206  1
  S  S123  1  0.63661310  0.85864838  0.25068557  1
  S  S124  1  0.63820046  0.85631354  0.58468757  1
  S  S125  1  0.64019082  0.86078990  0.91804848  1
  S  S126  1  0.06495734  0.16559960  0.04240185  1
  S  S127  1  0.07466326  0.16911469  0.37597955  1
  S  S128  1  0.06682109  0.17584179  0.70729064  1
  S  S129  1  0.06504543  0.67728430  0.03857476  1
  S  S130  1  0.06337436  0.66462275  0.37507668  1
  S  S131  1  0.06524099  0.66723193  0.70446077  1
  S  S132  1  0.56165553  0.16447270  0.04209087  1
  S  S133  1  0.57160948  0.17673033  0.38008493  1
  S  S134  1  0.56724383  0.17102729  0.70866331  1
  S  S135  1  0.56947125  0.67505457  0.04349552  1
  S  S136  1  0.56380760  0.66641632  0.37516676  1
  S  S137  1  0.56748032  0.67074709  0.70976171  1
  S  S138  1  0.33530395  0.42615983  0.12807554  1
  S  S139  1  0.33655879  0.43439091  0.45857563  1
  S  S140  1  0.34024283  0.43517990  0.79819285  1
  S  S141  1  0.32545361  0.92977345  0.12225636  1
  S  S142  1  0.32291223  0.92775592  0.45411123  1
  S  S143  1  0.32663265  0.93388387  0.78987075  1
  S  S144  1  0.82861775  0.43226144  0.12196605  1
  S  S145  1  0.83289967  0.44019039  0.45532301  1
  S  S146  1  0.83099731  0.43542650  0.78773820  1
  S  S147  1  0.82843498  0.93850946  0.12909947  1
  S  S148  1  0.82468290  0.92666104  0.45828962  1
  S  S149  1  0.82910402  0.93308921  0.79129088  1
  S  S150  1  0.43631561  0.32631313  0.29191090  1
  S  S151  1  0.44315807  0.32673957  0.62570767  1
  S  S152  1  0.43638303  0.32127448  0.95599920  1
  S  S153  1  0.43049126  0.82693127  0.29104701  1
  S  S154  1  0.42867920  0.83048660  0.62485512  1
  S  S155  1  0.43381655  0.83284539  0.95613742  1
  S  S156  1  0.94081724  0.33981035  0.29309391  1
  S  S157  1  0.93372857  0.32764881  0.62477434  1
  S  S158  1  0.92893547  0.32665146  0.95490734  1
  S  S159  1  0.92097005  0.83395867  0.29289449  1
  S  S160  1  0.92999928  0.82996899  0.62309637  1
  S  S161  1  0.93459889  0.83492755  0.95424978  1
  S  S162  1  0.17003660  0.06979953  0.20864308  1
  S  S163  1  0.17414547  0.07620414  0.54516255  1
  S  S164  1  0.16370774  0.06556185  0.87024542  1
  S  S165  1  0.17157847  0.55304474  0.21591199  1
  S  S166  1  0.16812671  0.56534433  0.54291177  1
  S  S167  1  0.16884390  0.57105394  0.86648527  1
  S  S168  1  0.67605821  0.06728882  0.21518436  1
  S  S169  1  0.66534143  0.05980757  0.54327749  1
  S  S170  1  0.66801721  0.05986855  0.87816103  1
  S  S171  1  0.67145872  0.56663371  0.21025158  1
  S  S172  1  0.66583282  0.56722978  0.54157059  1
  S  S173  1  0.66824210  0.57289231  0.87281804  1
  O  O174  1  0.36931959  0.21457469  0.07697004  1
  O  O175  1  0.36867636  0.21683118  0.40756195  1
  O  O176  1  0.36879405  0.21926714  0.74457498  1
  O  O177  1  0.37409510  0.72657762  0.08788588  1
  O  O178  1  0.36584433  0.71935727  0.41095651  1
  O  O179  1  0.37031690  0.72624578  0.74514140  1
  O  O180  1  0.87104441  0.21892157  0.07122333  1
  O  O181  1  0.87779819  0.21139818  0.39795384  1
  O  O182  1  0.86553250  0.21893173  0.74407560  1
  O  O183  1  0.85204936  0.71845905  0.07102416  1
  O  O184  1  0.86608536  0.71889124  0.40873579  1
  O  O185  1  0.86792352  0.71741684  0.73452526  1
  O  O186  1  0.28187166  0.12667126  0.09347965  1
  O  O187  1  0.28297676  0.12885695  0.42578510  1
  O  O188  1  0.27345791  0.13212722  0.75218103  1
  O  O189  1  0.29142698  0.63167612  0.10258901  1
  O  O190  1  0.28295659  0.62848287  0.42846949  1
  O  O191  1  0.28016990  0.63316186  0.75048129  1
  O  O192  1  0.77804353  0.13611813  0.08559696  1
  O  O193  1  0.79181410  0.13482219  0.43243813  1
  O  O194  1  0.78075566  0.12903448  0.76249964  1
  O  O195  1  0.77006724  0.62719340  0.09005998  1
  O  O196  1  0.77861075  0.63035801  0.42432361  1
  O  O197  1  0.77856542  0.63264911  0.75121149  1
  O  O198  1  0.12856993  0.27708035  0.25947106  1
  O  O199  1  0.12637859  0.27320972  0.59367374  1
  O  O200  1  0.12513533  0.27056549  0.91252454  1
  O  O201  1  0.12384436  0.78665130  0.25269534  1
  O  O202  1  0.13109262  0.78281720  0.59486759  1
  O  O203  1  0.12804059  0.78403026  0.91576364  1
  O  O204  1  0.63378290  0.27997718  0.26161137  1
  O  O205  1  0.63465063  0.28308557  0.59083207  1
  O  O206  1  0.65139434  0.28522842  0.92406411  1
  O  O207  1  0.63164097  0.77661594  0.25505965  1
  O  O208  1  0.62851904  0.77726670  0.59403608  1
  O  O209  1  0.63046970  0.78127934  0.92468989  1
  O  O210  1  0.22157611  0.35991662  0.24538744  1
  O  O211  1  0.22480265  0.35447556  0.58332862  1
  O  O212  1  0.20946963  0.36414776  0.89714833  1
  O  O213  1  0.22227212  0.87100601  0.24489434  1
  O  O214  1  0.22047492  0.86889494  0.57787363  1
  O  O215  1  0.21615675  0.87414901  0.90338013  1
  O  O216  1  0.72150840  0.36878111  0.24506242  1
  O  O217  1  0.71883329  0.37369377  0.57355265  1
  O  O218  1  0.72470923  0.38257327  0.90332648  1
  O  O219  1  0.71785563  0.87116723  0.24584605  1
  O  O220  1  0.71884612  0.86312409  0.57936611  1
  O  O221  1  0.72080950  0.86821702  0.91219291  1
  O  O222  1  0.42036564  0.12703067  0.15089603  1
  O  O223  1  0.42111846  0.12962223  0.48244734  1
  O  O224  1  0.41019782  0.12534756  0.81477713  1
  O  O225  1  0.42950197  0.63081064  0.15264583  1
  O  O226  1  0.42086226  0.63377679  0.48773752  1
  O  O227  1  0.41619779  0.64042219  0.82288392  1
  O  O228  1  0.91429967  0.13817125  0.15561591  1
  O  O229  1  0.93028365  0.13465379  0.48382834  1
  O  O230  1  0.91935177  0.13095327  0.81836557  1
  O  O231  1  0.90816861  0.63802272  0.15079468  1
  O  O232  1  0.91718103  0.63133621  0.48259642  1
  O  O233  1  0.91632671  0.63338391  0.81419283  1
  O  O234  1  0.36441638  0.07655058  0.01418525  1
  O  O235  1  0.36639280  0.07859467  0.34629070  1
  O  O236  1  0.36362855  0.08166475  0.67951979  1
  O  O237  1  0.37017983  0.59111687  0.01710157  1
  O  O238  1  0.37261422  0.58139309  0.35263049  1
  O  O239  1  0.37873701  0.58857045  0.68737427  1
  O  O240  1  0.87213025  0.08039601  0.01974750  1
  O  O241  1  0.86890588  0.07213142  0.35045095  1
  O  O242  1  0.86571018  0.08047096  0.68322768  1
  O  O243  1  0.86016592  0.58217521  0.01498467  1
  O  O244  1  0.86454152  0.58087909  0.34639290  1
  O  O245  1  0.86826452  0.57877464  0.67872580  1
  O  O246  1  0.08440758  0.36267656  0.18097843  1
  O  O247  1  0.08874916  0.36285300  0.51823725  1
  O  O248  1  0.07164298  0.36799521  0.84943240  1
  O  O249  1  0.08595959  0.88333133  0.18458539  1
  O  O250  1  0.08329319  0.86288239  0.51189522  1
  O  O251  1  0.07779541  0.87590478  0.84653720  1
  O  O252  1  0.58361647  0.36505619  0.18345550  1
  O  O253  1  0.58023863  0.37282587  0.51791544  1
  O  O254  1  0.58656531  0.36724184  0.84867413  1
  O  O255  1  0.58015748  0.86404486  0.18028049  1
  O  O256  1  0.58147219  0.86035191  0.51443262  1
  O  O257  1  0.58305950  0.86810450  0.84848049  1
  O  O258  1  0.13287439  0.41590277  0.31752786  1
  O  O259  1  0.13571031  0.41187182  0.65366074  1
  O  O260  1  0.13230108  0.40705132  0.98350169  1
  O  O261  1  0.13394336  0.92389980  0.31960575  1
  O  O262  1  0.12980052  0.92134038  0.64848574  1
  O  O263  1  0.13037458  0.92141086  0.98206552  1
  O  O264  1  0.63289087  0.41763087  0.31939841  1
  O  O265  1  0.63386421  0.42040618  0.65271619  1
  O  O266  1  0.63976119  0.42042934  0.98464278  1
  O  O267  1  0.62517784  0.91276740  0.31715245  1
  O  O268  1  0.62941313  0.91517780  0.65165593  1
  O  O269  1  0.63065863  0.91958515  0.98478713  1
  O  O270  1  0.02919932  0.19497099  0.10370515  1
  O  O271  1  0.04609513  0.19172337  0.44141723  1
  O  O272  1  0.02207957  0.19847586  0.76235543  1
  O  O273  1  0.02271419  0.71568707  0.08911271  1
  O  O274  1  0.03147870  0.70021806  0.44017319  1
  O  O275  1  0.02881275  0.69981798  0.76572148  1
  O  O276  1  0.53457769  0.19892446  0.11032386  1
  O  O277  1  0.53144027  0.20880872  0.44014819  1
  O  O278  1  0.52993702  0.19946363  0.76745113  1
  O  O279  1  0.53355741  0.70572954  0.10432752  1
  O  O280  1  0.52839586  0.69749698  0.43676012  1
  O  O281  1  0.53254631  0.70069961  0.77139405  1
  O  O282  1  0.30870115  0.45659330  0.06707689  1
  O  O283  1  0.30364264  0.46402031  0.39272060  1
  O  O284  1  0.31258817  0.46969004  0.73548324  1
  O  O285  1  0.29394580  0.96637736  0.06062213  1
  O  O286  1  0.29792634  0.96756035  0.39545201  1
  O  O287  1  0.29701208  0.97077016  0.72952629  1
  O  O288  1  0.80077801  0.46875651  0.06135368  1
  O  O289  1  0.79538746  0.47421524  0.39306779  1
  O  O290  1  0.80126178  0.47325551  0.72690906  1
  O  O291  1  0.79490012  0.97835578  0.07016162  1
  O  O292  1  0.79662405  0.96245331  0.39801454  1
  O  O293  1  0.79714705  0.96654247  0.72873095  1
  O  O294  1  0.47135013  0.29554680  0.23091943  1
  O  O295  1  0.47692132  0.29044555  0.56237595  1
  O  O296  1  0.47805623  0.29791241  0.89926023  1
  O  O297  1  0.47177325  0.80051487  0.23388649  1
  O  O298  1  0.46724175  0.80219857  0.56496049  1
  O  O299  1  0.47303869  0.80226957  0.89652080  1
  O  O300  1  0.96804190  0.30231973  0.22523256  1
  O  O301  1  0.97022795  0.29669141  0.56504104  1
  O  O302  1  0.96517042  0.29399882  0.89391724  1
  O  O303  1  0.95436058  0.82379441  0.23323042  1
  O  O304  1  0.96699072  0.80176226  0.56275927  1
  O  O305  1  0.96498482  0.80211388  0.88856848  1
  O  O306  1  0.20222864  0.03488243  0.27005631  1
  O  O307  1  0.19872207  0.03331751  0.60220453  1
  O  O308  1  0.19419094  0.03204489  0.93285519  1
  O  O309  1  0.21467927  0.52355779  0.28193444  1
  O  O310  1  0.19113110  0.52993440  0.60291865  1
  O  O311  1  0.18883837  0.54029540  0.92844818  1
  O  O312  1  0.70469350  0.02691169  0.27290987  1
  O  O313  1  0.69668980  0.02611237  0.60846511  1
  O  O314  1  0.70594755  0.02518155  0.93964927  1
  O  O315  1  0.70184519  0.52786430  0.26970420  1
  O  O316  1  0.69789565  0.53294215  0.60326559  1
  O  O317  1  0.69562254  0.54050875  0.93574641  1
  O  O318  1  0.08236124  0.08291318  0.03617285  1
  O  O319  1  0.08778326  0.08491524  0.35682010  1
  O  O320  1  0.08301616  0.09300771  0.70026373  1
  O  O321  1  0.08335865  0.60030931  0.04719068  1
  O  O322  1  0.08584844  0.58520233  0.37805300  1
  O  O323  1  0.07763734  0.58475937  0.69572825  1
  O  O324  1  0.59087458  0.08741315  0.04541802  1
  O  O325  1  0.59428004  0.10113917  0.38314729  1
  O  O326  1  0.58654568  0.08989392  0.70845002  1
  O  O327  1  0.58695880  0.59387955  0.03967813  1
  O  O328  1  0.58009804  0.58386796  0.37058759  1
  O  O329  1  0.58595714  0.58892586  0.70252202  1
  O  O330  1  0.41652258  0.40106502  0.13747954  1
  O  O331  1  0.41844646  0.41413535  0.45967910  1
  O  O332  1  0.41775458  0.40668694  0.79445232  1
  O  O333  1  0.40411965  0.90914995  0.12269032  1
  O  O334  1  0.40177773  0.90453049  0.45854841  1
  O  O335  1  0.40950346  0.91825831  0.79700990  1
  O  O336  1  0.91032959  0.41318435  0.12832331  1
  O  O337  1  0.91561331  0.43572435  0.46119496  1
  O  O338  1  0.91241887  0.41853277  0.79123588  1
  O  O339  1  0.90997581  0.92948679  0.13307843  1
  O  O340  1  0.90483631  0.90597004  0.46709881  1
  O  O341  1  0.91071652  0.91519067  0.79484496  1
  O  O342  1  0.41753539  0.40804841  0.29730391  1
  O  O343  1  0.43395279  0.40839151  0.62864189  1
  O  O344  1  0.41436230  0.39980305  0.96574552  1
  O  O345  1  0.41278480  0.90875848  0.29722627  1
  O  O346  1  0.40941675  0.91122340  0.63170683  1
  O  O347  1  0.41635199  0.91368473  0.95690711  1
  O  O348  1  0.91942009  0.42065227  0.28987436  1
  O  O349  1  0.91524742  0.40971062  0.62417746  1
  O  O350  1  0.91260280  0.40708829  0.95740574  1
  O  O351  1  0.89483534  0.91505244  0.31153379  1
  O  O352  1  0.90898706  0.91054270  0.63037408  1
  O  O353  1  0.91190078  0.91545201  0.95456516  1
  O  O354  1  0.08858612  0.08820941  0.20420886  1
  O  O355  1  0.09726248  0.10355527  0.54588910  1
  O  O356  1  0.08013822  0.08086104  0.86468189  1
  O  O357  1  0.09198617  0.56086859  0.22069161  1
  O  O358  1  0.08499040  0.58374294  0.53077060  1
  O  O359  1  0.08298138  0.58554425  0.84781655  1
  O  O360  1  0.59717254  0.08829011  0.21489299  1
  O  O361  1  0.58775786  0.08583205  0.54421651  1
  O  O362  1  0.58639718  0.06716574  0.87473377  1
  O  O363  1  0.59194367  0.58742126  0.21070744  1
  O  O364  1  0.58299683  0.58267751  0.53690978  1
  O  O365  1  0.58566913  0.59020963  0.86221747  1
  O  O366  1  0.13544220  0.21677770  0.05714639  1
  O  O367  1  0.14741692  0.21967912  0.39222108  1
  O  O368  1  0.13930610  0.22806814  0.73184803  1
  O  O369  1  0.13620052  0.72577349  0.04730896  1
  O  O370  1  0.13327016  0.71682110  0.38702944  1
  O  O371  1  0.13820122  0.71839663  0.72276214  1
  O  O372  1  0.62465208  0.21895107  0.04618240  1
  O  O373  1  0.63788639  0.23332612  0.39401288  1
  O  O374  1  0.63977614  0.22146570  0.72385688  1
  O  O375  1  0.63946458  0.72738085  0.05715917  1
  O  O376  1  0.63609818  0.71668300  0.39091828  1
  O  O377  1  0.63848335  0.72312914  0.72499878  1
  O  O378  1  0.28218408  0.36159744  0.12593051  1
  O  O379  1  0.28632556  0.36270510  0.44593554  1
  O  O380  1  0.28420091  0.36760158  0.78440526  1
  O  O381  1  0.27074693  0.86257867  0.10914756  1
  O  O382  1  0.26577173  0.85892495  0.43564417  1
  O  O383  1  0.27567169  0.86132829  0.77203662  1
  O  O384  1  0.77539774  0.36304584  0.10706569  1
  O  O385  1  0.78833341  0.36567843  0.44085461  1
  O  O386  1  0.77952548  0.36317055  0.76871825  1
  O  O387  1  0.77806823  0.86399503  0.10609226  1
  O  O388  1  0.77001724  0.85593406  0.44157592  1
  O  O389  1  0.77832645  0.86111745  0.77704311  1
  O  O390  1  0.36492055  0.27452906  0.27697350  1
  O  O391  1  0.36878013  0.27875411  0.60864372  1
  O  O392  1  0.36786849  0.26400745  0.93558221  1
  O  O393  1  0.35918980  0.77394846  0.27173497  1
  O  O394  1  0.35841357  0.77574748  0.60644272  1
  O  O395  1  0.36232920  0.78148200  0.93830664  1
  O  O396  1  0.87267649  0.29198211  0.28775464  1
  O  O397  1  0.86335882  0.27821382  0.61346073  1
  O  O398  1  0.85736477  0.27506622  0.93921169  1
  O  O399  1  0.85299281  0.77524089  0.27389064  1
  O  O400  1  0.86008064  0.77520696  0.60630268  1
  O  O401  1  0.86450913  0.78254124  0.94174379  1
  O  O402  1  0.22215924  0.13974637  0.22174372  1
  O  O403  1  0.23365144  0.14239262  0.56367723  1
  O  O404  1  0.21354021  0.13542242  0.88192410  1
  O  O405  1  0.21363026  0.63009470  0.23053571  1
  O  O406  1  0.22039272  0.63716351  0.56010305  1
  O  O407  1  0.21751531  0.64351834  0.88013685  1
  O  O408  1  0.73058737  0.13647510  0.23187082  1
  O  O409  1  0.72137006  0.12681998  0.55772569  1
  O  O410  1  0.71511873  0.13468862  0.89471348  1
  O  O411  1  0.72444032  0.63704890  0.22705460  1
  O  O412  1  0.71530963  0.63949510  0.55574735  1
  O  O413  1  0.72055006  0.64375364  0.88653816  1
  O  O414  1  0.49473290  0.31880728  0.02901462  1
  O  O415  1  0.49571267  0.33166529  0.36522364  1
  O  O416  1  0.49928804  0.32504799  0.69797221  1
  O  O417  1  0.49132791  0.83589174  0.02917878  1
  O  O418  1  0.48839210  0.82916303  0.36491104  1
  O  O419  1  0.48817055  0.83110485  0.69699383  1
  O  O420  1  0.98801550  0.32798061  0.02734585  1
  O  O421  1  1.00730556  0.35370848  0.36169755  1
  O  O422  1  0.99320078  0.33866448  0.69994494  1
  O  O423  1  0.99681429  0.84482100  0.02430391  1
  O  O424  1  0.98213693  0.83008915  0.36303260  1
  O  O425  1  0.99012162  0.83229652  0.69547864  1
  O  O426  1  0.16451628  0.00861393  0.13562602  1
  O  O427  1  0.16606814  0.01755358  0.47103675  1
  O  O428  1  0.15856860  0.00464354  0.79682026  1
  O  O429  1  0.17297463  0.49602560  0.14667074  1
  O  O430  1  0.17030894  0.50604159  0.47127100  1
  O  O431  1  0.17360508  0.51025034  0.79592416  1
  O  O432  1  0.66937558  0.00934950  0.14019857  1
  O  O433  1  0.65518358  -0.00376210  0.47343405  1
  O  O434  1  0.67010548  0.00425671  0.80454785  1
  O  O435  1  0.66551394  0.50851131  0.13646263  1
  O  O436  1  0.66272590  0.50788312  0.46888336  1
  O  O437  1  0.66937466  0.51122361  0.80236155  1
  O  O438  1  0.01261608  0.17880797  0.31002276  1
  O  O439  1  0.01292967  0.17723178  0.63335818  1
  O  O440  1  0.00467109  0.16136201  0.96935870  1
  O  O441  1  0.00113369  0.65488515  0.30460435  1
  O  O442  1  0.00721393  0.67162453  0.63323913  1
  O  O443  1  0.01047723  0.66144947  0.95735539  1
  O  O444  1  0.51033659  0.17009242  0.30619254  1
  O  O445  1  0.51042580  0.16502467  0.63407216  1
  O  O446  1  0.49398414  0.14604343  0.97400104  1
  O  O447  1  0.50541171  0.66341246  0.30244080  1
  O  O448  1  0.50716490  0.66866731  0.63781288  1
  O  O449  1  0.50873693  0.67052312  0.97074744  1
  O  O450  1  0.34778439  0.49160503  0.20388048  1
  O  O451  1  0.34412005  0.49616051  0.52868709  1
  O  O452  1  0.35314336  0.49717113  0.87001257  1
  O  O453  1  0.33145331  0.99127848  0.19507382  1
  O  O454  1  0.32604623  0.98667951  0.52711690  1
  O  O455  1  0.32691829  0.99139817  0.86253139  1
  O  O456  1  0.83221480  0.49317254  0.19471344  1
  O  O457  1  0.82827989  0.49745453  0.52750259  1
  O  O458  1  0.83217989  0.49368086  0.85988787  1
  O  O459  1  0.82594479  0.98938523  0.20395148  1
  O  O460  1  0.82413917  0.98654806  0.52986169  1
  O  O461  1  0.83253697  0.99330582  0.86332547  1
