# generated using pymatgen
data_Na31Fe20(SO4)36
_symmetry_space_group_name_H-M   'P 1'
_cell_length_a   18.08573065
_cell_length_b   18.07564166
_cell_length_c   19.71731802
_cell_angle_alpha   107.55979543
_cell_angle_beta   107.59564470
_cell_angle_gamma   90.72140139
_symmetry_Int_Tables_number   1
_chemical_formula_structural   Na31Fe20(SO4)36
_chemical_formula_sum   'Na62 Fe40 S72 O288'
_cell_volume   5819.59962299
_cell_formula_units_Z   2
loop_
 _symmetry_equiv_pos_site_id
 _symmetry_equiv_pos_as_xyz
  1  'x, y, z'
loop_
 _atom_site_type_symbol
 _atom_site_label
 _atom_site_symmetry_multiplicity
 _atom_site_fract_x
 _atom_site_fract_y
 _atom_site_fract_z
 _atom_site_occupancy
  Na  Na0  1  0.13550022  0.37807466  0.08071155  1
  Na  Na1  1  0.13152327  0.36592476  0.41269665  1
  Na  Na2  1  0.13648392  0.37093699  0.74932480  1
  Na  Na3  1  0.13394097  0.86711853  0.08721128  1
  Na  Na4  1  0.12712612  0.85746777  0.41026563  1
  Na  Na5  1  0.12728176  0.85286577  0.73435604  1
  Na  Na6  1  0.63538648  0.36119774  0.07998114  1
  Na  Na7  1  0.65028626  0.36931525  0.42995196  1
  Na  Na8  1  0.66937610  0.37396139  0.78297375  1
  Na  Na9  1  0.62893141  0.86133554  0.07188261  1
  Na  Na10  1  0.61945242  0.87339420  0.41015024  1
  Na  Na11  1  0.63812247  0.85732302  0.74376310  1
  Na  Na12  1  0.37209962  0.12764880  0.25060471  1
  Na  Na13  1  0.36748854  0.13049508  0.58159396  1
  Na  Na14  1  0.37226793  0.13521841  0.92433883  1
  Na  Na15  1  0.36621813  0.62751246  0.24387483  1
  Na  Na16  1  0.37458515  0.62877295  0.59096968  1
  Na  Na17  1  0.36480926  0.63611039  0.91735870  1
  Na  Na18  1  0.86330229  0.14419726  0.25145528  1
  Na  Na19  1  0.86076079  0.13497213  0.57682883  1
  Na  Na20  1  0.83863489  0.15499323  0.90926431  1
  Na  Na21  1  0.86384385  0.63629752  0.25609016  1
  Na  Na22  1  0.86923461  0.64857332  0.59257705  1
  Na  Na23  1  0.87087512  0.62783895  0.92076772  1
  Na  Na24  1  0.99666638  0.51142194  0.75328163  1
  Na  Na25  1  0.48592539  0.00695331  0.10562364  1
  Na  Na26  1  0.49038182  0.49690045  0.43607843  1
  Na  Na27  1  0.49330944  0.49477670  0.06749512  1
  Na  Na28  1  0.49405662  0.00255590  0.74575696  1
  Na  Na29  1  0.97241164  0.54790145  0.42450167  1
  Na  Na30  1  0.98835713  -0.11272096  0.49648005  1
  Na  Na31  1  0.99591199  0.02010005  0.73916675  1
  Na  Na32  1  0.98679825  0.01112317  0.08937391  1
  Na  Na33  1  0.00599889  0.99658818  0.91325443  1
  Na  Na34  1  0.50757333  0.97915380  0.91858213  1
  Na  Na35  1  0.51310330  0.99348885  0.56609738  1
  Na  Na36  1  0.51800703  0.45514217  0.24061456  1
  Na  Na37  1  0.48925407  0.54239275  0.84933605  1
  Na  Na38  1  -0.00993965  0.50222127  0.23617657  1
  Na  Na39  1  0.03857798  0.49564314  0.59471995  1
  Na  Na40  1  0.00134979  0.98337906  0.26977710  1
  Na  Na41  1  0.02331955  0.49238480  0.94437048  1
  Na  Na42  1  0.22909660  0.71878784  0.67465700  1
  Na  Na43  1  0.74673811  0.25399399  0.34077793  1
  Na  Na44  1  0.74886405  0.75110809  0.34060565  1
  Na  Na45  1  0.73649332  0.74115496  0.00049830  1
  Na  Na46  1  0.23452102  0.72828537  0.00743391  1
  Na  Na47  1  0.25468887  0.25171209  0.66086752  1
  Na  Na48  1  0.24140361  0.73842782  0.34042841  1
  Na  Na49  1  0.26456703  0.26079435  -0.00297639  1
  Na  Na50  1  0.75580671  0.25831013  0.66537020  1
  Na  Na51  1  0.25964061  0.25431735  0.32737621  1
  Na  Na52  1  0.23828812  0.73386060  0.83997374  1
  Na  Na53  1  0.23435689  0.73157865  0.51143240  1
  Na  Na54  1  0.23817523  0.73345718  0.17175588  1
  Na  Na55  1  0.74809424  0.74846003  0.83214534  1
  Na  Na56  1  0.74333520  0.74325650  0.16987282  1
  Na  Na57  1  0.25824478  0.25499505  0.83011206  1
  Na  Na58  1  0.76276560  0.27099165  0.15926344  1
  Na  Na59  1  0.25067515  0.25213139  0.49397190  1
  Na  Na60  1  0.26550951  0.25931383  0.15761399  1
  Na  Na61  1  0.75350441  0.74881221  0.50763815  1
  Fe  Fe62  1  0.95723183  0.81116792  0.12019541  1
  Fe  Fe63  1  0.96385199  0.31192839  0.11283089  1
  Fe  Fe64  1  0.46878395  0.80237175  0.11611426  1
  Fe  Fe65  1  0.47045464  0.79556450  0.78375641  1
  Fe  Fe66  1  0.95899318  0.81136891  0.78117085  1
  Fe  Fe67  1  0.96437295  0.30955486  0.44980866  1
  Fe  Fe68  1  0.46787338  0.31154625  0.46121671  1
  Fe  Fe69  1  0.46579326  0.79969495  0.44852150  1
  Fe  Fe70  1  0.96562157  0.30629563  0.78439960  1
  Fe  Fe71  1  0.46406762  0.31388086  0.79129509  1
  Fe  Fe72  1  0.18985018  0.53143344  0.37538658  1
  Fe  Fe73  1  0.19438997  0.03199835  0.05082884  1
  Fe  Fe74  1  0.68053008  0.04510243  0.37645246  1
  Fe  Fe75  1  0.70557692  0.52783786  0.37598209  1
  Fe  Fe76  1  0.69065153  0.03661395  0.71563728  1
  Fe  Fe77  1  0.69175125  0.04138353  0.04765743  1
  Fe  Fe78  1  0.69347151  0.53487704  0.71427089  1
  Fe  Fe79  1  0.19525416  0.03139487  0.71103774  1
  Fe  Fe80  1  0.19661198  0.03404572  0.38395991  1
  Fe  Fe81  1  0.70236603  0.52727920  0.03938778  1
  Fe  Fe82  1  0.53636031  0.19628122  0.55047203  1
  Fe  Fe83  1  0.53726533  0.68854508  0.21053202  1
  Fe  Fe84  1  0.53063198  0.20254004  0.21380060  1
  Fe  Fe85  1  0.03192626  0.69520992  0.88237415  1
  Fe  Fe86  1  0.03139624  0.18535771  0.54200731  1
  Fe  Fe87  1  0.03027661  0.69299985  0.21331120  1
  Fe  Fe88  1  0.53554586  0.19595096  0.88443932  1
  Fe  Fe89  1  0.03575231  0.19375215  0.21398057  1
  Fe  Fe90  1  0.03485947  0.19108843  0.88145114  1
  Fe  Fe91  1  0.54149529  0.68832536  0.54650509  1
  Fe  Fe92  1  0.31105115  0.96205436  0.28700081  1
  Fe  Fe93  1  0.29536565  0.46979833  0.95521733  1
  Fe  Fe94  1  0.30607738  0.96177087  0.95150946  1
  Fe  Fe95  1  0.80202259  0.96761746  0.61452735  1
  Fe  Fe96  1  0.81188860  0.46514257  0.61928800  1
  Fe  Fe97  1  0.30009378  0.46632306  0.62510450  1
  Fe  Fe98  1  0.80353225  0.97237931  0.94863979  1
  Fe  Fe99  1  0.30440097  0.46653460  0.28140762  1
  Fe  Fe100  1  0.31260235  0.96320504  0.61899805  1
  Fe  Fe101  1  0.80393084  0.96797580  0.28856413  1
  S  S102  1  0.35831146  0.13587635  0.08612289  1
  S  S103  1  0.36175125  0.13952171  0.41758651  1
  S  S104  1  0.36372789  0.13740511  0.74901797  1
  S  S105  1  0.36175951  0.64145765  0.08003577  1
  S  S106  1  0.36059376  0.63666862  0.41860309  1
  S  S107  1  0.35562806  0.63926725  0.74837077  1
  S  S108  1  0.86084603  0.14274319  0.08389869  1
  S  S109  1  0.85670617  0.14337184  0.41201155  1
  S  S110  1  0.85944456  0.13882488  0.74916424  1
  S  S111  1  0.85831966  0.64540152  0.08698248  1
  S  S112  1  0.85236051  0.65362754  0.42474881  1
  S  S113  1  0.85880623  0.64423040  0.75181178  1
  S  S114  1  0.14357266  0.35437729  0.24393312  1
  S  S115  1  0.13821222  0.35069373  0.58089712  1
  S  S116  1  0.13971685  0.35100937  0.91253263  1
  S  S117  1  0.13815383  0.86153731  0.24985504  1
  S  S118  1  0.15723505  0.85447913  0.58868791  1
  S  S119  1  0.13790151  0.86212962  0.91783046  1
  S  S120  1  0.64860538  0.35567722  0.25433881  1
  S  S121  1  0.64345412  0.36228733  0.58707075  1
  S  S122  1  0.63755875  0.36022324  0.91773360  1
  S  S123  1  0.63627736  0.86182764  0.24790645  1
  S  S124  1  0.63785559  0.86084419  0.58018536  1
  S  S125  1  0.64071341  0.86488538  0.91534614  1
  S  S126  1  0.06853097  0.16228334  0.04150624  1
  S  S127  1  0.06764957  0.16571430  0.37295672  1
  S  S128  1  0.06954594  0.16544083  0.70688544  1
  S  S129  1  0.06151355  0.67942662  0.04803139  1
  S  S130  1  0.06881113  0.66298317  0.37352415  1
  S  S131  1  0.05563178  0.67567743  0.71422572  1
  S  S132  1  0.56618149  0.16685487  0.04400384  1
  S  S133  1  0.56637929  0.18017013  0.37867584  1
  S  S134  1  0.56738332  0.16809015  0.70807839  1
  S  S135  1  0.57103958  0.66428747  0.03921222  1
  S  S136  1  0.56881308  0.66575224  0.37347048  1
  S  S137  1  0.57184329  0.66925932  0.70709306  1
  S  S138  1  0.33484467  0.43749758  0.12324885  1
  S  S139  1  0.32536621  0.43024073  0.45872001  1
  S  S140  1  0.32493576  0.43089524  0.79136364  1
  S  S141  1  0.32847183  0.92481520  0.12208018  1
  S  S142  1  0.33046596  0.92853339  0.45519039  1
  S  S143  1  0.33441503  0.93045747  0.79079919  1
  S  S144  1  0.83142496  0.43878779  0.12542203  1
  S  S145  1  0.84190267  0.43835759  0.46394848  1
  S  S146  1  0.84684281  0.43771375  0.79088612  1
  S  S147  1  0.82652837  0.93869357  0.12460870  1
  S  S148  1  0.80861782  0.93809532  0.44596275  1
  S  S149  1  0.82637435  0.93820257  0.79252457  1
  S  S150  1  0.43327031  0.33417396  0.29754799  1
  S  S151  1  0.42357960  0.32584067  0.62297435  1
  S  S152  1  0.42850916  0.33000899  0.95624358  1
  S  S153  1  0.42772287  0.82222870  0.28552554  1
  S  S154  1  0.43588467  0.82514067  0.62033570  1
  S  S155  1  0.43124918  0.83470606  0.95647442  1
  S  S156  1  0.94354556  0.33342273  0.28840026  1
  S  S157  1  0.93507332  0.32654604  0.62284402  1
  S  S158  1  0.94260167  0.32956709  0.95561671  1
  S  S159  1  0.93044976  0.83305331  0.29193077  1
  S  S160  1  0.93484280  0.84706236  0.63089570  1
  S  S161  1  0.93127696  0.84140095  0.96049358  1
  S  S162  1  0.17169139  0.06620252  0.21233396  1
  S  S163  1  0.17414049  0.06615227  0.54259729  1
  S  S164  1  0.17270976  0.06519519  0.87510139  1
  S  S165  1  0.16853701  0.56718993  0.20839593  1
  S  S166  1  0.16612153  0.55584206  0.53647361  1
  S  S167  1  0.16136554  0.56405969  0.87456183  1
  S  S168  1  0.66803637  0.07192534  0.20902978  1
  S  S169  1  0.66766414  0.07065720  0.54376512  1
  S  S170  1  0.66008786  0.06700996  0.87100697  1
  S  S171  1  0.66832234  0.56723079  0.20423762  1
  S  S172  1  0.67758708  0.56836134  0.54148363  1
  S  S173  1  0.68186971  0.57356832  0.88032901  1
  O  O174  1  0.36194963  0.21343071  0.07876919  1
  O  O175  1  0.36865348  0.21939561  0.41071785  1
  O  O176  1  0.37200397  0.21428885  0.73734291  1
  O  O177  1  0.37758150  0.71668861  0.06510698  1
  O  O178  1  0.36884182  0.71663510  0.41206465  1
  O  O179  1  0.37369027  0.71401435  0.73338599  1
  O  O180  1  0.87177329  0.22250941  0.08067034  1
  O  O181  1  0.87220358  0.21992584  0.40009809  1
  O  O182  1  0.86945054  0.21813773  0.74261327  1
  O  O183  1  0.85975103  0.72850700  0.08419486  1
  O  O184  1  0.85615232  0.73716786  0.43100272  1
  O  O185  1  0.86571815  0.72401255  0.74592795  1
  O  O186  1  0.28173028  0.12154700  0.09903918  1
  O  O187  1  0.28360196  0.12966558  0.42821896  1
  O  O188  1  0.28419229  0.12854407  0.75604279  1
  O  O189  1  0.28380323  0.64121706  0.08760678  1
  O  O190  1  0.28277757  0.62779960  0.42858130  1
  O  O191  1  0.27511686  0.63862884  0.75052830  1
  O  O192  1  0.78372415  0.13355081  0.09552441  1
  O  O193  1  0.77701389  0.13957151  0.41723608  1
  O  O194  1  0.78215481  0.12829187  0.75899943  1
  O  O195  1  0.77669426  0.62970307  0.09086470  1
  O  O196  1  0.76739401  0.63292791  0.41969253  1
  O  O197  1  0.77926789  0.63062690  0.75639823  1
  O  O198  1  0.13720738  0.27407618  0.25046079  1
  O  O199  1  0.12964400  0.26947204  0.58547005  1
  O  O200  1  0.13521602  0.27100468  0.92150801  1
  O  O201  1  0.13011555  0.78202676  0.25708133  1
  O  O202  1  0.14951529  0.78102136  0.60398279  1
  O  O203  1  0.13001387  0.78364384  0.92698297  1
  O  O204  1  0.62833157  0.27913319  0.26517626  1
  O  O205  1  0.63110210  0.28168969  0.59117736  1
  O  O206  1  0.61970719  0.28697352  0.93344307  1
  O  O207  1  0.62823651  0.78342825  0.25842252  1
  O  O208  1  0.62954641  0.78217457  0.58695811  1
  O  O209  1  0.63590582  0.79020502  0.92814083  1
  O  O210  1  0.22363146  0.36566350  0.23795408  1
  O  O211  1  0.22058482  0.36111246  0.57965985  1
  O  O212  1  0.22093271  0.36307761  0.90977605  1
  O  O213  1  0.21563640  0.87032550  0.23887866  1
  O  O214  1  0.24012469  0.86687406  0.58788761  1
  O  O215  1  0.21554220  0.86993597  0.90670053  1
  O  O216  1  0.72959902  0.35807553  0.25597605  1
  O  O217  1  0.71987317  0.36991749  0.57440241  1
  O  O218  1  0.71169818  0.36328505  0.90510569  1
  O  O219  1  0.71677347  0.87095948  0.24257977  1
  O  O220  1  0.71543787  0.87153003  0.57074570  1
  O  O221  1  0.71878748  0.87889966  0.90577981  1
  O  O222  1  0.42056888  0.12750240  0.15285228  1
  O  O223  1  0.42235301  0.13123251  0.48412333  1
  O  O224  1  0.42219918  0.13041841  0.81781953  1
  O  O225  1  0.42033570  0.63481854  0.14920704  1
  O  O226  1  0.42192272  0.62601148  0.48398860  1
  O  O227  1  0.41047067  0.63346908  0.81793343  1
  O  O228  1  0.92193211  0.12782691  0.14809041  1
  O  O229  1  0.91360120  0.13702714  0.48202799  1
  O  O230  1  0.92059740  0.12717090  0.81461117  1
  O  O231  1  0.91364911  0.64261743  0.15933616  1
  O  O232  1  0.90453751  0.63779815  0.49089496  1
  O  O233  1  0.91644536  0.63766127  0.82187263  1
  O  O234  1  0.36496318  0.07580168  0.01758148  1
  O  O235  1  0.36534402  0.08130685  0.34751828  1
  O  O236  1  0.37387713  0.07578894  0.68275269  1
  O  O237  1  0.36906197  0.57753061  0.01436780  1
  O  O238  1  0.36650633  0.57942742  0.34876618  1
  O  O239  1  0.36278817  0.57473664  0.68172210  1
  O  O240  1  0.86493747  0.08556403  0.01282692  1
  O  O241  1  0.86580095  0.08139374  0.34594168  1
  O  O242  1  0.86592461  0.08126491  0.67912823  1
  O  O243  1  0.87311765  0.59250263  0.02275403  1
  O  O244  1  0.86692283  0.60424580  0.35637534  1
  O  O245  1  0.87212332  0.58638141  0.68602948  1
  O  O246  1  0.08575224  0.36208674  0.17567273  1
  O  O247  1  0.08450784  0.35627869  0.50871875  1
  O  O248  1  0.08516602  0.35191721  0.83910181  1
  O  O249  1  0.07674525  0.87306808  0.18503610  1
  O  O250  1  0.10605113  0.85416048  0.51528863  1
  O  O251  1  0.07707441  0.87377389  0.85330109  1
  O  O252  1  0.59386578  0.36445125  0.18580762  1
  O  O253  1  0.58137044  0.37486538  0.52297397  1
  O  O254  1  0.57473299  0.36854758  0.85094767  1
  O  O255  1  0.58024308  0.86396809  0.17531435  1
  O  O256  1  0.57671917  0.87037609  0.51298203  1
  O  O257  1  0.58011284  0.86932886  0.84580562  1
  O  O258  1  0.13519591  0.41114169  0.31223301  1
  O  O259  1  0.12332265  0.40775581  0.64415747  1
  O  O260  1  0.12393218  0.40916497  0.97433897  1
  O  O261  1  0.13250881  0.91996213  0.31975974  1
  O  O262  1  0.14226164  0.91906567  0.65035643  1
  O  O263  1  0.13272934  0.92106595  0.98789360  1
  O  O264  1  0.63788555  0.41808504  0.32161936  1
  O  O265  1  0.64234814  0.41803546  0.65950122  1
  O  O266  1  0.63294233  0.42559823  0.98606299  1
  O  O267  1  0.62271907  0.92199943  0.31107342  1
  O  O268  1  0.62935027  0.92015532  0.64826346  1
  O  O269  1  0.63025211  0.92833927  0.98075082  1
  O  O270  1  0.03180718  0.19440810  0.10116417  1
  O  O271  1  0.03160739  0.19397582  0.43361104  1
  O  O272  1  0.03063298  0.19193774  0.76606918  1
  O  O273  1  0.02336409  0.71304161  0.10827744  1
  O  O274  1  0.03899095  0.67864734  0.43594504  1
  O  O275  1  0.02541077  0.71337764  0.78116143  1
  O  O276  1  0.52835171  0.18575737  0.10248734  1
  O  O277  1  0.52938214  0.20855647  0.44012198  1
  O  O278  1  0.53525100  0.19739798  0.77166134  1
  O  O279  1  0.53877325  0.69566106  0.10427954  1
  O  O280  1  0.52885279  0.69440882  0.43312457  1
  O  O281  1  0.53303090  0.69801978  0.76454058  1
  O  O282  1  0.29669990  0.46910674  0.06219972  1
  O  O283  1  0.29744782  0.46616629  0.39714838  1
  O  O284  1  0.29776011  0.46238788  0.72832169  1
  O  O285  1  0.29699173  0.96107615  0.06087504  1
  O  O286  1  0.30193486  0.96681886  0.39509224  1
  O  O287  1  0.30492596  0.97150961  0.73344921  1
  O  O288  1  0.79629019  0.47045725  0.06145624  1
  O  O289  1  0.81475648  0.47648982  0.40611109  1
  O  O290  1  0.81278555  0.46974407  0.72601835  1
  O  O291  1  0.79928024  0.97420372  0.06267964  1
  O  O292  1  0.77556968  0.98201909  0.39026177  1
  O  O293  1  0.79319309  0.96766445  0.72701442  1
  O  O294  1  0.46926143  0.30720583  0.23786370  1
  O  O295  1  0.46589001  0.29964250  0.56562797  1
  O  O296  1  0.45569702  0.29567927  0.88820289  1
  O  O297  1  0.46611707  0.79490175  0.22602116  1
  O  O298  1  0.47322328  0.79580639  0.55991867  1
  O  O299  1  0.46430128  0.81842834  0.89473038  1
  O  O300  1  0.98005440  0.29711575  0.22676422  1
  O  O301  1  0.96805198  0.29644500  0.55883781  1
  O  O302  1  0.97508108  0.28956090  0.89064443  1
  O  O303  1  0.96856582  0.80375634  0.23084067  1
  O  O304  1  0.97590378  0.82810005  0.57641882  1
  O  O305  1  0.96738281  0.80900412  0.90042270  1
  O  O306  1  0.20078956  0.03102572  0.27415839  1
  O  O307  1  0.20715641  0.03004559  0.60365355  1
  O  O308  1  0.20076237  0.03051436  0.93762365  1
  O  O309  1  0.20149549  0.53134065  0.27186115  1
  O  O310  1  0.19811122  0.51453985  0.59262125  1
  O  O311  1  0.19442968  0.53033481  0.93583882  1
  O  O312  1  0.69660164  0.03263315  0.26801981  1
  O  O313  1  0.69720863  0.03002282  0.60236718  1
  O  O314  1  0.69839276  0.03846496  0.93633143  1
  O  O315  1  0.68791308  0.52942555  0.26248775  1
  O  O316  1  0.70477616  0.53202837  0.60311621  1
  O  O317  1  0.70402250  0.53578091  0.94098507  1
  O  O318  1  0.08365510  0.07922883  0.03932470  1
  O  O319  1  0.08892811  0.08498132  0.36827916  1
  O  O320  1  0.08982517  0.08452525  0.70404923  1
  O  O321  1  0.07677544  0.60032636  0.04474968  1
  O  O322  1  0.08516805  0.57798781  0.35109974  1
  O  O323  1  0.06153319  0.59300016  0.70897650  1
  O  O324  1  0.58239299  0.08203715  0.02809586  1
  O  O325  1  0.58305328  0.09869525  0.37394777  1
  O  O326  1  0.58049933  0.08294667  0.69929655  1
  O  O327  1  0.60177061  0.58783795  0.04196345  1
  O  O328  1  0.58812000  0.58549359  0.36940767  1
  O  O329  1  0.59344103  0.58990112  0.70389710  1
  O  O330  1  0.41789433  0.43111549  0.13055590  1
  O  O331  1  0.40722423  0.41293399  0.46460113  1
  O  O332  1  0.40933935  0.41865667  0.80469554  1
  O  O333  1  0.40959500  0.90781098  0.12529795  1
  O  O334  1  0.41039203  0.90677307  0.45891601  1
  O  O335  1  0.41587324  0.91335437  0.79250388  1
  O  O336  1  0.90767176  0.40909158  0.11792883  1
  O  O337  1  0.92524751  0.42102649  0.47074420  1
  O  O338  1  0.92837147  0.41752859  0.79056057  1
  O  O339  1  0.91015663  0.92280007  0.13262425  1
  O  O340  1  0.88010111  0.91286847  0.43264175  1
  O  O341  1  0.90931137  0.92318673  0.79972038  1
  O  O342  1  0.41331313  0.41625296  0.30312349  1
  O  O343  1  0.39602861  0.40220364  0.62209839  1
  O  O344  1  0.39798929  0.40604960  0.95437617  1
  O  O345  1  0.40686422  0.90198697  0.29040480  1
  O  O346  1  0.41997792  0.90811247  0.62525227  1
  O  O347  1  0.41665175  0.92034154  0.97655188  1
  O  O348  1  0.93871203  0.41589732  0.29588613  1
  O  O349  1  0.92123243  0.40998701  0.63132688  1
  O  O350  1  0.93802410  0.41052202  0.95898691  1
  O  O351  1  0.90482749  0.91105552  0.28682601  1
  O  O352  1  0.90900433  0.92836463  0.63901959  1
  O  O353  1  0.91627525  0.92461682  0.96334528  1
  O  O354  1  0.08990719  0.08512612  0.20597118  1
  O  O355  1  0.09499715  0.08610699  0.54059298  1
  O  O356  1  0.08976018  0.08185904  0.86799622  1
  O  O357  1  0.09044136  0.59155290  0.21084484  1
  O  O358  1  0.08589842  0.56967154  0.53486901  1
  O  O359  1  0.08307656  0.59085672  0.88059265  1
  O  O360  1  0.58810576  0.09300559  0.20631943  1
  O  O361  1  0.58761709  0.08997452  0.54450403  1
  O  O362  1  0.57683115  0.07844812  0.86836035  1
  O  O363  1  0.58269172  0.58013364  0.18633336  1
  O  O364  1  0.59376296  0.58316971  0.53138838  1
  O  O365  1  0.60482371  0.59906843  0.87150607  1
  O  O366  1  0.14122869  0.21054634  0.05568246  1
  O  O367  1  0.13744542  0.21890417  0.38687082  1
  O  O368  1  0.14042902  0.21830524  0.72386037  1
  O  O369  1  0.13413984  0.73211656  0.06676978  1
  O  O370  1  0.14222164  0.71459994  0.39068149  1
  O  O371  1  0.13364960  0.71987047  0.73443412  1
  O  O372  1  0.63840495  0.21802515  0.06429452  1
  O  O373  1  0.63713599  0.23173001  0.39543197  1
  O  O374  1  0.63860035  0.21545505  0.71886534  1
  O  O375  1  0.63676870  0.72271872  0.05207850  1
  O  O376  1  0.63684031  0.72278100  0.39208197  1
  O  O377  1  0.64086761  0.72404888  0.72205818  1
  O  O378  1  0.28987661  0.36160385  0.11006348  1
  O  O379  1  0.27380112  0.35720521  0.43990953  1
  O  O380  1  0.27713976  0.35539081  0.77369331  1
  O  O381  1  0.27698246  0.85380375  0.10739414  1
  O  O382  1  0.27509357  0.86040804  0.43953973  1
  O  O383  1  0.28236894  0.85989980  0.77474368  1
  O  O384  1  0.77707855  0.37432799  0.11962423  1
  O  O385  1  0.79143580  0.36604578  0.44740472  1
  O  O386  1  0.79705436  0.36569435  0.77626339  1
  O  O387  1  0.77544029  0.86683272  0.10741368  1
  O  O388  1  0.75113463  0.87218512  0.43252973  1
  O  O389  1  0.77856416  0.86814901  0.78426920  1
  O  O390  1  0.36229367  0.28073370  0.28109909  1
  O  O391  1  0.35632656  0.26618569  0.60267361  1
  O  O392  1  0.36363352  0.27218227  0.94709580  1
  O  O393  1  0.35819058  0.76763332  0.26980833  1
  O  O394  1  0.36531223  0.77297724  0.60318277  1
  O  O395  1  0.35872895  0.78380538  0.93781445  1
  O  O396  1  0.86859413  0.28552731  0.26881769  1
  O  O397  1  0.86362167  0.27725081  0.60949521  1
  O  O398  1  0.86947712  0.28465900  0.94317741  1
  O  O399  1  0.86130570  0.77824320  0.27601838  1
  O  O400  1  0.86679503  0.79157930  0.61522889  1
  O  O401  1  0.85894540  0.79323341  0.94716781  1
  O  O402  1  0.22464095  0.13589150  0.22691312  1
  O  O403  1  0.22772120  0.13586422  0.55646649  1
  O  O404  1  0.22446896  0.13633736  0.89107544  1
  O  O405  1  0.22377320  0.63798698  0.22703777  1
  O  O406  1  0.21856695  0.62838518  0.55625889  1
  O  O407  1  0.21482119  0.63443843  0.88734095  1
  O  O408  1  0.72297009  0.14113906  0.22597869  1
  O  O409  1  0.72118995  0.14067544  0.56199577  1
  O  O410  1  0.70314848  0.13859518  0.87725362  1
  O  O411  1  0.71703350  0.64288276  0.22687682  1
  O  O412  1  0.72694864  0.64086955  0.55914642  1
  O  O413  1  0.74108668  0.64115080  0.89919469  1
  O  O414  1  0.49495204  0.34313606  0.02429134  1
  O  O415  1  0.49130363  0.34057158  0.37260272  1
  O  O416  1  0.48070987  0.33188865  0.69685102  1
  O  O417  1  0.49144729  0.82724269  0.02473138  1
  O  O418  1  0.48683105  0.82435920  0.35841384  1
  O  O419  1  0.49437260  0.82912763  0.69381784  1
  O  O420  1  1.00300560  0.32320013  0.02571730  1
  O  O421  1  0.99768262  0.32535438  0.36008749  1
  O  O422  1  0.99685174  0.32475970  0.69262836  1
  O  O423  1  0.98937231  0.84732260  0.03529448  1
  O  O424  1  0.99016860  0.84379327  0.36431388  1
  O  O425  1  0.99243970  0.85512530  0.70815696  1
  O  O426  1  0.16843040  0.00499375  0.14056613  1
  O  O427  1  0.17070029  0.00570390  0.47009035  1
  O  O428  1  0.17163877  0.00523393  0.80360219  1
  O  O429  1  0.16296923  0.50869000  0.13795397  1
  O  O430  1  0.16433306  0.50260637  0.46027468  1
  O  O431  1  0.14552460  0.50540867  0.80050383  1
  O  O432  1  0.66287578  0.01257220  0.13515725  1
  O  O433  1  0.66073945  0.01415991  0.46914686  1
  O  O434  1  0.65595515  0.00288205  0.79978012  1
  O  O435  1  0.67798115  0.51231988  0.13379110  1
  O  O436  1  0.67860188  0.50840140  0.47049231  1
  O  O437  1  0.68470037  0.51245245  0.81006464  1
  O  O438  1  0.00737755  0.16075153  0.29979343  1
  O  O439  1  0.01073439  0.16168556  0.63375815  1
  O  O440  1  0.01001435  0.15507998  0.96696991  1
  O  O441  1  0.00932002  0.67186807  0.30468203  1
  O  O442  1  0.00084979  0.68560192  0.64742327  1
  O  O443  1  0.00490657  0.68347512  0.97601086  1
  O  O444  1  0.50662829  0.17809710  0.30646162  1
  O  O445  1  0.50488201  0.16637895  0.63683082  1
  O  O446  1  0.50810869  0.17089753  0.97256311  1
  O  O447  1  0.51017023  0.66314291  0.29993779  1
  O  O448  1  0.51353975  0.66353342  0.63141734  1
  O  O449  1  0.50715378  0.65138239  0.96908548  1
  O  O450  1  0.33112951  0.49357936  0.19658104  1
  O  O451  1  0.32471264  0.48722806  0.53073843  1
  O  O452  1  0.31756378  0.48918927  0.86017283  1
  O  O453  1  0.33067819  0.98514753  0.19415810  1
  O  O454  1  0.33680624  0.98952927  0.52834594  1
  O  O455  1  0.34005983  0.98848648  0.86599672  1
  O  O456  1  0.85206555  0.50304113  0.19682108  1
  O  O457  1  0.84467803  0.49465426  0.53902606  1
  O  O458  1  0.85451269  0.49799587  0.86121493  1
  O  O459  1  0.82731157  0.99771693  0.19634720  1
  O  O460  1  0.82313657  0.99460102  0.52319494  1
  O  O461  1  0.82866674  1.00362587  0.86202369  1
