# generated using pymatgen
data_Na31Fe20(SO4)36
_symmetry_space_group_name_H-M   'P 1'
_cell_length_a   18.08040781
_cell_length_b   18.08202922
_cell_length_c   19.72334519
_cell_angle_alpha   107.57860786
_cell_angle_beta   107.58079044
_cell_angle_gamma   90.75652887
_symmetry_Int_Tables_number   1
_chemical_formula_structural   Na31Fe20(SO4)36
_chemical_formula_sum   'Na62 Fe40 S72 O288'
_cell_volume   5821.12261420
_cell_formula_units_Z   2
loop_
 _symmetry_equiv_pos_site_id
 _symmetry_equiv_pos_as_xyz
  1  'x, y, z'
loop_
 _atom_site_type_symbol
 _atom_site_label
 _atom_site_symmetry_multiplicity
 _atom_site_fract_x
 _atom_site_fract_y
 _atom_site_fract_z
 _atom_site_occupancy
  Na  Na0  1  0.12940381  0.36889312  0.08170786  1
  Na  Na1  1  0.13987986  0.36314161  0.42338699  1
  Na  Na2  1  0.13313022  0.36018257  0.74885078  1
  Na  Na3  1  0.12166012  0.86508479  0.07269773  1
  Na  Na4  1  0.13697324  0.85389440  0.41431943  1
  Na  Na5  1  0.12978960  0.85402925  0.74318542  1
  Na  Na6  1  0.63404550  0.36588521  0.08139841  1
  Na  Na7  1  0.64261380  0.36445064  0.42382639  1
  Na  Na8  1  0.63069650  0.36276457  0.73054838  1
  Na  Na9  1  0.63203357  0.85784818  0.07436261  1
  Na  Na10  1  0.63647841  0.86332655  0.41505342  1
  Na  Na11  1  0.65268960  0.87655518  0.76544353  1
  Na  Na12  1  0.35909635  0.13485550  0.25147214  1
  Na  Na13  1  0.36499410  0.14305467  0.58064860  1
  Na  Na14  1  0.36371188  0.13572580  0.91419058  1
  Na  Na15  1  0.37192559  0.63262366  0.25229672  1
  Na  Na16  1  0.37437921  0.63484281  0.58978143  1
  Na  Na17  1  0.36031953  0.63376783  0.91113124  1
  Na  Na18  1  0.86203579  0.12853616  0.24540467  1
  Na  Na19  1  0.85917620  0.13959941  0.58845736  1
  Na  Na20  1  0.84809901  0.11739653  0.89934434  1
  Na  Na21  1  0.87051467  0.63717215  0.25699812  1
  Na  Na22  1  0.87730086  0.64499307  0.60269536  1
  Na  Na23  1  0.86456329  0.64099663  0.90853360  1
  Na  Na24  1  1.00470938  0.56592896  0.76890463  1
  Na  Na25  1  0.50432569  -0.00038255  0.76247984  1
  Na  Na26  1  0.50071970  0.00628748  0.06620123  1
  Na  Na27  1  1.01194215  -0.02105840  0.42054665  1
  Na  Na28  1  1.00086700  -0.01641586  0.76806983  1
  Na  Na29  1  0.50771689  0.48626755  0.43942327  1
  Na  Na30  1  0.46892101  0.02250251  0.43096835  1
  Na  Na31  1  0.99046230  0.51965884  0.41421825  1
  Na  Na32  1  0.49086975  0.50801841  0.09140776  1
  Na  Na33  1  0.56428389  1.00406332  0.61276981  1
  Na  Na34  1  -0.00702344  0.51263154  0.92331427  1
  Na  Na35  1  0.47768849  1.00681773  0.25978059  1
  Na  Na36  1  0.00446872  0.96281989  0.58194721  1
  Na  Na37  1  -0.01080818  0.94606988  0.91816884  1
  Na  Na38  1  0.51404746  0.49447872  0.89548390  1
  Na  Na39  1  0.01428057  0.49638755  0.22667583  1
  Na  Na40  1  0.00696247  0.48578638  0.58402285  1
  Na  Na41  1  0.02061175  0.99416400  0.23112070  1
  Na  Na42  1  0.75478231  0.74303539  0.66788734  1
  Na  Na43  1  0.26207017  0.76368093  0.32873181  1
  Na  Na44  1  0.75382907  0.75824374  -0.01046893  1
  Na  Na45  1  0.76266261  0.75679702  0.33192465  1
  Na  Na46  1  0.74955180  0.24591449  -0.00768259  1
  Na  Na47  1  0.25170041  0.25385266  0.66207338  1
  Na  Na48  1  0.24002424  0.75306823  -0.00833373  1
  Na  Na49  1  0.24185379  0.23690415  0.35192457  1
  Na  Na50  1  0.74232071  0.24197683  0.33914466  1
  Na  Na51  1  0.25644850  0.25848814  -0.01016178  1
  Na  Na52  1  0.24251173  0.24273936  0.17079425  1
  Na  Na53  1  0.74469309  0.24531214  0.81635370  1
  Na  Na54  1  0.75676168  0.74637790  0.50004004  1
  Na  Na55  1  0.76009516  0.75506767  0.16093498  1
  Na  Na56  1  0.72717326  0.24096324  0.52303214  1
  Na  Na57  1  0.25655194  0.76637459  0.16081802  1
  Na  Na58  1  0.25453382  0.75975521  0.82144522  1
  Na  Na59  1  0.24343214  0.74182092  0.51691517  1
  Na  Na60  1  0.76981395  0.76528163  0.83084915  1
  Na  Na61  1  0.75312115  0.25135464  0.16462154  1
  Fe  Fe62  1  0.46711434  0.80942378  0.45485998  1
  Fe  Fe63  1  0.46092074  0.30680491  0.77892782  1
  Fe  Fe64  1  0.46480240  0.80953098  0.11984339  1
  Fe  Fe65  1  0.96337864  0.30589302  0.45155230  1
  Fe  Fe66  1  0.46564077  0.31077179  0.12174804  1
  Fe  Fe67  1  0.96375707  0.80423453  0.11977289  1
  Fe  Fe68  1  0.46344759  0.80782988  0.78448731  1
  Fe  Fe69  1  0.96211379  0.30360846  0.11548005  1
  Fe  Fe70  1  0.47117302  0.30357007  0.46269975  1
  Fe  Fe71  1  0.96731863  0.30567900  0.78410542  1
  Fe  Fe72  1  0.68860711  0.03471543  0.37912017  1
  Fe  Fe73  1  0.19764477  0.53255717  0.38297108  1
  Fe  Fe74  1  0.19181041  0.03517091  0.71348804  1
  Fe  Fe75  1  0.19176130  0.03448842  0.04535968  1
  Fe  Fe76  1  0.69807647  0.02944750  0.04227017  1
  Fe  Fe77  1  0.68962136  0.53410761  0.37904227  1
  Fe  Fe78  1  0.19293746  0.53648842  0.04758101  1
  Fe  Fe79  1  0.69304654  0.53647052  0.04725446  1
  Fe  Fe80  1  0.19482497  0.53572295  0.71523480  1
  Fe  Fe81  1  0.20202517  0.03329040  0.37957694  1
  Fe  Fe82  1  0.03640629  0.69185298  0.21483577  1
  Fe  Fe83  1  0.53814260  0.68540964  0.87231683  1
  Fe  Fe84  1  0.02595420  0.70548133  0.54445923  1
  Fe  Fe85  1  0.53924540  0.69329440  0.55150714  1
  Fe  Fe86  1  0.03511772  0.19213790  0.87911771  1
  Fe  Fe87  1  0.03206643  0.19042524  0.21006723  1
  Fe  Fe88  1  0.53377969  0.19363338  0.21323078  1
  Fe  Fe89  1  0.53091857  0.19577883  0.88145643  1
  Fe  Fe90  1  0.03280598  0.19049448  0.54621971  1
  Fe  Fe91  1  0.53668288  0.69425311  0.21640496  1
  Fe  Fe92  1  0.31077579  0.96726450  0.62223014  1
  Fe  Fe93  1  0.80628899  0.46260502  0.28627448  1
  Fe  Fe94  1  0.81079609  0.96292063  0.29168801  1
  Fe  Fe95  1  0.31070374  0.46431465  0.28720976  1
  Fe  Fe96  1  0.30784928  0.46184656  0.95105604  1
  Fe  Fe97  1  0.30518015  0.96563230  0.94909746  1
  Fe  Fe98  1  0.30731882  0.46509196  0.61767797  1
  Fe  Fe99  1  0.80125052  0.96696517  0.62233347  1
  Fe  Fe100  1  0.80140063  0.46980201  0.62682753  1
  Fe  Fe101  1  0.80481970  0.46548074  0.94653365  1
  S  S102  1  0.35951136  0.14132516  0.08261222  1
  S  S103  1  0.36130171  0.14132113  0.41239625  1
  S  S104  1  0.35425770  0.14223547  0.75173820  1
  S  S105  1  0.36105821  0.64100669  0.08434515  1
  S  S106  1  0.36210273  0.64157230  0.41881117  1
  S  S107  1  0.35997364  0.64051948  0.75117041  1
  S  S108  1  0.85760464  0.14447314  0.08502138  1
  S  S109  1  0.85696128  0.14167944  0.41617170  1
  S  S110  1  0.86721899  0.13597955  0.74856846  1
  S  S111  1  0.86203865  0.63564071  0.08537488  1
  S  S112  1  0.85818550  0.63680088  0.41292050  1
  S  S113  1  0.86013287  0.63913745  0.75044343  1
  S  S114  1  0.13922007  0.35949171  0.24766940  1
  S  S115  1  0.13734395  0.36087808  0.58283356  1
  S  S116  1  0.13937107  0.35991451  0.91920689  1
  S  S117  1  0.13984450  0.85935936  0.25525554  1
  S  S118  1  0.14194216  0.86512737  0.58030948  1
  S  S119  1  0.13946965  0.86338889  0.91313686  1
  S  S120  1  0.64147921  0.35879774  0.25065459  1
  S  S121  1  0.64107358  0.36803525  0.58178503  1
  S  S122  1  0.63754442  0.36361899  0.91737135  1
  S  S123  1  0.64144301  0.85671848  0.24755275  1
  S  S124  1  0.64458450  0.85325222  0.58009783  1
  S  S125  1  0.63448878  0.85871381  0.91666304  1
  S  S126  1  0.06681858  0.17319785  0.04182139  1
  S  S127  1  0.06458399  0.16719347  0.37385106  1
  S  S128  1  0.06930663  0.16781855  0.70369299  1
  S  S129  1  0.06775514  0.66986253  0.04605282  1
  S  S130  1  0.06851917  0.65815649  0.37441206  1
  S  S131  1  0.07459001  0.66763594  0.70241705  1
  S  S132  1  0.56622731  0.17409179  0.04582605  1
  S  S133  1  0.56604726  0.17012356  0.37308054  1
  S  S134  1  0.55424519  0.17091939  0.71369236  1
  S  S135  1  0.56479051  0.66586076  0.04107942  1
  S  S136  1  0.56791233  0.66945830  0.37754456  1
  S  S137  1  0.57244941  0.67679699  0.71414808  1
  S  S138  1  0.33059280  0.43393769  0.12390793  1
  S  S139  1  0.33074525  0.43153086  0.45549032  1
  S  S140  1  0.32662669  0.43304502  0.79050500  1
  S  S141  1  0.33269384  0.93629812  0.12225662  1
  S  S142  1  0.33211886  0.93445657  0.46079661  1
  S  S143  1  0.32940470  0.93355359  0.78999899  1
  S  S144  1  0.82759145  0.43049778  0.12344198  1
  S  S145  1  0.83032433  0.43192623  0.45888849  1
  S  S146  1  0.83613762  0.42689563  0.79197715  1
  S  S147  1  0.82663826  0.93041725  0.12854767  1
  S  S148  1  0.82998410  0.93857672  0.45772244  1
  S  S149  1  0.82978216  0.93191809  0.78528038  1
  S  S150  1  0.43274600  0.32883884  0.29139997  1
  S  S151  1  0.42783269  0.33511677  0.62693725  1
  S  S152  1  0.43396039  0.33426433  0.96180077  1
  S  S153  1  0.43880412  0.83205855  0.29159807  1
  S  S154  1  0.43722061  0.83221225  0.62509748  1
  S  S155  1  0.42792194  0.82774851  0.95618370  1
  S  S156  1  0.93467678  0.33093886  0.29216920  1
  S  S157  1  0.92765594  0.33075548  0.62109657  1
  S  S158  1  0.92743863  0.32668331  0.95393615  1
  S  S159  1  0.93546330  0.82853129  0.29235058  1
  S  S160  1  0.93118672  0.83455898  0.62252689  1
  S  S161  1  0.92740603  0.83473006  0.96686366  1
  S  S162  1  0.16542825  0.06769648  0.20687259  1
  S  S163  1  0.16976900  0.06830436  0.54155829  1
  S  S164  1  0.17203077  0.06984890  0.87689183  1
  S  S165  1  0.17715820  0.56921992  0.21337835  1
  S  S166  1  0.16910151  0.56420093  0.54022025  1
  S  S167  1  0.17014733  0.56108035  0.87975357  1
  S  S168  1  0.66653732  0.06580854  0.20632407  1
  S  S169  1  0.66605875  0.05705901  0.53516739  1
  S  S170  1  0.66007909  0.07085340  0.87788836  1
  S  S171  1  0.67141758  0.56751186  0.20980807  1
  S  S172  1  0.67700326  0.56927390  0.54078792  1
  S  S173  1  0.67303376  0.56435191  0.87742165  1
  O  O174  1  0.36861944  0.22038327  0.07459084  1
  O  O175  1  0.37226500  0.22236372  0.40707579  1
  O  O176  1  0.36154988  0.22171415  0.74493950  1
  O  O177  1  0.36966813  0.72096312  0.07809068  1
  O  O178  1  0.37043686  0.72064257  0.41022281  1
  O  O179  1  0.36736136  0.72013449  0.74522389  1
  O  O180  1  0.86224580  0.22997170  0.08846165  1
  O  O181  1  0.86828213  0.21915123  0.40507708  1
  O  O182  1  0.88282548  0.21159475  0.73655698  1
  O  O183  1  0.86727204  0.71527061  0.07831495  1
  O  O184  1  0.86829179  0.70975978  0.39820195  1
  O  O185  1  0.87325605  0.70680024  0.72728215  1
  O  O186  1  0.28000867  0.13177441  0.08950246  1
  O  O187  1  0.27593781  0.13207896  0.40658784  1
  O  O188  1  0.27601845  0.12959055  0.75915315  1
  O  O189  1  0.28278377  0.63272500  0.09377912  1
  O  O190  1  0.28381344  0.63195075  0.42820577  1
  O  O191  1  0.28417406  0.63066508  0.76626226  1
  O  O192  1  0.78042794  0.13126227  0.09675361  1
  O  O193  1  0.77649613  0.13494881  0.42123182  1
  O  O194  1  0.79638382  0.13411631  0.76852936  1
  O  O195  1  0.78481499  0.62630230  0.09813359  1
  O  O196  1  0.77691079  0.62626005  0.41611232  1
  O  O197  1  0.78228391  0.63391175  0.75817582  1
  O  O198  1  0.13008393  0.27882207  0.25160949  1
  O  O199  1  0.12613681  0.28172613  0.58947601  1
  O  O200  1  0.12685473  0.28257541  0.92999843  1
  O  O201  1  0.12518449  0.78307918  0.26907355  1
  O  O202  1  0.12729101  0.78329826  0.57843117  1
  O  O203  1  0.12878344  0.78733662  0.92198347  1
  O  O204  1  0.63258106  0.27897440  0.25682392  1
  O  O205  1  0.63841315  0.28870693  0.58560390  1
  O  O206  1  0.62801494  0.28635028  0.92839194  1
  O  O207  1  0.63439687  0.77818041  0.25804811  1
  O  O208  1  0.63999030  0.77062374  0.58043426  1
  O  O209  1  0.62029147  0.78177495  0.93002512  1
  O  O210  1  0.21658549  0.36957374  0.23663123  1
  O  O211  1  0.21480339  0.37043171  0.57394196  1
  O  O212  1  0.22021264  0.36626099  0.91603663  1
  O  O213  1  0.21671018  0.86122471  0.24578253  1
  O  O214  1  0.22402256  0.87274225  0.57792884  1
  O  O215  1  0.22188284  0.87234267  0.90799916  1
  O  O216  1  0.72122610  0.36756885  0.24272860  1
  O  O217  1  0.71940366  0.38129820  0.56547663  1
  O  O218  1  0.71636149  0.37038065  0.90864506  1
  O  O219  1  0.72230677  0.86682186  0.24400303  1
  O  O220  1  0.72327364  0.86654765  0.56991845  1
  O  O221  1  0.71049457  0.86152656  0.90549056  1
  O  O222  1  0.41762036  0.13395945  0.15136890  1
  O  O223  1  0.41021565  0.13297373  0.48310652  1
  O  O224  1  0.41397834  0.13459664  0.81962098  1
  O  O225  1  0.42116770  0.63101929  0.15133756  1
  O  O226  1  0.42221158  0.63398740  0.48639156  1
  O  O227  1  0.42232548  0.62975957  0.81623536  1
  O  O228  1  0.91794581  0.13587445  0.15280414  1
  O  O229  1  0.91402880  0.13647253  0.48626091  1
  O  O230  1  0.93414004  0.12023835  0.80778729  1
  O  O231  1  0.92307578  0.62805195  0.15268049  1
  O  O232  1  0.91376858  0.63290368  0.48492119  1
  O  O233  1  0.92043121  0.63374590  0.81768848  1
  O  O234  1  0.36965256  0.08194680  0.01571022  1
  O  O235  1  0.37784437  0.08464731  0.34845340  1
  O  O236  1  0.36344526  0.08419376  0.68349777  1
  O  O237  1  0.36908071  0.58264306  0.01610859  1
  O  O238  1  0.36883554  0.58256220  0.35029660  1
  O  O239  1  0.36134705  0.58298780  0.68020776  1
  O  O240  1  0.86473501  0.09556074  0.01524271  1
  O  O241  1  0.86619081  0.08096993  0.34992750  1
  O  O242  1  0.86269992  0.07452090  0.67521798  1
  O  O243  1  0.86778039  0.57789927  0.01627199  1
  O  O244  1  0.87127194  0.57088872  0.35016505  1
  O  O245  1  0.86931403  0.56779929  0.68426566  1
  O  O246  1  0.07746931  0.37150085  0.18241705  1
  O  O247  1  0.07642013  0.37053462  0.51582814  1
  O  O248  1  0.08319492  0.36538146  0.84867697  1
  O  O249  1  0.07885521  0.86874874  0.18866178  1
  O  O250  1  0.08757386  0.88375057  0.51688773  1
  O  O251  1  0.08430779  0.87784615  0.84800635  1
  O  O252  1  0.58365057  0.36814282  0.18313130  1
  O  O253  1  0.57958258  0.37358462  0.51166745  1
  O  O254  1  0.57740073  0.37374038  0.85147525  1
  O  O255  1  0.58536809  0.85941665  0.17581640  1
  O  O256  1  0.58496663  0.86303673  0.51266623  1
  O  O257  1  0.57311617  0.86852229  0.85118261  1
  O  O258  1  0.13416152  0.41616857  0.31795725  1
  O  O259  1  0.12909675  0.41984602  0.65128150  1
  O  O260  1  0.12856325  0.42134876  0.98469108  1
  O  O261  1  0.13458289  0.92175335  0.32345182  1
  O  O262  1  0.13463583  0.91933660  0.65230250  1
  O  O263  1  0.13377740  0.92492501  0.98347907  1
  O  O264  1  0.63542908  0.41606677  0.31988661  1
  O  O265  1  0.63756305  0.42763544  0.64808410  1
  O  O266  1  0.63096425  0.42378781  0.98631087  1
  O  O267  1  0.62836657  0.91631967  0.31179593  1
  O  O268  1  0.63590802  0.90666796  0.64839197  1
  O  O269  1  0.63044254  0.91966464  0.98615493  1
  O  O270  1  0.02727508  0.20218344  0.10141448  1
  O  O271  1  0.02805087  0.19700228  0.43533792  1
  O  O272  1  0.04244047  0.20334166  0.77022761  1
  O  O273  1  0.03799765  0.70322712  0.11242524  1
  O  O274  1  0.03130845  0.67381163  0.43333857  1
  O  O275  1  0.04415502  0.68810548  0.76454245  1
  O  O276  1  0.53028586  0.20614906  0.10817241  1
  O  O277  1  0.53187661  0.19978700  0.43308444  1
  O  O278  1  0.52249234  0.21240113  0.77929202  1
  O  O279  1  0.52887863  0.69745193  0.10223462  1
  O  O280  1  0.52939532  0.70027874  0.43666737  1
  O  O281  1  0.52928463  0.71004009  0.77173503  1
  O  O282  1  0.29949355  0.47248147  0.06459668  1
  O  O283  1  0.30091838  0.46920514  0.39402250  1
  O  O284  1  0.29814402  0.47067844  0.73036629  1
  O  O285  1  0.30075692  0.96908649  0.05837886  1
  O  O286  1  0.30424534  0.97175918  0.40207234  1
  O  O287  1  0.29792329  0.97085593  0.72957307  1
  O  O288  1  0.79982794  0.46588069  0.06228770  1
  O  O289  1  0.79957736  0.46936201  0.39896212  1
  O  O290  1  0.80844790  0.45281254  0.72488773  1
  O  O291  1  0.79897660  0.96795879  0.07078179  1
  O  O292  1  0.79202609  0.97380564  0.39588930  1
  O  O293  1  0.80100641  0.96158396  0.71811309  1
  O  O294  1  0.47031462  0.30185497  0.23028217  1
  O  O295  1  0.45980218  0.30786578  0.56461971  1
  O  O296  1  0.46704132  0.30351290  0.89940609  1
  O  O297  1  0.47450735  0.79763978  0.22929494  1
  O  O298  1  0.47619907  0.80311819  0.56543579  1
  O  O299  1  0.46035052  0.79803935  0.89364317  1
  O  O300  1  0.97237218  0.30242777  0.23250333  1
  O  O301  1  0.96598624  0.30378397  0.56068745  1
  O  O302  1  0.96432161  0.29457540  0.89343664  1
  O  O303  1  0.96370063  0.79542069  0.22551193  1
  O  O304  1  0.96209436  0.80684999  0.55805874  1
  O  O305  1  0.95739771  0.81237265  0.90359691  1
  O  O306  1  0.18356193  0.02978136  0.26519479  1
  O  O307  1  0.19871801  0.03232425  0.60287275  1
  O  O308  1  0.20364206  0.03420268  0.93812971  1
  O  O309  1  0.20623434  0.53132915  0.27374311  1
  O  O310  1  0.20169249  0.52872635  0.60188449  1
  O  O311  1  0.20939477  0.52416079  0.93980395  1
  O  O312  1  0.69420414  0.02981823  0.26752317  1
  O  O313  1  0.70157081  0.02006651  0.59500068  1
  O  O314  1  0.69278138  0.04646572  0.94517149  1
  O  O315  1  0.69839987  0.52789460  0.26850596  1
  O  O316  1  0.71051941  0.53683027  0.60229538  1
  O  O317  1  0.70581755  0.53393010  0.94502382  1
  O  O318  1  0.08907001  0.09432114  0.03922671  1
  O  O319  1  0.08440019  0.08633051  0.36932315  1
  O  O320  1  0.08321188  0.08475730  0.69857883  1
  O  O321  1  0.09556009  0.59224706  0.04911970  1
  O  O322  1  0.08607502  0.57368452  0.35737219  1
  O  O323  1  0.09028870  0.58147214  0.68717658  1
  O  O324  1  0.58421627  0.09401532  0.04359684  1
  O  O325  1  0.58324405  0.08717854  0.36599472  1
  O  O326  1  0.56773343  0.09263801  0.72039865  1
  O  O327  1  0.57946305  0.58288210  0.03655896  1
  O  O328  1  0.58582319  0.58893441  0.37489823  1
  O  O329  1  0.59182315  0.60086558  0.71638491  1
  O  O330  1  0.41137194  0.41624535  0.12485389  1
  O  O331  1  0.41025347  0.41099401  0.45723215  1
  O  O332  1  0.40719402  0.41206609  0.79554653  1
  O  O333  1  0.41458643  0.91600874  0.12436958  1
  O  O334  1  0.41425262  0.91554951  0.46507812  1
  O  O335  1  0.40932960  0.91422129  0.79009371  1
  O  O336  1  0.90876277  0.40999266  0.13016705  1
  O  O337  1  0.91377475  0.41824652  0.46387937  1
  O  O338  1  0.92024851  0.41146502  0.80399743  1
  O  O339  1  0.90854106  0.91147753  0.13896333  1
  O  O340  1  0.91236683  0.93480799  0.46282336  1
  O  O341  1  0.91312837  0.92206090  0.79727506  1
  O  O342  1  0.41503193  0.41103327  0.29938026  1
  O  O343  1  0.40635225  0.41595048  0.63438164  1
  O  O344  1  0.41656981  0.41692232  0.96649091  1
  O  O345  1  0.42949707  0.91390998  0.29865588  1
  O  O346  1  0.41743886  0.91316037  0.62918952  1
  O  O347  1  0.41027859  0.90987826  0.96364495  1
  O  O348  1  0.91727502  0.41324268  0.29822882  1
  O  O349  1  0.90729014  0.41202862  0.62550575  1
  O  O350  1  0.90880260  0.40704777  0.95591177  1
  O  O351  1  0.91649815  0.91062537  0.29689286  1
  O  O352  1  0.90223242  0.91418989  0.62153045  1
  O  O353  1  0.91245014  0.91657694  0.98627126  1
  O  O354  1  0.08261399  0.08747675  0.19402590  1
  O  O355  1  0.08613912  0.08342298  0.53392714  1
  O  O356  1  0.09073745  0.08731642  0.87314315  1
  O  O357  1  0.09633632  0.58782847  0.20986838  1
  O  O358  1  0.08681275  0.57834151  0.53440601  1
  O  O359  1  0.09035016  0.56990413  0.88171456  1
  O  O360  1  0.58370642  0.08310249  0.19826076  1
  O  O361  1  0.58569646  0.06897390  0.53459177  1
  O  O362  1  0.58007368  0.09605909  0.87709452  1
  O  O363  1  0.59046778  0.58787383  0.20415302  1
  O  O364  1  0.59695755  0.59023856  0.53918113  1
  O  O365  1  0.59271943  0.58564374  0.87898605  1
  O  O366  1  0.13661790  0.22921665  0.06092359  1
  O  O367  1  0.13270697  0.22190720  0.38850631  1
  O  O368  1  0.13896396  0.21514701  0.70974581  1
  O  O369  1  0.13475041  0.72459958  0.05524493  1
  O  O370  1  0.14004862  0.71176501  0.39624492  1
  O  O371  1  0.14629249  0.71662712  0.71464173  1
  O  O372  1  0.63756439  0.22640185  0.06185585  1
  O  O373  1  0.63835944  0.22019498  0.38669722  1
  O  O374  1  0.62677823  0.21907090  0.72687902  1
  O  O375  1  0.63853377  0.71470458  0.05811388  1
  O  O376  1  0.63933893  0.72171139  0.39343150  1
  O  O377  1  0.63982343  0.73465416  0.73019320  1
  O  O378  1  0.27884248  0.36226545  0.10691998  1
  O  O379  1  0.27593493  0.36282416  0.43893969  1
  O  O380  1  0.27218340  0.36448526  0.77491432  1
  O  O381  1  0.28130523  0.86460838  0.10749323  1
  O  O382  1  0.28105368  0.86193011  0.44454919  1
  O  O383  1  0.27698171  0.86448872  0.77670211  1
  O  O384  1  0.77332096  0.36067934  0.10772149  1
  O  O385  1  0.78176525  0.35805355  0.43995332  1
  O  O386  1  0.78599975  0.35838058  0.78390453  1
  O  O387  1  0.77394269  0.85770140  0.11063644  1
  O  O388  1  0.78529264  0.86199810  0.43904665  1
  O  O389  1  0.78175788  0.85603931  0.76528735  1
  O  O390  1  0.36101638  0.27600711  0.27141257  1
  O  O391  1  0.35975570  0.28222011  0.61762777  1
  O  O392  1  0.36442871  0.28408012  0.95129463  1
  O  O393  1  0.36456293  0.78244243  0.27261294  1
  O  O394  1  0.36788686  0.77773448  0.60776290  1
  O  O395  1  0.35676756  0.77628439  0.94287201  1
  O  O396  1  0.86287042  0.27950922  0.27558038  1
  O  O397  1  0.85829484  0.27692653  0.60394966  1
  O  O398  1  0.85684572  0.27423997  0.93945575  1
  O  O399  1  0.86321868  0.77808643  0.27849795  1
  O  O400  1  0.86408955  0.77979419  0.61184554  1
  O  O401  1  0.85655771  0.77970113  0.95182149  1
  O  O402  1  0.21944309  0.13992925  0.22820408  1
  O  O403  1  0.21987361  0.14010975  0.55788568  1
  O  O404  1  0.22360342  0.14048391  0.89217244  1
  O  O405  1  0.22973967  0.64034239  0.23033537  1
  O  O406  1  0.21984975  0.63447173  0.55351663  1
  O  O407  1  0.21785529  0.63505674  0.89573428  1
  O  O408  1  0.71872810  0.13801376  0.22477207  1
  O  O409  1  0.71587359  0.12825205  0.54863775  1
  O  O410  1  0.71219169  0.13869672  0.88406211  1
  O  O411  1  0.72583644  0.63738750  0.22765219  1
  O  O412  1  0.72905424  0.63754919  0.54880719  1
  O  O413  1  0.72360753  0.63605667  0.89235205  1
  O  O414  1  0.49592983  0.34051152  0.03474844  1
  O  O415  1  0.49149217  0.32918174  0.36307687  1
  O  O416  1  0.49159024  0.33926069  0.69834752  1
  O  O417  1  0.48930359  0.82965831  0.02793785  1
  O  O418  1  0.49510421  0.82659758  0.36284484  1
  O  O419  1  0.49584919  0.83791071  0.69885680  1
  O  O420  1  0.98702015  0.33138425  0.02741361  1
  O  O421  1  0.99309086  0.33267180  0.36513874  1
  O  O422  1  0.98842617  0.33338877  0.69284561  1
  O  O423  1  0.98977383  0.82438651  0.03557916  1
  O  O424  1  0.99782578  0.83265163  0.36113584  1
  O  O425  1  0.99485306  0.84920220  0.69333501  1
  O  O426  1  0.16973951  0.01063478  0.13586609  1
  O  O427  1  0.16822106  0.00916814  0.46911833  1
  O  O428  1  0.16737307  0.00967193  0.80397948  1
  O  O429  1  0.17531867  0.50997335  0.14134997  1
  O  O430  1  0.16704075  0.50312269  0.46751551  1
  O  O431  1  0.16783082  0.50623964  0.80462231  1
  O  O432  1  0.66555396  0.00780011  0.13384807  1
  O  O433  1  0.66220967  -0.00094890  0.46013084  1
  O  O434  1  0.64736965  0.00519512  0.80900064  1
  O  O435  1  0.66769781  0.50886680  0.13638763  1
  O  O436  1  0.66626020  0.50633301  0.46668622  1
  O  O437  1  0.66847178  0.50112305  0.81048212  1
  O  O438  1  0.00396439  0.16292286  0.30078623  1
  O  O439  1  0.00404306  0.16504793  0.63387212  1
  O  O440  1  0.00833052  0.17008120  0.96914673  1
  O  O441  1  0.01042426  0.66248931  0.30335044  1
  O  O442  1  0.01344074  0.66952757  0.63091674  1
  O  O443  1  0.00273388  0.65519683  0.97674596  1
  O  O444  1  0.50706249  0.16492869  0.29818526  1
  O  O445  1  0.49454295  0.16619961  0.64334406  1
  O  O446  1  0.50579042  0.17493947  0.97564283  1
  O  O447  1  0.51023536  0.66627745  0.30363421  1
  O  O448  1  0.51325315  0.67400668  0.63958386  1
  O  O449  1  0.50733693  0.66435572  0.96824879  1
  O  O450  1  0.33517573  0.49111059  0.19797729  1
  O  O451  1  0.33355311  0.49206579  0.52713675  1
  O  O452  1  0.33273797  0.49333993  0.86407848  1
  O  O453  1  0.33966834  0.99695167  0.19301357  1
  O  O454  1  0.33499002  0.99214300  0.53457250  1
  O  O455  1  0.33547627  0.99409901  0.86343353  1
  O  O456  1  0.83105073  0.49033974  0.19633430  1
  O  O457  1  0.83118881  0.48830821  0.53239190  1
  O  O458  1  0.83832165  0.49338280  0.86108485  1
  O  O459  1  0.82672190  0.98805005  0.20250155  1
  O  O460  1  0.82370173  0.99269947  0.52973038  1
  O  O461  1  0.81827487  0.98888613  0.85028818  1
