# generated using pymatgen
data_Na31Fe20(SO4)36
_symmetry_space_group_name_H-M   'P 1'
_cell_length_a   18.08366218
_cell_length_b   18.07633810
_cell_length_c   19.72406857
_cell_angle_alpha   107.59125017
_cell_angle_beta   107.56493443
_cell_angle_gamma   90.73366080
_symmetry_Int_Tables_number   1
_chemical_formula_structural   Na31Fe20(SO4)36
_chemical_formula_sum   'Na62 Fe40 S72 O288'
_cell_volume   5820.96496985
_cell_formula_units_Z   2
loop_
 _symmetry_equiv_pos_site_id
 _symmetry_equiv_pos_as_xyz
  1  'x, y, z'
loop_
 _atom_site_type_symbol
 _atom_site_label
 _atom_site_symmetry_multiplicity
 _atom_site_fract_x
 _atom_site_fract_y
 _atom_site_fract_z
 _atom_site_occupancy
  Na  Na0  1  0.13627249  0.35279149  0.07921010  1
  Na  Na1  1  0.13365341  0.37100620  0.42068637  1
  Na  Na2  1  0.13782164  0.37378118  0.75850873  1
  Na  Na3  1  0.14381612  0.86558846  0.08302643  1
  Na  Na4  1  0.13166344  0.87064942  0.42113994  1
  Na  Na5  1  0.12871204  0.87264639  0.75756080  1
  Na  Na6  1  0.62906837  0.35846134  0.07739674  1
  Na  Na7  1  0.64041921  0.36693047  0.42737288  1
  Na  Na8  1  0.63996445  0.35295043  0.74426365  1
  Na  Na9  1  0.63393040  0.86822507  0.08288371  1
  Na  Na10  1  0.63134696  0.86348831  0.41730646  1
  Na  Na11  1  0.63947515  0.86315945  0.74416901  1
  Na  Na12  1  0.33732662  0.12397494  0.21177377  1
  Na  Na13  1  0.36737113  0.13279458  0.58510881  1
  Na  Na14  1  0.36085613  0.15116600  0.92952468  1
  Na  Na15  1  0.36402137  0.62646424  0.24272942  1
  Na  Na16  1  0.37715120  0.64164727  0.58887701  1
  Na  Na17  1  0.36072680  0.63130847  0.91265625  1
  Na  Na18  1  0.86494027  0.13807651  0.25414384  1
  Na  Na19  1  0.84844405  0.16411967  0.59088282  1
  Na  Na20  1  0.85631345  0.12985712  0.90689193  1
  Na  Na21  1  0.86799410  0.63404954  0.25324655  1
  Na  Na22  1  0.87799462  0.63191783  0.59447171  1
  Na  Na23  1  0.87201822  0.62889019  0.91462899  1
  Na  Na24  1  1.02114804  0.49006523  0.04810457  1
  Na  Na25  1  0.99911736  0.51274573  0.75035503  1
  Na  Na26  1  0.49418933  0.02104019  0.39507375  1
  Na  Na27  1  0.97827126  0.00600502  0.74092187  1
  Na  Na28  1  0.43346566  0.49050852  0.05559934  1
  Na  Na29  1  0.49592881  0.54374480  0.43137113  1
  Na  Na30  1  0.45524093  0.00208690  0.08940272  1
  Na  Na31  1  1.02159063  -0.01085714  0.07427432  1
  Na  Na32  1  0.50265941  0.00068950  0.75479278  1
  Na  Na33  1  0.46622607  1.01705230  0.93578686  1
  Na  Na34  1  0.55318278  0.99264793  0.59349758  1
  Na  Na35  1  -0.00124339  0.99902764  0.26461363  1
  Na  Na36  1  0.50594136  0.44224461  0.23058176  1
  Na  Na37  1  0.51498630  0.49773094  0.59767030  1
  Na  Na38  1  0.04359713  0.98428717  0.91363587  1
  Na  Na39  1  -0.02269198  1.05093265  0.53991479  1
  Na  Na40  1  0.49975099  0.49311691  0.90015441  1
  Na  Na41  1  0.00660628  0.48467153  0.25737536  1
  Na  Na42  1  0.25709536  0.25387607  0.32132810  1
  Na  Na43  1  0.25073699  0.74793922  0.33191823  1
  Na  Na44  1  0.24921501  0.75361944  0.66995999  1
  Na  Na45  1  0.74362276  0.74156585  0.33781096  1
  Na  Na46  1  0.74377174  0.24300446  0.34721736  1
  Na  Na47  1  0.76402194  0.75739420  0.66645757  1
  Na  Na48  1  0.24224002  0.22566324  0.02771898  1
  Na  Na49  1  0.26319107  0.76959834  -0.00479287  1
  Na  Na50  1  0.23682117  0.24639503  0.67336482  1
  Na  Na51  1  0.75647875  0.75111190  -0.00265014  1
  Na  Na52  1  0.25080238  0.74874736  0.50103286  1
  Na  Na53  1  0.74864142  0.74681329  0.16660843  1
  Na  Na54  1  0.73831076  0.23453962  0.83712189  1
  Na  Na55  1  0.25460385  0.76554813  0.83574330  1
  Na  Na56  1  0.24308095  0.25287417  0.84503512  1
  Na  Na57  1  0.74057251  0.73986941  0.50598354  1
  Na  Na58  1  0.23640436  0.24355080  0.50637372  1
  Na  Na59  1  0.25820578  0.75737248  0.16364483  1
  Na  Na60  1  0.76580008  0.75815329  0.82656994  1
  Na  Na61  1  0.75704664  0.25626820  0.15743204  1
  Fe  Fe62  1  0.46223752  0.30746164  0.78275808  1
  Fe  Fe63  1  0.96539187  0.80553470  0.12091757  1
  Fe  Fe64  1  0.46837941  0.80815193  0.78909180  1
  Fe  Fe65  1  0.95902663  0.81622050  0.45690398  1
  Fe  Fe66  1  0.47105134  0.79693829  0.45895326  1
  Fe  Fe67  1  0.46843927  0.80728314  0.12398683  1
  Fe  Fe68  1  0.96331588  0.30818620  0.78031626  1
  Fe  Fe69  1  0.96210418  0.30319958  0.11646056  1
  Fe  Fe70  1  0.96981066  0.30438613  0.45883973  1
  Fe  Fe71  1  0.46442482  0.30792923  0.45192594  1
  Fe  Fe72  1  0.69779250  0.53282664  0.71847702  1
  Fe  Fe73  1  0.19636847  0.53328786  0.03952793  1
  Fe  Fe74  1  0.19414461  0.53606985  0.71149199  1
  Fe  Fe75  1  0.18649002  0.03724232  0.71189548  1
  Fe  Fe76  1  0.69668388  0.53091261  0.38340030  1
  Fe  Fe77  1  0.69481791  0.52887442  0.04752203  1
  Fe  Fe78  1  0.68570063  0.03723207  0.37549265  1
  Fe  Fe79  1  0.68772546  0.03624055  0.04356355  1
  Fe  Fe80  1  0.19242533  0.03672493  0.38531114  1
  Fe  Fe81  1  0.19205719  0.53347868  0.37866953  1
  Fe  Fe82  1  0.53568408  0.19486395  0.55005999  1
  Fe  Fe83  1  0.03184352  0.69539588  0.54717294  1
  Fe  Fe84  1  0.03049273  0.19498293  0.87985111  1
  Fe  Fe85  1  0.53099863  0.20072894  0.20929717  1
  Fe  Fe86  1  0.03471292  0.68961128  0.21227126  1
  Fe  Fe87  1  0.53458305  0.19265233  0.88313928  1
  Fe  Fe88  1  0.03318752  0.70416962  0.87703355  1
  Fe  Fe89  1  0.53661275  0.68713930  0.21164803  1
  Fe  Fe90  1  0.03490695  0.18723000  0.21182870  1
  Fe  Fe91  1  0.53928828  0.68815489  0.87947559  1
  Fe  Fe92  1  0.80596512  0.96812936  0.28848203  1
  Fe  Fe93  1  0.31104038  0.46818649  0.61962063  1
  Fe  Fe94  1  0.30859854  0.46047848  0.28392974  1
  Fe  Fe95  1  0.30780440  0.96498698  0.62121745  1
  Fe  Fe96  1  0.80565332  0.96874430  0.94993968  1
  Fe  Fe97  1  0.80733898  0.46256965  0.94961485  1
  Fe  Fe98  1  0.30610480  0.96428837  0.29055285  1
  Fe  Fe99  1  0.81623689  0.46280066  0.29261332  1
  Fe  Fe100  1  0.79569129  0.97198790  0.62071608  1
  Fe  Fe101  1  0.81073500  0.45671734  0.61840212  1
  S  S102  1  0.36923516  0.14057161  0.07721174  1
  S  S103  1  0.35993496  0.14188498  0.41844259  1
  S  S104  1  0.35674565  0.14054380  0.75220325  1
  S  S105  1  0.35960991  0.64301984  0.08201368  1
  S  S106  1  0.35484711  0.63887117  0.41294085  1
  S  S107  1  0.36284629  0.64110753  0.75082335  1
  S  S108  1  0.85773917  0.13879352  0.08606581  1
  S  S109  1  0.85385227  0.13890270  0.41442945  1
  S  S110  1  0.85850507  0.14262553  0.74609913  1
  S  S111  1  0.86030074  0.63748628  0.08442655  1
  S  S112  1  0.85927238  0.64199335  0.41707594  1
  S  S113  1  0.86354756  0.63567088  0.75203470  1
  S  S114  1  0.13913678  0.35781506  0.24966589  1
  S  S115  1  0.14483578  0.36384386  0.58065285  1
  S  S116  1  0.13206639  0.36306620  0.91919640  1
  S  S117  1  0.13874152  0.85834446  0.25304511  1
  S  S118  1  0.13825058  0.86040802  0.58198523  1
  S  S119  1  0.14275943  0.85970743  0.92517463  1
  S  S120  1  0.64906273  0.35740686  0.25396019  1
  S  S121  1  0.63813817  0.36085629  0.58555945  1
  S  S122  1  0.64094863  0.35838342  0.91264247  1
  S  S123  1  0.64276579  0.85594981  0.24971743  1
  S  S124  1  0.64373342  0.85389802  0.58157898  1
  S  S125  1  0.64427979  0.85736348  0.91666231  1
  S  S126  1  0.05608524  0.16443952  0.03989398  1
  S  S127  1  0.06703601  0.17168292  0.37610733  1
  S  S128  1  0.06386601  0.17310242  0.70746950  1
  S  S129  1  0.07066998  0.67485127  0.04444498  1
  S  S130  1  0.06716995  0.67147913  0.37600370  1
  S  S131  1  0.07286756  0.67332425  0.71037800  1
  S  S132  1  0.56961496  0.17052385  0.04485101  1
  S  S133  1  0.56770810  0.17698733  0.37294796  1
  S  S134  1  0.55755066  0.16585235  0.70973939  1
  S  S135  1  0.56950083  0.66564703  0.04144735  1
  S  S136  1  0.56564274  0.66182604  0.37102303  1
  S  S137  1  0.57223771  0.67022934  0.71395704  1
  S  S138  1  0.32342576  0.43271400  0.12159540  1
  S  S139  1  0.33260955  0.43594530  0.45642713  1
  S  S140  1  0.32994397  0.43567082  0.78650909  1
  S  S141  1  0.33912502  0.93019049  0.13558421  1
  S  S142  1  0.33292544  0.92856675  0.45922830  1
  S  S143  1  0.33087066  0.93559324  0.79111594  1
  S  S144  1  0.83183561  0.43204392  0.12836618  1
  S  S145  1  0.83210746  0.43113080  0.45716014  1
  S  S146  1  0.83025690  0.42972660  0.79129291  1
  S  S147  1  0.83091181  0.93189887  0.12532429  1
  S  S148  1  0.82046092  0.93395389  0.45408823  1
  S  S149  1  0.83848502  0.93791388  0.79343620  1
  S  S150  1  0.43683342  0.33105222  0.29484963  1
  S  S151  1  0.43131332  0.33076894  0.62091759  1
  S  S152  1  0.44025873  0.33455398  0.94936947  1
  S  S153  1  0.43303699  0.82329080  0.29442215  1
  S  S154  1  0.43269625  0.83257164  0.62714831  1
  S  S155  1  0.44088993  0.82768440  0.95803006  1
  S  S156  1  0.93608525  0.32592297  0.29022820  1
  S  S157  1  0.93826694  0.34066744  0.62799300  1
  S  S158  1  0.92693829  0.32635550  0.95656857  1
  S  S159  1  0.93015092  0.82919117  0.29016947  1
  S  S160  1  0.92926502  0.83380653  0.62193706  1
  S  S161  1  0.93041493  0.82936927  0.96107434  1
  S  S162  1  0.16533379  0.06006205  0.21348771  1
  S  S163  1  0.17445486  0.06812834  0.54633293  1
  S  S164  1  0.16175755  0.07216111  0.87255938  1
  S  S165  1  0.16508604  0.56365371  0.20647187  1
  S  S166  1  0.17628224  0.57678972  0.54360305  1
  S  S167  1  0.16886103  0.57908224  0.87535560  1
  S  S168  1  0.66735451  0.07009303  0.20733710  1
  S  S169  1  0.66021015  0.06528606  0.53097041  1
  S  S170  1  0.66190432  0.06114717  0.87317764  1
  S  S171  1  0.67353084  0.56336425  0.20969505  1
  S  S172  1  0.67509529  0.56269962  0.54787123  1
  S  S173  1  0.67332205  0.56448743  0.87925809  1
  O  O174  1  0.37822739  0.21568722  0.06469571  1
  O  O175  1  0.36700671  0.22026277  0.40893413  1
  O  O176  1  0.36308994  0.21912440  0.74243617  1
  O  O177  1  0.37011121  0.72473029  0.07927692  1
  O  O178  1  0.36779711  0.71913831  0.40842305  1
  O  O179  1  0.37227059  0.72124561  0.74405863  1
  O  O180  1  0.86453668  0.22040371  0.08476580  1
  O  O181  1  0.87076830  0.21709620  0.40736212  1
  O  O182  1  0.87492522  0.21921443  0.73566202  1
  O  O183  1  0.86864894  0.71765453  0.07802974  1
  O  O184  1  0.86855397  0.72001859  0.40641834  1
  O  O185  1  0.86610904  0.70998418  0.73777318  1
  O  O186  1  0.29360929  0.12800255  0.08742312  1
  O  O187  1  0.28242592  0.13228322  0.42913812  1
  O  O188  1  0.27702714  0.13024085  0.75869388  1
  O  O189  1  0.28223050  0.63508346  0.09384219  1
  O  O190  1  0.27173844  0.63272344  0.41294128  1
  O  O191  1  0.28374938  0.63316366  0.75894272  1
  O  O192  1  0.78029354  0.12585219  0.09628693  1
  O  O193  1  0.76847649  0.13180148  0.40554886  1
  O  O194  1  0.78387842  0.13780735  0.75864918  1
  O  O195  1  0.78119132  0.62802519  0.09216901  1
  O  O196  1  0.77784439  0.63329932  0.42077578  1
  O  O197  1  0.78820095  0.62343708  0.76732374  1
  O  O198  1  0.12915032  0.27919383  0.25758637  1
  O  O199  1  0.14472057  0.28546517  0.58727866  1
  O  O200  1  0.12081634  0.28655886  0.93324734  1
  O  O201  1  0.12878464  0.77865210  0.25996840  1
  O  O202  1  0.13009550  0.78066285  0.58894453  1
  O  O203  1  0.12673148  0.77906695  0.93453969  1
  O  O204  1  0.63339851  0.27691051  0.25897158  1
  O  O205  1  0.62619921  0.28376538  0.59565884  1
  O  O206  1  0.63240092  0.27802312  0.91588459  1
  O  O207  1  0.63448912  0.77590925  0.25689766  1
  O  O208  1  0.64178412  0.77464344  0.58617102  1
  O  O209  1  0.63746128  0.77887267  0.92655132  1
  O  O210  1  0.21949292  0.36820512  0.24659324  1
  O  O211  1  0.22006057  0.38060894  0.56562847  1
  O  O212  1  0.20768144  0.37060664  0.90842484  1
  O  O213  1  0.21886916  0.86642906  0.24730128  1
  O  O214  1  0.21586628  0.86817083  0.57023971  1
  O  O215  1  0.22462153  0.86202112  0.92702879  1
  O  O216  1  0.73190361  0.36375223  0.25489656  1
  O  O217  1  0.71482233  0.36870451  0.57493723  1
  O  O218  1  0.71967362  0.36927594  0.90430698  1
  O  O219  1  0.72291264  0.86689956  0.24423886  1
  O  O220  1  0.71977822  0.87022639  0.56823907  1
  O  O221  1  0.72302254  0.86735059  0.90789782  1
  O  O222  1  0.43028958  0.13875949  0.15279824  1
  O  O223  1  0.42096292  0.13501247  0.48596006  1
  O  O224  1  0.41501457  0.13319138  0.82073190  1
  O  O225  1  0.42005761  0.63228718  0.14884163  1
  O  O226  1  0.40832006  0.62721152  0.48004524  1
  O  O227  1  0.42142126  0.63234148  0.81820698  1
  O  O228  1  0.91845879  0.12666579  0.15122202  1
  O  O229  1  0.89995710  0.12995262  0.48545129  1
  O  O230  1  0.92140964  0.13050857  0.81085157  1
  O  O231  1  0.91904156  0.63059802  0.15288270  1
  O  O232  1  0.91502115  0.63710224  0.48741234  1
  O  O233  1  0.92692250  0.63379371  0.82143486  1
  O  O234  1  0.38667367  0.07716846  0.01818195  1
  O  O235  1  0.36791613  0.08123065  0.35142222  1
  O  O236  1  0.36682886  0.08153734  0.68494790  1
  O  O237  1  0.36525903  0.58681961  0.01351427  1
  O  O238  1  0.36426738  0.58115234  0.34436593  1
  O  O239  1  0.36985909  0.58379958  0.68160369  1
  O  O240  1  0.86352976  0.08421997  0.01490873  1
  O  O241  1  0.86850206  0.07886218  0.34876422  1
  O  O242  1  0.86220870  0.08127667  0.67597991  1
  O  O243  1  0.86912690  0.57960491  0.01648304  1
  O  O244  1  0.86913607  0.58212588  0.35069928  1
  O  O245  1  0.87348032  0.57159762  0.68810636  1
  O  O246  1  0.08143549  0.36632834  0.18097199  1
  O  O247  1  0.08142780  0.37045131  0.51478876  1
  O  O248  1  0.07024452  0.36958066  0.85183854  1
  O  O249  1  0.08107056  0.86661321  0.18465069  1
  O  O250  1  0.07763129  0.86856094  0.51498613  1
  O  O251  1  0.08975975  0.86428089  0.85388323  1
  O  O252  1  0.59660144  0.36869700  0.18631753  1
  O  O253  1  0.57703490  0.37017258  0.51870810  1
  O  O254  1  0.58147329  0.37185570  0.84739412  1
  O  O255  1  0.58608549  0.85961559  0.17899352  1
  O  O256  1  0.58119733  0.86123239  0.51328839  1
  O  O257  1  0.58462212  0.86394192  0.84894037  1
  O  O258  1  0.12796387  0.41804003  0.31669178  1
  O  O259  1  0.13913518  0.42177383  0.65060703  1
  O  O260  1  0.12454047  0.42490757  0.98710243  1
  O  O261  1  0.12946967  0.91693880  0.32059484  1
  O  O262  1  0.13346650  0.91830193  0.65135633  1
  O  O263  1  0.12734080  0.91780363  0.98884111  1
  O  O264  1  0.63781471  0.41496939  0.32198860  1
  O  O265  1  0.62986215  0.42227580  0.65310695  1
  O  O266  1  0.63551873  0.41534676  0.98335882  1
  O  O267  1  0.63142720  0.91397468  0.31563760  1
  O  O268  1  0.63467993  0.91213058  0.64796586  1
  O  O269  1  0.63747145  0.91631251  0.98524197  1
  O  O270  1  0.02231445  0.20154411  0.10342228  1
  O  O271  1  0.03087541  0.20170143  0.43481113  1
  O  O272  1  0.03614397  0.20726679  0.77459188  1
  O  O273  1  0.02884515  0.69992976  0.10290765  1
  O  O274  1  0.03025361  0.69840506  0.43612499  1
  O  O275  1  0.03665943  0.69765438  0.77024926  1
  O  O276  1  0.54247915  0.20015981  0.11092959  1
  O  O277  1  0.52664797  0.20198967  0.43116961  1
  O  O278  1  0.52075956  0.20347799  0.76964215  1
  O  O279  1  0.53310571  0.69529878  0.10251244  1
  O  O280  1  0.52724549  0.68804306  0.42920541  1
  O  O281  1  0.53752517  0.70167899  0.77756411  1
  O  O282  1  0.29439823  0.47407622  0.06527969  1
  O  O283  1  0.30172131  0.47268497  0.39524485  1
  O  O284  1  0.29802903  0.46826193  0.72158107  1
  O  O285  1  0.32343580  0.96534406  0.07680971  1
  O  O286  1  0.30341347  0.96731869  0.39941913  1
  O  O287  1  0.29784755  0.96288697  0.72352060  1
  O  O288  1  0.80303807  0.46772584  0.06672652  1
  O  O289  1  0.80434079  0.47402011  0.39933153  1
  O  O290  1  0.79448863  0.46222004  0.72781527  1
  O  O291  1  0.80376515  0.96535202  0.06285667  1
  O  O292  1  0.79092755  0.97056941  0.39277869  1
  O  O293  1  0.80508861  0.96584735  0.72849209  1
  O  O294  1  0.47600450  0.30269370  0.23606936  1
  O  O295  1  0.46587307  0.29719003  0.55860853  1
  O  O296  1  0.47507208  0.29189464  0.88733879  1
  O  O297  1  0.47191383  0.79690247  0.23485680  1
  O  O298  1  0.46518876  0.80563183  0.56526482  1
  O  O299  1  0.47866985  0.79341195  0.89796961  1
  O  O300  1  0.97337636  0.29597550  0.22948463  1
  O  O301  1  0.96956450  0.31113338  0.56559459  1
  O  O302  1  0.95989489  0.29644978  0.89390527  1
  O  O303  1  0.96938206  0.79832205  0.23123748  1
  O  O304  1  0.96344387  0.80063353  0.55746109  1
  O  O305  1  0.96452675  0.79834693  0.90061435  1
  O  O306  1  0.19892242  0.02945973  0.27962442  1
  O  O307  1  0.20542793  0.02914119  0.60618009  1
  O  O308  1  0.17809124  0.03791858  0.93202116  1
  O  O309  1  0.19534830  0.52604339  0.26626829  1
  O  O310  1  0.20619756  0.54139176  0.60498755  1
  O  O311  1  0.19004944  0.54500410  0.93627405  1
  O  O312  1  0.68998887  0.02662042  0.26349489  1
  O  O313  1  0.68753613  0.02890657  0.59064716  1
  O  O314  1  0.69922489  0.03229992  0.94003300  1
  O  O315  1  0.70289540  0.52667123  0.27042721  1
  O  O316  1  0.71293626  0.52738681  0.60876640  1
  O  O317  1  0.70555867  0.52966824  0.94173834  1
  O  O318  1  0.06346079  0.08260775  0.03537475  1
  O  O319  1  0.08778030  0.09044876  0.37287123  1
  O  O320  1  0.08184668  0.09085610  0.70294855  1
  O  O321  1  0.09088008  0.59444865  0.04000799  1
  O  O322  1  0.08675114  0.58979813  0.36725125  1
  O  O323  1  0.09147174  0.59121210  0.70034161  1
  O  O324  1  0.58298240  0.08612233  0.03400511  1
  O  O325  1  0.58194760  0.09384673  0.36442560  1
  O  O326  1  0.56366126  0.08386701  0.70652820  1
  O  O327  1  0.58862759  0.58449489  0.03639854  1
  O  O328  1  0.58590021  0.58018608  0.36661682  1
  O  O329  1  0.59709735  0.59130046  0.71513813  1
  O  O330  1  0.40435024  0.41844835  0.12550325  1
  O  O331  1  0.41532486  0.42121892  0.46286002  1
  O  O332  1  0.40758423  0.40852370  0.78337417  1
  O  O333  1  0.42222160  0.90965963  0.15223543  1
  O  O334  1  0.41276190  0.90789685  0.46308313  1
  O  O335  1  0.41228856  0.91375034  0.79392634  1
  O  O336  1  0.91286193  0.41116260  0.13222044  1
  O  O337  1  0.90855956  0.40582103  0.45536583  1
  O  O338  1  0.91108748  0.41513748  0.79196604  1
  O  O339  1  0.91405114  0.91488987  0.13621307  1
  O  O340  1  0.90353650  0.92011711  0.46092183  1
  O  O341  1  0.92349615  0.93773444  0.81008594  1
  O  O342  1  0.41910339  0.41298211  0.29696342  1
  O  O343  1  0.41642241  0.41224067  0.62264453  1
  O  O344  1  0.42876157  0.41270800  0.94109542  1
  O  O345  1  0.41362620  0.90490447  0.30395280  1
  O  O346  1  0.41580196  0.91600664  0.63814842  1
  O  O347  1  0.42925039  0.90871362  0.96254353  1
  O  O348  1  0.91994895  0.40799468  0.29312404  1
  O  O349  1  0.92248940  0.42475146  0.63738447  1
  O  O350  1  0.90924383  0.40866116  0.96228476  1
  O  O351  1  0.91090922  0.90920232  0.29062733  1
  O  O352  1  0.90027072  0.90980198  0.61739023  1
  O  O353  1  0.90998145  0.91019962  0.96515729  1
  O  O354  1  0.08256260  0.07691614  0.20936365  1
  O  O355  1  0.09661180  0.08786418  0.54302388  1
  O  O356  1  0.07680688  0.08925775  0.85363662  1
  O  O357  1  0.08291747  0.58069239  0.20309792  1
  O  O358  1  0.09776281  0.59952765  0.53996471  1
  O  O359  1  0.08685496  0.60071237  0.86292571  1
  O  O360  1  0.58782633  0.09529567  0.20206707  1
  O  O361  1  0.57721712  0.08397420  0.52739840  1
  O  O362  1  0.58418100  0.08806427  0.87902969  1
  O  O363  1  0.59237981  0.58178347  0.20349241  1
  O  O364  1  0.59397741  0.57173832  0.54620207  1
  O  O365  1  0.59261373  0.58244916  0.87772279  1
  O  O366  1  0.12998935  0.21154901  0.05634324  1
  O  O367  1  0.13796840  0.22312505  0.38848644  1
  O  O368  1  0.13656651  0.22291057  0.72116898  1
  O  O369  1  0.14131678  0.72968032  0.06737818  1
  O  O370  1  0.13750155  0.72565290  0.39306799  1
  O  O371  1  0.14377996  0.72693551  0.72705378  1
  O  O372  1  0.64105110  0.21872134  0.05575614  1
  O  O373  1  0.63939272  0.22873133  0.39447975  1
  O  O374  1  0.63230433  0.21198263  0.72698107  1
  O  O375  1  0.63997184  0.71908423  0.05736870  1
  O  O376  1  0.63692632  0.71524011  0.38812331  1
  O  O377  1  0.64154174  0.72475928  0.72858918  1
  O  O378  1  0.27158668  0.36152537  0.10450572  1
  O  O379  1  0.28204366  0.36334825  0.43813969  1
  O  O380  1  0.27467765  0.36852722  0.77517917  1
  O  O381  1  0.28421063  0.85918717  0.11728342  1
  O  O382  1  0.27733287  0.85900379  0.44166243  1
  O  O383  1  0.27937798  0.86521102  0.78004962  1
  O  O384  1  0.77785779  0.36472599  0.11618213  1
  O  O385  1  0.77343850  0.36476435  0.43882933  1
  O  O386  1  0.78177654  0.35984677  0.78267824  1
  O  O387  1  0.77917980  0.85992500  0.10939027  1
  O  O388  1  0.77140270  0.85973098  0.43461949  1
  O  O389  1  0.79608343  0.86023043  0.77865284  1
  O  O390  1  0.36643941  0.27961432  0.27965588  1
  O  O391  1  0.35888806  0.28142169  0.60669471  1
  O  O392  1  0.36593297  0.28803633  0.93420483  1
  O  O393  1  0.36110532  0.76950465  0.27374941  1
  O  O394  1  0.36039752  0.78192291  0.61236662  1
  O  O395  1  0.36772879  0.77692039  0.93945182  1
  O  O396  1  0.86332541  0.27529078  0.27156258  1
  O  O397  1  0.86623021  0.29473422  0.61782810  1
  O  O398  1  0.85777266  0.27529673  0.94558952  1
  O  O399  1  0.85931238  0.77585434  0.27287291  1
  O  O400  1  0.86320142  0.77566338  0.60896560  1
  O  O401  1  0.86064321  0.77630583  0.94902162  1
  O  O402  1  0.21402878  0.13226983  0.22727639  1
  O  O403  1  0.23042292  0.13748206  0.56356789  1
  O  O404  1  0.21352295  0.14565102  0.89185979  1
  O  O405  1  0.21619282  0.63594459  0.22350399  1
  O  O406  1  0.23229369  0.64529133  0.55766801  1
  O  O407  1  0.22441120  0.64800267  0.89132444  1
  O  O408  1  0.72528028  0.13813711  0.22850931  1
  O  O409  1  0.71019863  0.13394629  0.54088255  1
  O  O410  1  0.71431426  0.12610207  0.87797518  1
  O  O411  1  0.72622486  0.63523971  0.22687391  1
  O  O412  1  0.72344409  0.63606766  0.56240223  1
  O  O413  1  0.72463103  0.63587076  0.89445890  1
  O  O414  1  0.49689816  0.34134712  0.02234156  1
  O  O415  1  0.49558521  0.33783307  0.36934974  1
  O  O416  1  0.49092039  0.33173026  0.69229909  1
  O  O417  1  0.49621288  0.82638853  0.03172432  1
  O  O418  1  0.49092912  0.82119928  0.36570632  1
  O  O419  1  0.49303536  0.83173338  0.69840577  1
  O  O420  1  0.98977023  0.33311579  0.02941011  1
  O  O421  1  0.99285934  0.32711001  0.36267831  1
  O  O422  1  1.00042435  0.34297174  0.69986635  1
  O  O423  1  0.99079485  0.83720878  0.03594012  1
  O  O424  1  0.98682410  0.83347883  0.36441216  1
  O  O425  1  0.99208523  0.84696567  0.69244439  1
  O  O426  1  0.16192580  -0.00177815  0.14468071  1
  O  O427  1  0.17454403  0.00883445  0.47351978  1
  O  O428  1  0.16726002  0.01399209  0.80102816  1
  O  O429  1  0.16050961  0.50669406  0.13240476  1
  O  O430  1  0.17229887  0.51530402  0.47117051  1
  O  O431  1  0.16822974  0.51734823  0.80399127  1
  O  O432  1  0.66414284  0.01165324  0.13388802  1
  O  O433  1  0.64974853  0.00376886  0.45557050  1
  O  O434  1  0.64431690  -0.00567031  0.80443814  1
  O  O435  1  0.67336292  0.50491378  0.13754164  1
  O  O436  1  0.67420892  0.50612230  0.47361455  1
  O  O437  1  0.67064840  0.50453808  0.80788198  1
  O  O438  1  0.00780503  0.16353379  0.30063299  1
  O  O439  1  0.00085700  0.16999184  0.63930352  1
  O  O440  1  -0.00139977  0.16792349  0.96817204  1
  O  O441  1  0.00787413  0.67016095  0.30346366  1
  O  O442  1  0.01331632  0.67513316  0.63908868  1
  O  O443  1  0.01448902  0.67487687  0.97167512  1
  O  O444  1  0.51182112  0.17870564  0.29958801  1
  O  O445  1  0.50288131  0.16765890  0.63581356  1
  O  O446  1  0.50656542  0.17094177  0.97538148  1
  O  O447  1  0.50873420  0.65816050  0.29643933  1
  O  O448  1  0.51078895  0.66084872  0.64327818  1
  O  O449  1  0.51016883  0.66219248  0.96857725  1
  O  O450  1  0.32560911  0.48941460  0.19725859  1
  O  O451  1  0.33334844  0.49466578  0.52852844  1
  O  O452  1  0.34171961  0.49945225  0.85607842  1
  O  O453  1  0.33445499  0.98892293  0.20705453  1
  O  O454  1  0.33544161  0.98792065  0.53190528  1
  O  O455  1  0.33707123  1.00013653  0.85888572  1
  O  O456  1  0.83984234  0.49378765  0.20208916  1
  O  O457  1  0.83772234  0.48975560  0.53092304  1
  O  O458  1  0.83496479  0.49287597  0.86324715  1
  O  O459  1  0.82994011  0.99188019  0.19657675  1
  O  O460  1  0.81813563  0.99194303  0.52458697  1
  O  O461  1  0.82300936  0.99402958  0.86107721  1
