# generated using pymatgen
data_Na31Fe20(SO4)36
_symmetry_space_group_name_H-M   'P 1'
_cell_length_a   18.07068021
_cell_length_b   18.07474911
_cell_length_c   19.69825535
_cell_angle_alpha   107.60581447
_cell_angle_beta   107.56837713
_cell_angle_gamma   90.71465288
_symmetry_Int_Tables_number   1
_chemical_formula_structural   Na31Fe20(SO4)36
_chemical_formula_sum   'Na62 Fe40 S72 O288'
_cell_volume   5808.25517603
_cell_formula_units_Z   2
loop_
 _symmetry_equiv_pos_site_id
 _symmetry_equiv_pos_as_xyz
  1  'x, y, z'
loop_
 _atom_site_type_symbol
 _atom_site_label
 _atom_site_symmetry_multiplicity
 _atom_site_fract_x
 _atom_site_fract_y
 _atom_site_fract_z
 _atom_site_occupancy
  Na  Na0  1  0.13202431  0.35919904  0.06874783  1
  Na  Na1  1  0.14055355  0.37567807  0.42362321  1
  Na  Na2  1  0.13494501  0.35915943  0.74939113  1
  Na  Na3  1  0.13523691  0.85854357  0.08196995  1
  Na  Na4  1  0.13122042  0.87105639  0.42090465  1
  Na  Na5  1  0.12669698  0.85982444  0.75073381  1
  Na  Na6  1  0.63509368  0.35571546  0.07246259  1
  Na  Na7  1  0.63452466  0.36928658  0.41985321  1
  Na  Na8  1  0.62359263  0.36392689  0.75070683  1
  Na  Na9  1  0.64172900  0.87516009  0.09138043  1
  Na  Na10  1  0.63189953  0.86307522  0.40974316  1
  Na  Na11  1  0.64625128  0.87497821  0.76030776  1
  Na  Na12  1  0.36928474  0.13025933  0.24999283  1
  Na  Na13  1  0.36587524  0.14303366  0.59823354  1
  Na  Na14  1  0.35104158  0.13540513  0.90609066  1
  Na  Na15  1  0.35594282  0.62381813  0.23503037  1
  Na  Na16  1  0.36592830  0.63408091  0.58025382  1
  Na  Na17  1  0.36713849  0.62708294  0.91025960  1
  Na  Na18  1  0.86310579  0.12973018  0.24393659  1
  Na  Na19  1  0.87309344  0.13673626  0.58307658  1
  Na  Na20  1  0.86524097  0.13701351  0.91702507  1
  Na  Na21  1  0.86703121  0.63166752  0.24919260  1
  Na  Na22  1  0.86836573  0.63587476  0.58857826  1
  Na  Na23  1  0.86540697  0.63320945  0.91438629  1
  Na  Na24  1  0.48062094  0.50884115  0.42216544  1
  Na  Na25  1  0.48831378  0.01981133  0.74614698  1
  Na  Na26  1  1.00045870  0.52494595  0.74632570  1
  Na  Na27  1  0.50016698  0.50335264  0.04770379  1
  Na  Na28  1  0.48695669  0.00606621  0.09022212  1
  Na  Na29  1  1.00654563  0.49706886  0.08592095  1
  Na  Na30  1  0.95348301  0.00594966  0.07509602  1
  Na  Na31  1  0.98925718  0.04744222  0.76379677  1
  Na  Na32  1  0.50684029  0.00620498  0.38733540  1
  Na  Na33  1  -0.03376022  1.02619243  0.38599239  1
  Na  Na34  1  0.50286068  0.48725240  0.61156888  1
  Na  Na35  1  0.03803283  0.49491825  0.92288014  1
  Na  Na36  1  0.02415141  0.49018316  0.56066523  1
  Na  Na37  1  0.04598884  0.49166920  0.28561646  1
  Na  Na38  1  0.00753930  0.96043842  0.90048200  1
  Na  Na39  1  0.51953827  0.99273217  0.91479135  1
  Na  Na40  1  0.51186658  0.49079775  0.24488843  1
  Na  Na41  1  0.51040720  0.99611648  0.57312814  1
  Na  Na42  1  0.24501554  0.24550016  0.33907664  1
  Na  Na43  1  0.76134416  0.76628837  -0.00685111  1
  Na  Na44  1  0.76707029  0.76351539  0.66232213  1
  Na  Na45  1  0.23503324  0.24009485  0.68032032  1
  Na  Na46  1  0.26274503  0.75214872  -0.01327187  1
  Na  Na47  1  0.74757958  0.24515649  0.33714727  1
  Na  Na48  1  0.75977821  0.76501260  0.32271596  1
  Na  Na49  1  0.24190812  0.73881582  0.68421099  1
  Na  Na50  1  0.23986937  0.73293399  0.34000758  1
  Na  Na51  1  0.24430449  0.24889597  -0.01537124  1
  Na  Na52  1  0.23846416  0.73039073  0.16553970  1
  Na  Na53  1  0.76492373  0.76942852  0.16287193  1
  Na  Na54  1  0.75823310  0.25823112  0.15593881  1
  Na  Na55  1  0.76083146  0.76264459  0.49294500  1
  Na  Na56  1  0.23459333  0.23810450  0.51231798  1
  Na  Na57  1  0.78003501  0.77793311  0.82953453  1
  Na  Na58  1  0.74328313  0.25279885  0.83667003  1
  Na  Na59  1  0.24807147  0.24920223  0.16075252  1
  Na  Na60  1  0.23886887  0.73484098  0.50538793  1
  Na  Na61  1  0.74433906  0.24237128  0.51114702  1
  Fe  Fe62  1  0.46344676  0.30615400  0.45237745  1
  Fe  Fe63  1  0.96430461  0.81331964  0.12508149  1
  Fe  Fe64  1  0.96352863  0.81547119  0.45791549  1
  Fe  Fe65  1  0.46711894  0.80569910  0.11604769  1
  Fe  Fe66  1  0.46161146  0.30635604  0.11435742  1
  Fe  Fe67  1  0.96813449  0.30462217  0.11682706  1
  Fe  Fe68  1  0.97104015  0.30038402  0.45900729  1
  Fe  Fe69  1  0.46771315  0.80644787  0.45007466  1
  Fe  Fe70  1  0.97029678  0.29955194  0.78967729  1
  Fe  Fe71  1  0.46824865  0.80643987  0.78328707  1
  Fe  Fe72  1  0.17991793  0.03552269  0.70967523  1
  Fe  Fe73  1  0.69726740  0.03380558  0.37176936  1
  Fe  Fe74  1  0.69586389  0.53420209  0.38367232  1
  Fe  Fe75  1  0.69445604  0.53351953  0.04802165  1
  Fe  Fe76  1  0.69121675  0.04126936  0.71699239  1
  Fe  Fe77  1  0.18923760  0.03239113  0.37829810  1
  Fe  Fe78  1  0.19653573  0.53815855  0.71642007  1
  Fe  Fe79  1  0.70432883  0.03182758  0.04320371  1
  Fe  Fe80  1  0.69715609  0.53152185  0.71937436  1
  Fe  Fe81  1  0.18928571  0.03179178  0.04348078  1
  Fe  Fe82  1  0.03653590  0.18895623  0.20910749  1
  Fe  Fe83  1  0.03349346  0.69327324  0.54662760  1
  Fe  Fe84  1  0.53825017  0.69438390  0.54895926  1
  Fe  Fe85  1  0.03427965  0.69030140  0.21478816  1
  Fe  Fe86  1  0.53597844  0.69092399  0.21380401  1
  Fe  Fe87  1  0.53874520  0.69112976  0.88059934  1
  Fe  Fe88  1  0.03308223  0.69784916  0.88160622  1
  Fe  Fe89  1  0.53491707  0.19595556  0.21216897  1
  Fe  Fe90  1  0.52550248  0.20442898  0.87816895  1
  Fe  Fe91  1  0.53281377  0.19373402  0.54907044  1
  Fe  Fe92  1  0.29634496  0.46555506  0.95030598  1
  Fe  Fe93  1  0.80912609  0.97071543  0.62102854  1
  Fe  Fe94  1  0.80551479  0.46368654  0.95316416  1
  Fe  Fe95  1  0.30503389  0.96216461  0.61597697  1
  Fe  Fe96  1  0.30539521  0.96105007  0.28284930  1
  Fe  Fe97  1  0.30899878  0.95869025  0.94751156  1
  Fe  Fe98  1  0.80817908  0.46167245  0.62286680  1
  Fe  Fe99  1  0.29770637  0.47042983  0.28674007  1
  Fe  Fe100  1  0.81820596  0.46371801  0.29194930  1
  Fe  Fe101  1  0.31061222  0.46673548  0.62340652  1
  S  S102  1  0.35847934  0.13685834  0.08312558  1
  S  S103  1  0.36030762  0.13608674  0.41369824  1
  S  S104  1  0.35471400  0.13290953  0.74798486  1
  S  S105  1  0.36484724  0.63642490  0.08065103  1
  S  S106  1  0.36339954  0.64204071  0.41571876  1
  S  S107  1  0.36601787  0.64157072  0.74818764  1
  S  S108  1  0.86028096  0.14497328  0.08391809  1
  S  S109  1  0.85498152  0.14653852  0.41559567  1
  S  S110  1  0.85271300  0.14798077  0.74792447  1
  S  S111  1  0.85691498  0.64083269  0.08539742  1
  S  S112  1  0.85692726  0.64213561  0.41869465  1
  S  S113  1  0.85888340  0.63735915  0.75199232  1
  S  S114  1  0.14338992  0.35222054  0.24680315  1
  S  S115  1  0.14437837  0.36206899  0.58250325  1
  S  S116  1  0.13734150  0.36088744  0.91633362  1
  S  S117  1  0.14405989  0.85493266  0.24968446  1
  S  S118  1  0.14280413  0.85786796  0.58411797  1
  S  S119  1  0.14645130  0.85463236  0.92042196  1
  S  S120  1  0.64250351  0.36247907  0.25069805  1
  S  S121  1  0.63711404  0.36091948  0.58358895  1
  S  S122  1  0.63710333  0.36347692  0.92017615  1
  S  S123  1  0.63627311  0.85901240  0.25112795  1
  S  S124  1  0.64039709  0.86137192  0.58216004  1
  S  S125  1  0.64081307  0.85964117  0.91428398  1
  S  S126  1  0.06391694  0.16407669  0.03836194  1
  S  S127  1  0.06920572  0.17108812  0.37360382  1
  S  S128  1  0.06202185  0.17040648  0.70731747  1
  S  S129  1  0.05635942  0.66867843  0.04435982  1
  S  S130  1  0.06393415  0.67677656  0.38150673  1
  S  S131  1  0.06650206  0.66324106  0.70503836  1
  S  S132  1  0.56178783  0.17147282  0.04149152  1
  S  S133  1  0.56906740  0.17480006  0.37589861  1
  S  S134  1  0.56185529  0.16558526  0.70632785  1
  S  S135  1  0.57390663  0.67462619  0.04538303  1
  S  S136  1  0.56840804  0.66523596  0.37504969  1
  S  S137  1  0.57624614  0.67389469  0.71121583  1
  S  S138  1  0.32709167  0.42773607  0.12205021  1
  S  S139  1  0.34031039  0.43492768  0.46013090  1
  S  S140  1  0.32579960  0.43393352  0.78787228  1
  S  S141  1  0.33277208  0.92990404  0.12183734  1
  S  S142  1  0.33352313  0.93072768  0.45559467  1
  S  S143  1  0.33702164  0.92975483  0.79105831  1
  S  S144  1  0.83358316  0.43336897  0.12829458  1
  S  S145  1  0.83067153  0.43117387  0.45925845  1
  S  S146  1  0.82853600  0.42627704  0.79480947  1
  S  S147  1  0.83053201  0.93716787  0.12769801  1
  S  S148  1  0.82408063  0.93481158  0.45523095  1
  S  S149  1  0.82987207  0.94838681  0.78737332  1
  S  S150  1  0.43286783  0.33241362  0.28995594  1
  S  S151  1  0.43025059  0.32578013  0.62064082  1
  S  S152  1  0.42381764  0.33037268  0.95990766  1
  S  S153  1  0.42812956  0.82321508  0.28628345  1
  S  S154  1  0.43642434  0.83143896  0.62211047  1
  S  S155  1  0.43864799  0.83189250  0.95875452  1
  S  S156  1  0.93759741  0.32841397  0.29265604  1
  S  S157  1  0.93335145  0.33501452  0.62895797  1
  S  S158  1  0.93181039  0.33349582  0.95625885  1
  S  S159  1  0.93505333  0.82803116  0.29136313  1
  S  S160  1  0.93282524  0.83000250  0.62389461  1
  S  S161  1  0.93901648  0.83242715  0.96054180  1
  S  S162  1  0.17359987  0.06401455  0.20887355  1
  S  S163  1  0.16966956  0.06318413  0.54124316  1
  S  S164  1  0.16790314  0.05345036  0.87595320  1
  S  S165  1  0.16373138  0.56003133  0.20814329  1
  S  S166  1  0.17494437  0.56994282  0.54474203  1
  S  S167  1  0.16907744  0.56883961  0.87396133  1
  S  S168  1  0.66650285  0.07182836  0.20381933  1
  S  S169  1  0.66430705  0.06604632  0.53496402  1
  S  S170  1  0.65828288  0.07391700  0.87326481  1
  S  S171  1  0.66874683  0.56672634  0.21116340  1
  S  S172  1  0.67113236  0.56792220  0.54539501  1
  S  S173  1  0.67390715  0.57058286  0.88075884  1
  O  O174  1  0.36531357  0.21740533  0.07868528  1
  O  O175  1  0.36980314  0.21253371  0.40028645  1
  O  O176  1  0.35713635  0.20581774  0.73160137  1
  O  O177  1  0.37792204  0.71255206  0.06701256  1
  O  O178  1  0.37701909  0.72019972  0.40630411  1
  O  O179  1  0.37762042  0.71835447  0.73512588  1
  O  O180  1  0.86978546  0.22830853  0.08657213  1
  O  O181  1  0.86695279  0.23117222  0.41924349  1
  O  O182  1  0.86918477  0.22870854  0.74480644  1
  O  O183  1  0.86357510  0.72167494  0.08079634  1
  O  O184  1  0.86151297  0.72206492  0.41181792  1
  O  O185  1  0.86308563  0.71480151  0.74375330  1
  O  O186  1  0.28027622  0.12556805  0.09226501  1
  O  O187  1  0.27998227  0.12821675  0.41865142  1
  O  O188  1  0.27817197  0.11565457  0.75782655  1
  O  O189  1  0.29060348  0.63230333  0.09458775  1
  O  O190  1  0.28751628  0.63778140  0.42682734  1
  O  O191  1  0.28618148  0.63659776  0.75379882  1
  O  O192  1  0.78188526  0.13411583  0.09355757  1
  O  O193  1  0.77107275  0.13847405  0.41599733  1
  O  O194  1  0.77031598  0.14234262  0.74898294  1
  O  O195  1  0.77976584  0.63067793  0.09753149  1
  O  O196  1  0.77936466  0.63049326  0.43006867  1
  O  O197  1  0.78288383  0.62393986  0.76544985  1
  O  O198  1  0.13813819  0.26925354  0.24702574  1
  O  O199  1  0.14125082  0.28408322  0.58931724  1
  O  O200  1  0.13028055  0.28461510  0.92555741  1
  O  O201  1  0.13604086  0.77442500  0.25523530  1
  O  O202  1  0.13396375  0.77750035  0.58986300  1
  O  O203  1  0.13460314  0.77688207  0.93108926  1
  O  O204  1  0.63272392  0.28371953  0.25855038  1
  O  O205  1  0.62719174  0.28211121  0.58991475  1
  O  O206  1  0.62328102  0.28675198  0.93182801  1
  O  O207  1  0.62095474  0.78356023  0.26640409  1
  O  O208  1  0.63232069  0.78207661  0.59033406  1
  O  O209  1  0.62916903  0.78209806  0.92524840  1
  O  O210  1  0.22283614  0.36644011  0.24087578  1
  O  O211  1  0.22005167  0.37710434  0.56851901  1
  O  O212  1  0.21448863  0.37335936  0.90388221  1
  O  O213  1  0.22233181  0.86349491  0.23878756  1
  O  O214  1  0.22072502  0.86492264  0.57199070  1
  O  O215  1  0.22875533  0.86114950  0.91950330  1
  O  O216  1  0.72243825  0.37273018  0.24538207  1
  O  O217  1  0.71607051  0.37096409  0.57554191  1
  O  O218  1  0.72108111  0.36993151  0.92144991  1
  O  O219  1  0.71445148  0.86046523  0.24422005  1
  O  O220  1  0.71961950  0.87030597  0.57518472  1
  O  O221  1  0.71581570  0.86604815  0.90174039  1
  O  O222  1  0.41928527  0.12800148  0.15040357  1
  O  O223  1  0.41761381  0.13157157  0.48377791  1
  O  O224  1  0.41618872  0.13163887  0.81840828  1
  O  O225  1  0.42869532  0.62791843  0.14675425  1
  O  O226  1  0.42575512  0.63129154  0.48182782  1
  O  O227  1  0.42311018  0.63827220  0.81913464  1
  O  O228  1  0.91980040  0.13173575  0.15043985  1
  O  O229  1  0.90839680  0.13064713  0.48019133  1
  O  O230  1  0.90645227  0.13442515  0.81390245  1
  O  O231  1  0.91832491  0.62982097  0.15047971  1
  O  O232  1  0.91791856  0.63352120  0.48474915  1
  O  O233  1  0.92187927  0.62769627  0.81733198  1
  O  O234  1  0.36749371  0.07973745  0.01452152  1
  O  O235  1  0.37191496  0.07389368  0.34839534  1
  O  O236  1  0.36977724  0.06913857  0.68420461  1
  O  O237  1  0.36954490  0.57311250  0.01236392  1
  O  O238  1  0.36884295  0.58196454  0.34624927  1
  O  O239  1  0.37663829  0.57995713  0.68271849  1
  O  O240  1  0.86708582  0.09080534  0.01507788  1
  O  O241  1  0.86245165  0.09590176  0.34473854  1
  O  O242  1  0.86037317  0.09052727  0.67794078  1
  O  O243  1  0.86164008  0.58408076  0.01488462  1
  O  O244  1  0.86172209  0.58490119  0.34842869  1
  O  O245  1  0.86502713  0.57694837  0.68275466  1
  O  O246  1  0.08415013  0.36209034  0.17906086  1
  O  O247  1  0.08130691  0.36953567  0.51493753  1
  O  O248  1  0.07595230  0.36672796  0.84486988  1
  O  O249  1  0.08449752  0.86540802  0.18411788  1
  O  O250  1  0.08274968  0.86919682  0.51922156  1
  O  O251  1  0.09081091  0.86265715  0.85271028  1
  O  O252  1  0.58375925  0.37119853  0.18286263  1
  O  O253  1  0.57861560  0.37075670  0.51587074  1
  O  O254  1  0.58498019  0.37000216  0.85113327  1
  O  O255  1  0.57812189  0.86456585  0.18128430  1
  O  O256  1  0.58187746  0.86782908  0.51216143  1
  O  O257  1  0.57752358  0.86926705  0.84819348  1
  O  O258  1  0.13365390  0.40469955  0.31554824  1
  O  O259  1  0.13535904  0.42189539  0.64981015  1
  O  O260  1  0.12753705  0.42336449  0.97988590  1
  O  O261  1  0.14046035  0.91181744  0.32048726  1
  O  O262  1  0.14039391  0.91428339  0.65549347  1
  O  O263  1  0.13620592  0.91495002  0.98820765  1
  O  O264  1  0.63235214  0.42139250  0.31878573  1
  O  O265  1  0.62843988  0.42082387  0.65161139  1
  O  O266  1  0.62879983  0.42516624  0.98846604  1
  O  O267  1  0.62786429  0.92259861  0.31647419  1
  O  O268  1  0.62847447  0.92023459  0.64791130  1
  O  O269  1  0.63428064  0.92064993  0.98264008  1
  O  O270  1  0.03074580  0.19796186  0.10349573  1
  O  O271  1  0.03027209  0.19913869  0.43099031  1
  O  O272  1  0.02562177  0.20416928  0.76944154  1
  O  O273  1  0.02169703  0.70782658  0.10615921  1
  O  O274  1  0.02444449  0.71170595  0.44036431  1
  O  O275  1  0.03335081  0.68008961  0.76690470  1
  O  O276  1  0.52481152  0.20400987  0.10336193  1
  O  O277  1  0.53073121  0.20100399  0.43604450  1
  O  O278  1  0.52387535  0.18520570  0.76447982  1
  O  O279  1  0.53862632  0.70523688  0.10738822  1
  O  O280  1  0.53593077  0.69898454  0.43824852  1
  O  O281  1  0.53976572  0.70277183  0.77216836  1
  O  O282  1  0.30716751  0.46208344  0.06098099  1
  O  O283  1  0.32072934  0.46960132  0.39906955  1
  O  O284  1  0.29517594  0.47815890  0.73030279  1
  O  O285  1  0.30360013  0.96884072  0.06306460  1
  O  O286  1  0.30194745  0.96680163  0.39484901  1
  O  O287  1  0.30416336  0.95939272  0.72694173  1
  O  O288  1  0.80355273  0.47190113  0.06885310  1
  O  O289  1  0.80320773  0.47009561  0.39892355  1
  O  O290  1  0.79856430  0.46064041  0.73147563  1
  O  O291  1  0.80343134  0.97006636  0.06407013  1
  O  O292  1  0.79701258  0.97312649  0.39723488  1
  O  O293  1  0.78794925  0.97881380  0.72096001  1
  O  O294  1  0.47163025  0.30238887  0.23048057  1
  O  O295  1  0.46378994  0.29454356  0.55495021  1
  O  O296  1  0.45636522  0.29917575  0.89863083  1
  O  O297  1  0.46081673  0.79382936  0.22297542  1
  O  O298  1  0.47224950  0.80028895  0.56036283  1
  O  O299  1  0.47113766  0.80070273  0.89545240  1
  O  O300  1  0.97732547  0.29970035  0.23383228  1
  O  O301  1  0.97491056  0.32055774  0.57353282  1
  O  O302  1  0.96797132  0.31408573  0.89569705  1
  O  O303  1  0.97494361  0.79402591  0.23226960  1
  O  O304  1  0.96783969  0.79778374  0.55989741  1
  O  O305  1  0.97351343  0.79565583  0.90045456  1
  O  O306  1  0.20068509  0.02577994  0.26968050  1
  O  O307  1  0.20137759  0.02478374  0.60228829  1
  O  O308  1  0.20797847  0.01804878  0.93757745  1
  O  O309  1  0.19578545  0.52996115  0.27263542  1
  O  O310  1  0.20596784  0.53688372  0.60927933  1
  O  O311  1  0.19988387  0.53173316  0.93280813  1
  O  O312  1  0.68545369  0.03322686  0.26149716  1
  O  O313  1  0.69290284  0.03016843  0.59614738  1
  O  O314  1  0.68286367  0.04069833  0.93542565  1
  O  O315  1  0.69837825  0.53202022  0.27312887  1
  O  O316  1  0.69988127  0.53163552  0.60626644  1
  O  O317  1  0.70291771  0.53117213  0.93995984  1
  O  O318  1  0.08450116  0.08353697  0.03967497  1
  O  O319  1  0.08861215  0.08984296  0.37078659  1
  O  O320  1  0.08344064  0.09169192  0.71584256  1
  O  O321  1  0.06181191  0.58685401  0.04178451  1
  O  O322  1  0.08450635  0.60043476  0.38539604  1
  O  O323  1  0.08520689  0.57894138  0.68869440  1
  O  O324  1  0.57351770  0.08847924  0.03467816  1
  O  O325  1  0.59042548  0.09477881  0.37076326  1
  O  O326  1  0.58192569  0.08170725  0.69448834  1
  O  O327  1  0.59202901  0.59374353  0.04313764  1
  O  O328  1  0.58354316  0.58256052  0.37153520  1
  O  O329  1  0.59477747  0.59245424  0.70510008  1
  O  O330  1  0.41141312  0.41081697  0.13919812  1
  O  O331  1  0.42560721  0.41919289  0.47509902  1
  O  O332  1  0.40490005  0.42027386  0.79267936  1
  O  O333  1  0.41429890  0.91243848  0.12456951  1
  O  O334  1  0.41593338  0.91416916  0.45875272  1
  O  O335  1  0.42136103  0.91680332  0.79702125  1
  O  O336  1  0.91468438  0.41447471  0.13122222  1
  O  O337  1  0.91041214  0.40961898  0.46350339  1
  O  O338  1  0.90805689  0.40257159  0.79664855  1
  O  O339  1  0.91051545  0.91241985  0.12740042  1
  O  O340  1  0.90346946  0.91192427  0.45784516  1
  O  O341  1  0.91060849  0.94158174  0.78654985  1
  O  O342  1  0.41616672  0.41434902  0.29479645  1
  O  O343  1  0.40998047  0.40644409  0.62139764  1
  O  O344  1  0.39827232  0.40932540  0.96056371  1
  O  O345  1  0.41010235  0.90517939  0.29396710  1
  O  O346  1  0.41977803  0.91353454  0.62641141  1
  O  O347  1  0.42095878  0.91447591  0.96296129  1
  O  O348  1  0.92232701  0.41112604  0.29736829  1
  O  O349  1  0.91623998  0.41954191  0.64743559  1
  O  O350  1  0.91372433  0.41725793  0.97118403  1
  O  O351  1  0.91532234  0.90516170  0.29018780  1
  O  O352  1  0.90754760  0.90765732  0.62169137  1
  O  O353  1  0.92590938  0.91252077  0.95970428  1
  O  O354  1  0.09285745  0.08317212  0.20147593  1
  O  O355  1  0.08906384  0.07571909  0.53137943  1
  O  O356  1  0.08636597  0.05699672  0.87415204  1
  O  O357  1  0.08391023  0.58518306  0.21098047  1
  O  O358  1  0.09523187  0.59337430  0.54506231  1
  O  O359  1  0.08924041  0.59097264  0.87643636  1
  O  O360  1  0.58352771  0.09233093  0.19098393  1
  O  O361  1  0.58022479  0.08182062  0.52837070  1
  O  O362  1  0.57496568  0.09245595  0.86534299  1
  O  O363  1  0.58453686  0.57989866  0.20270666  1
  O  O364  1  0.58824834  0.58433078  0.53740225  1
  O  O365  1  0.59472691  0.59162676  0.87783881  1
  O  O366  1  0.13623235  0.21536339  0.05458734  1
  O  O367  1  0.14168690  0.22357806  0.39131413  1
  O  O368  1  0.13363975  0.22100885  0.72293961  1
  O  O369  1  0.13249930  0.71326741  0.06115777  1
  O  O370  1  0.13406178  0.73155274  0.39679279  1
  O  O371  1  0.13598576  0.71711578  0.72189588  1
  O  O372  1  0.63538004  0.22052567  0.06131713  1
  O  O373  1  0.63821973  0.23079499  0.39427785  1
  O  O374  1  0.63071646  0.21992635  0.72376366  1
  O  O375  1  0.64456569  0.72622326  0.05957678  1
  O  O376  1  0.64021008  0.71412664  0.38752161  1
  O  O377  1  0.64614673  0.72690698  0.72581525  1
  O  O378  1  0.27513447  0.35526696  0.10306071  1
  O  O379  1  0.28929787  0.36225579  0.44096239  1
  O  O380  1  0.26962574  0.36424446  0.76521637  1
  O  O381  1  0.28179745  0.85749264  0.10471489  1
  O  O382  1  0.28360937  0.85888265  0.44124462  1
  O  O383  1  0.29091397  0.85783341  0.78201508  1
  O  O384  1  0.78012181  0.36451111  0.11373784  1
  O  O385  1  0.77366148  0.36321537  0.44126809  1
  O  O386  1  0.77248909  0.36191512  0.78556205  1
  O  O387  1  0.77655068  0.86522673  0.10974421  1
  O  O388  1  0.76943711  0.86347968  0.43766921  1
  O  O389  1  0.78546655  0.87050911  0.76889111  1
  O  O390  1  0.36189201  0.27952735  0.27247707  1
  O  O391  1  0.35828755  0.27426484  0.60324441  1
  O  O392  1  0.35950050  0.27707136  0.95662083  1
  O  O393  1  0.35837392  0.77099588  0.27352708  1
  O  O394  1  0.36505902  0.78042579  0.60641554  1
  O  O395  1  0.36976486  0.78104475  0.94827187  1
  O  O396  1  0.86340077  0.27835573  0.27183192  1
  O  O397  1  0.86145343  0.28191457  0.60414721  1
  O  O398  1  0.86206896  0.27968386  0.93757185  1
  O  O399  1  0.86497331  0.77188479  0.27346675  1
  O  O400  1  0.86219710  0.77416801  0.60576999  1
  O  O401  1  0.86500228  0.78382811  0.94651801  1
  O  O402  1  0.22895081  0.13441285  0.22888422  1
  O  O403  1  0.22401870  0.13536497  0.56227042  1
  O  O404  1  0.21250795  0.12920987  0.89364659  1
  O  O405  1  0.21625343  0.63013568  0.21923379  1
  O  O406  1  0.22885936  0.64138272  0.56242692  1
  O  O407  1  0.22226795  0.63656587  0.88438771  1
  O  O408  1  0.72030948  0.14313957  0.22392134  1
  O  O409  1  0.71390716  0.13731514  0.54951836  1
  O  O410  1  0.71015248  0.14214569  0.88366902  1
  O  O411  1  0.71700471  0.64027374  0.22741716  1
  O  O412  1  0.72211792  0.63964764  0.56145468  1
  O  O413  1  0.72881927  0.63998994  0.89790005  1
  O  O414  1  0.48930334  0.34532502  0.03458994  1
  O  O415  1  0.49065307  0.33509297  0.36389919  1
  O  O416  1  0.49106090  0.32817540  0.68878331  1
  O  O417  1  0.50115482  0.83853788  0.03126682  1
  O  O418  1  0.49122242  0.82612371  0.35748569  1
  O  O419  1  0.49650217  0.83393789  0.69413045  1
  O  O420  1  0.99231141  0.33216677  0.02759926  1
  O  O421  1  0.99229129  0.32831710  0.36595276  1
  O  O422  1  0.98852015  0.32787394  0.70122504  1
  O  O423  1  0.99504596  0.83572408  0.03580886  1
  O  O424  1  0.99188309  0.83150898  0.36593444  1
  O  O425  1  0.99217868  0.83511190  0.69406304  1
  O  O426  1  0.17496405  0.00502799  0.13774495  1
  O  O427  1  0.17782961  0.00604069  0.47022143  1
  O  O428  1  0.17195384  -0.00120995  0.80322971  1
  O  O429  1  0.15060336  0.49870013  0.13614114  1
  O  O430  1  0.16983412  0.51016642  0.47470930  1
  O  O431  1  0.15472882  0.50954916  0.79737389  1
  O  O432  1  0.66791870  0.01428345  0.13109291  1
  O  O433  1  0.66004267  0.00630666  0.46140280  1
  O  O434  1  0.65335199  0.01069063  0.80061870  1
  O  O435  1  0.66949197  0.50789708  0.13955581  1
  O  O436  1  0.67031837  0.50846077  0.47297475  1
  O  O437  1  0.67024503  0.51081891  0.80776185  1
  O  O438  1  0.01352661  0.16663472  0.29837807  1
  O  O439  1  0.00433944  0.15935705  0.63478503  1
  O  O440  1  0.00364642  0.15938184  0.96893906  1
  O  O441  1  0.00632478  0.67063566  0.30647775  1
  O  O442  1  0.00497871  0.66527581  0.63464431  1
  O  O443  1  0.00196844  0.67091953  0.97096849  1
  O  O444  1  0.50995809  0.17278083  0.30323353  1
  O  O445  1  0.50293433  0.16122055  0.63186240  1
  O  O446  1  0.50364492  0.17513725  0.97089789  1
  O  O447  1  0.50743063  0.66106843  0.30284586  1
  O  O448  1  0.51470513  0.67067660  0.63880606  1
  O  O449  1  0.51313586  0.67143540  0.97358735  1
  O  O450  1  0.32209761  0.48697074  0.19239113  1
  O  O451  1  0.33729848  0.49359469  0.53116634  1
  O  O452  1  0.32023760  0.48994913  0.86133466  1
  O  O453  1  0.33584382  0.98707268  0.19589077  1
  O  O454  1  0.33880410  0.98990293  0.52927741  1
  O  O455  1  0.34021701  0.99161946  0.86317533  1
  O  O456  1  0.83815438  0.49309170  0.20225139  1
  O  O457  1  0.83397986  0.49035679  0.53245025  1
  O  O458  1  0.83752624  0.49142929  0.86645932  1
  O  O459  1  0.83618785  0.99512475  0.19890500  1
  O  O460  1  0.82750017  0.99163053  0.52964168  1
  O  O461  1  0.82430499  1.00364195  0.85605908  1
