# generated using pymatgen
data_Na31Fe20(SO4)36
_symmetry_space_group_name_H-M   'P 1'
_cell_length_a   18.07183162
_cell_length_b   18.06898312
_cell_length_c   19.71421702
_cell_angle_alpha   107.59419963
_cell_angle_beta   107.59443044
_cell_angle_gamma   90.70155378
_symmetry_Int_Tables_number   1
_chemical_formula_structural   Na31Fe20(SO4)36
_chemical_formula_sum   'Na62 Fe40 S72 O288'
_cell_volume   5811.12309983
_cell_formula_units_Z   2
loop_
 _symmetry_equiv_pos_site_id
 _symmetry_equiv_pos_as_xyz
  1  'x, y, z'
loop_
 _atom_site_type_symbol
 _atom_site_label
 _atom_site_symmetry_multiplicity
 _atom_site_fract_x
 _atom_site_fract_y
 _atom_site_fract_z
 _atom_site_occupancy
  Na  Na0  1  0.14116801  0.37102645  0.08703848  1
  Na  Na1  1  0.12604124  0.37193512  0.41631944  1
  Na  Na2  1  0.13829303  0.35747661  0.74281396  1
  Na  Na3  1  0.12897857  0.87123812  0.08623142  1
  Na  Na4  1  0.13364820  0.86872889  0.42119047  1
  Na  Na5  1  0.13276938  0.84402686  0.73621751  1
  Na  Na6  1  0.63875814  0.36983961  0.09004666  1
  Na  Na7  1  0.63128679  0.36922604  0.41265546  1
  Na  Na8  1  0.63302357  0.36483177  0.75142399  1
  Na  Na9  1  0.63186761  0.86984054  0.08303839  1
  Na  Na10  1  0.63779106  0.86075520  0.41660015  1
  Na  Na11  1  0.65531958  0.86701952  0.77061988  1
  Na  Na12  1  0.37367329  0.14141016  0.25382507  1
  Na  Na13  1  0.37116524  0.15498819  0.60774906  1
  Na  Na14  1  0.36966547  0.12830284  0.91199511  1
  Na  Na15  1  0.36480228  0.62899852  0.24758826  1
  Na  Na16  1  0.35675588  0.66692117  0.58880644  1
  Na  Na17  1  0.36407468  0.63373222  0.91523512  1
  Na  Na18  1  0.87248591  0.11544007  0.24906884  1
  Na  Na19  1  0.86227118  0.13059957  0.57860479  1
  Na  Na20  1  0.87028690  0.12875159  0.91922733  1
  Na  Na21  1  0.86930138  0.63004897  0.25238247  1
  Na  Na22  1  0.85817243  0.63685307  0.58316727  1
  Na  Na23  1  0.85917752  0.63776321  0.91000460  1
  Na  Na24  1  0.98863635  0.51692009  0.74554546  1
  Na  Na25  1  0.49908865  0.54304988  0.42825261  1
  Na  Na26  1  0.47657091  0.50734806  0.08551272  1
  Na  Na27  1  0.49834438  0.00331739  0.41164757  1
  Na  Na28  1  0.49371302  -0.00311815  0.78177040  1
  Na  Na29  1  0.99823307  0.50945098  0.09678349  1
  Na  Na30  1  0.49094916  0.50233271  0.75036556  1
  Na  Na31  1  0.49732200  0.03901379  0.06653543  1
  Na  Na32  1  1.01261836  -0.02723052  0.75196624  1
  Na  Na33  1  -0.00736257  0.96095777  0.91423961  1
  Na  Na34  1  0.54752447  0.48711178  0.26248127  1
  Na  Na35  1  0.51271910  0.98181093  0.58986061  1
  Na  Na36  1  0.05322628  0.49620438  0.93343626  1
  Na  Na37  1  0.01004776  0.99326210  0.56765098  1
  Na  Na38  1  0.50392370  0.45054264  0.90616396  1
  Na  Na39  1  0.48038173  0.52799203  0.58039350  1
  Na  Na40  1  0.51960456  1.00856446  0.23758654  1
  Na  Na41  1  0.00195341  0.50583681  0.55475248  1
  Na  Na42  1  0.74956572  0.24842320  0.66996649  1
  Na  Na43  1  0.73886812  0.23922627  0.33546384  1
  Na  Na44  1  0.74009956  0.74372958  0.67992740  1
  Na  Na45  1  0.76066368  0.77870591  -0.02140608  1
  Na  Na46  1  0.24043062  0.74284124  0.00519879  1
  Na  Na47  1  0.75704645  0.75554012  0.32725468  1
  Na  Na48  1  0.74545167  0.24428087  0.00670065  1
  Na  Na49  1  0.25998947  0.25249630  -0.00703485  1
  Na  Na50  1  0.24319625  0.74016158  0.34891361  1
  Na  Na51  1  0.24452961  0.24692942  0.33895015  1
  Na  Na52  1  0.27058294  0.25863453  0.81201248  1
  Na  Na53  1  0.25066644  0.75037253  0.82729465  1
  Na  Na54  1  0.74076389  0.23730045  0.17495543  1
  Na  Na55  1  0.75009537  0.24888844  0.49879900  1
  Na  Na56  1  0.24499361  0.24379809  0.51496569  1
  Na  Na57  1  0.74945106  0.24674074  0.84058826  1
  Na  Na58  1  0.25451326  0.25150025  0.16532884  1
  Na  Na59  1  0.76351554  0.76968049  0.15981174  1
  Na  Na60  1  0.73127126  0.73174031  0.50551102  1
  Na  Na61  1  0.23675068  0.73372504  0.17298323  1
  Fe  Fe62  1  0.96885586  0.30848250  0.78904756  1
  Fe  Fe63  1  0.47273309  0.29934832  0.12659218  1
  Fe  Fe64  1  0.96315394  0.81740407  0.12401453  1
  Fe  Fe65  1  0.96219575  0.31183167  0.12377935  1
  Fe  Fe66  1  0.96185281  0.30234614  0.44952531  1
  Fe  Fe67  1  0.46354756  0.80562161  0.11897264  1
  Fe  Fe68  1  0.46937459  0.80321783  0.45707929  1
  Fe  Fe69  1  0.46431676  0.80501680  0.78291194  1
  Fe  Fe70  1  0.96190475  0.80532189  0.44623499  1
  Fe  Fe71  1  0.46565633  0.31116593  0.45403535  1
  Fe  Fe72  1  0.19103769  0.03301767  0.04632397  1
  Fe  Fe73  1  0.18692773  0.53715440  0.37957276  1
  Fe  Fe74  1  0.68659003  0.53844531  0.71401585  1
  Fe  Fe75  1  0.70076961  0.03124864  0.04114729  1
  Fe  Fe76  1  0.18940678  0.53599061  0.70956689  1
  Fe  Fe77  1  0.19294802  0.03441133  0.38120388  1
  Fe  Fe78  1  0.69940485  0.02911595  0.37280150  1
  Fe  Fe79  1  0.19466371  0.03204703  0.71545812  1
  Fe  Fe80  1  0.69176874  0.53725969  0.04805792  1
  Fe  Fe81  1  0.69889678  0.03365287  0.71541633  1
  Fe  Fe82  1  0.53286765  0.20029970  0.87377225  1
  Fe  Fe83  1  0.03212431  0.19097720  0.21102085  1
  Fe  Fe84  1  0.03510453  0.18880361  0.54493305  1
  Fe  Fe85  1  0.02773708  0.69939374  0.87795342  1
  Fe  Fe86  1  0.03681550  0.18926973  0.87971351  1
  Fe  Fe87  1  0.03450504  0.69526373  0.21490304  1
  Fe  Fe88  1  0.53245014  0.69052272  0.21404766  1
  Fe  Fe89  1  0.53398566  0.19358712  0.54666128  1
  Fe  Fe90  1  0.03485496  0.69385433  0.54485332  1
  Fe  Fe91  1  0.53453375  0.69490938  0.88484447  1
  Fe  Fe92  1  0.29882651  0.46839288  0.95255536  1
  Fe  Fe93  1  0.30844294  0.95964766  0.61815899  1
  Fe  Fe94  1  0.81407835  0.96327333  0.61975114  1
  Fe  Fe95  1  0.30733513  0.96653517  0.28646519  1
  Fe  Fe96  1  0.30605934  0.46802209  0.28676707  1
  Fe  Fe97  1  0.30352611  0.46389023  0.61584128  1
  Fe  Fe98  1  0.30599440  0.96286257  0.95194850  1
  Fe  Fe99  1  0.80226359  0.46747926  0.28976841  1
  Fe  Fe100  1  0.80421082  0.46347778  0.61815843  1
  Fe  Fe101  1  0.81055431  0.46912101  0.95515981  1
  S  S102  1  0.35797107  0.13754798  0.08120800  1
  S  S103  1  0.36054177  0.14155715  0.41763641  1
  S  S104  1  0.36095622  0.13323850  0.75177828  1
  S  S105  1  0.35730989  0.64020228  0.08133354  1
  S  S106  1  0.35668775  0.63981868  0.41963282  1
  S  S107  1  0.36188822  0.63760959  0.74762539  1
  S  S108  1  0.86068277  0.14300024  0.08388716  1
  S  S109  1  0.85982107  0.13994016  0.41823084  1
  S  S110  1  0.86239803  0.14305512  0.74957898  1
  S  S111  1  0.85750573  0.64274889  0.08383518  1
  S  S112  1  0.85896390  0.63943992  0.41848144  1
  S  S113  1  0.85845104  0.63571812  0.74859772  1
  S  S114  1  0.14012058  0.35895200  0.24874778  1
  S  S115  1  0.13590039  0.35966887  0.58082500  1
  S  S116  1  0.14439156  0.35277722  0.91436714  1
  S  S117  1  0.14495129  0.86018176  0.25127858  1
  S  S118  1  0.13636952  0.86294316  0.58211385  1
  S  S119  1  0.14085200  0.85840012  0.91469727  1
  S  S120  1  0.64448343  0.35553894  0.24859281  1
  S  S121  1  0.64103002  0.35894507  0.58667437  1
  S  S122  1  0.64612684  0.36175415  0.91742459  1
  S  S123  1  0.63615300  0.85689869  0.25031790  1
  S  S124  1  0.64379589  0.86204612  0.58234886  1
  S  S125  1  0.63190852  0.86476755  0.91783398  1
  S  S126  1  0.06878492  0.17213359  0.04303698  1
  S  S127  1  0.07168718  0.17443006  0.37880251  1
  S  S128  1  0.06795049  0.16526755  0.70898654  1
  S  S129  1  0.05980724  0.67235234  0.04337931  1
  S  S130  1  0.06807846  0.67465452  0.37555910  1
  S  S131  1  0.06253260  0.65963510  0.70464265  1
  S  S132  1  0.57315519  0.17457662  0.03786419  1
  S  S133  1  0.56681774  0.16485005  0.37570534  1
  S  S134  1  0.57302427  0.17022688  0.70848934  1
  S  S135  1  0.56452884  0.66477462  0.04159582  1
  S  S136  1  0.56174662  0.66948326  0.37390994  1
  S  S137  1  0.56209804  0.67050288  0.71257645  1
  S  S138  1  0.33847580  0.42995560  0.12698646  1
  S  S139  1  0.32779168  0.43389034  0.45592283  1
  S  S140  1  0.32713795  0.43876128  0.78903091  1
  S  S141  1  0.33137736  0.93362104  0.12518473  1
  S  S142  1  0.33433429  0.93568589  0.45816378  1
  S  S143  1  0.32411489  0.92504577  0.78961505  1
  S  S144  1  0.83027473  0.43593470  0.12366527  1
  S  S145  1  0.82799298  0.42636917  0.45819743  1
  S  S146  1  0.83564010  0.43126121  0.79435356  1
  S  S147  1  0.82102012  0.93295496  0.12085958  1
  S  S148  1  0.82844550  0.93163473  0.45624447  1
  S  S149  1  0.83664700  0.94035014  0.78701274  1
  S  S150  1  0.43150533  0.33552308  0.29492961  1
  S  S151  1  0.43669629  0.33858921  0.62345982  1
  S  S152  1  0.43256022  0.32890423  0.95938666  1
  S  S153  1  0.42891809  0.82835559  0.29167446  1
  S  S154  1  0.43907346  0.84646760  0.63206312  1
  S  S155  1  0.42816916  0.82885568  0.95825222  1
  S  S156  1  0.92740148  0.32459703  0.28814961  1
  S  S157  1  0.93284959  0.32783657  0.62542069  1
  S  S158  1  0.93677766  0.33380663  0.96085967  1
  S  S159  1  0.93215007  0.82675139  0.28646975  1
  S  S160  1  0.93541993  0.82892748  0.61878931  1
  S  S161  1  0.93625058  0.82860920  0.96067645  1
  S  S162  1  0.17636389  0.07192276  0.21207347  1
  S  S163  1  0.17361422  0.06930647  0.54473938  1
  S  S164  1  0.16908524  0.06273184  0.87588106  1
  S  S165  1  0.16894665  0.56578691  0.20920496  1
  S  S166  1  0.17130923  0.56951808  0.54239142  1
  S  S167  1  0.16643076  0.56810574  0.87249824  1
  S  S168  1  0.66500626  0.06609435  0.20234373  1
  S  S169  1  0.66923938  0.06801128  0.54000569  1
  S  S170  1  0.67260442  0.07296908  0.87642115  1
  S  S171  1  0.66673373  0.56700835  0.20704336  1
  S  S172  1  0.66381339  0.55986274  0.54688304  1
  S  S173  1  0.66734439  0.56912164  0.87823851  1
  O  O174  1  0.37048355  0.21748951  0.07547308  1
  O  O175  1  0.37142251  0.21861558  0.40626005  1
  O  O176  1  0.36736643  0.21130492  0.74610976  1
  O  O177  1  0.37158501  0.71838823  0.07165104  1
  O  O178  1  0.37028784  0.72038274  0.41616452  1
  O  O179  1  0.37312699  0.71448005  0.73693078  1
  O  O180  1  0.86770395  0.22625591  0.08229549  1
  O  O181  1  0.86418027  0.22323285  0.41650538  1
  O  O182  1  0.87338732  0.22295379  0.74301383  1
  O  O183  1  0.86466511  0.72365188  0.08131304  1
  O  O184  1  0.86966160  0.71589090  0.40417686  1
  O  O185  1  0.86336761  0.70948926  0.73446684  1
  O  O186  1  0.27526947  0.13050054  0.08230747  1
  O  O187  1  0.27907789  0.13430072  0.42062878  1
  O  O188  1  0.28545927  0.12052243  0.76759038  1
  O  O189  1  0.28043272  0.63466584  0.08969003  1
  O  O190  1  0.27407014  0.63182058  0.41876888  1
  O  O191  1  0.28316973  0.63093232  0.75667540  1
  O  O192  1  0.77817081  0.13198588  0.08836587  1
  O  O193  1  0.78082339  0.12885863  0.42810465  1
  O  O194  1  0.78215861  0.13618812  0.75545406  1
  O  O195  1  0.78073659  0.63133692  0.09580914  1
  O  O196  1  0.78667887  0.63499584  0.43608209  1
  O  O197  1  0.78241326  0.62107993  0.76072373  1
  O  O198  1  0.13306575  0.27888494  0.25567359  1
  O  O199  1  0.12719613  0.27993423  0.58654041  1
  O  O200  1  0.13502489  0.27123520  0.91720851  1
  O  O201  1  0.13832772  0.77872769  0.25503961  1
  O  O202  1  0.12621220  0.78563825  0.59181764  1
  O  O203  1  0.12987146  0.77711324  0.91922240  1
  O  O204  1  0.63966129  0.27534263  0.25024884  1
  O  O205  1  0.63010956  0.28074816  0.59642438  1
  O  O206  1  0.63779150  0.28088542  0.92163405  1
  O  O207  1  0.62116444  0.78054057  0.26279806  1
  O  O208  1  0.63897561  0.78437436  0.58945376  1
  O  O209  1  0.61809987  0.79144450  0.93597766  1
  O  O210  1  0.21776865  0.36922811  0.23750718  1
  O  O211  1  0.21394704  0.36938348  0.57053615  1
  O  O212  1  0.22412329  0.36306266  0.90749702  1
  O  O213  1  0.22278920  0.87033964  0.23997934  1
  O  O214  1  0.21365940  0.87341789  0.57245882  1
  O  O215  1  0.22345468  0.86602811  0.91350638  1
  O  O216  1  0.72055316  0.37076184  0.23462596  1
  O  O217  1  0.72149702  0.36416649  0.58050357  1
  O  O218  1  0.72726785  0.37239342  0.91334522  1
  O  O219  1  0.71262544  0.85985952  0.24087555  1
  O  O220  1  0.72008669  0.87628080  0.56979859  1
  O  O221  1  0.70663017  0.86582418  0.90434636  1
  O  O222  1  0.41264792  0.12576329  0.14740560  1
  O  O223  1  0.41564034  0.13617471  0.48871920  1
  O  O224  1  0.42495684  0.12148012  0.81589811  1
  O  O225  1  0.41843683  0.62978960  0.14785248  1
  O  O226  1  0.41048003  0.62599460  0.48603938  1
  O  O227  1  0.42086613  0.62986114  0.81650364  1
  O  O228  1  0.91601159  0.13721746  0.15492811  1
  O  O229  1  0.91933789  0.13490742  0.48830660  1
  O  O230  1  0.91944086  0.13598819  0.81890981  1
  O  O231  1  0.92013934  0.62771223  0.14628601  1
  O  O232  1  0.92525797  0.63046909  0.48215928  1
  O  O233  1  0.92077680  0.63081582  0.81798833  1
  O  O234  1  0.36658608  0.07953877  0.01144210  1
  O  O235  1  0.37287333  0.07972198  0.35298343  1
  O  O236  1  0.36362384  0.07398233  0.68130682  1
  O  O237  1  0.36506528  0.57990210  0.01287847  1
  O  O238  1  0.36716016  0.58295517  0.35003323  1
  O  O239  1  0.36995256  0.57549506  0.68121165  1
  O  O240  1  0.87057532  0.08895985  0.01753491  1
  O  O241  1  0.86785325  0.08584216  0.35119643  1
  O  O242  1  0.87094835  0.08514350  0.68171745  1
  O  O243  1  0.86096770  0.58721797  0.01143439  1
  O  O244  1  0.85952155  0.57834537  0.34779499  1
  O  O245  1  0.87028566  0.57164535  0.68391625  1
  O  O246  1  0.07902397  0.36615021  0.18180475  1
  O  O247  1  0.07520809  0.37063527  0.51482156  1
  O  O248  1  0.08644126  0.36244394  0.84546171  1
  O  O249  1  0.08410590  0.87153265  0.18716672  1
  O  O250  1  0.07566717  0.87317017  0.51551865  1
  O  O251  1  0.08631266  0.87062442  0.84837974  1
  O  O252  1  0.58195023  0.36608458  0.18159335  1
  O  O253  1  0.58465096  0.36532104  0.51698401  1
  O  O254  1  0.58870892  0.37265474  0.85176675  1
  O  O255  1  0.57465244  0.86521778  0.18237028  1
  O  O256  1  0.58156896  0.87124830  0.51510167  1
  O  O257  1  0.56920074  0.87263712  0.85157171  1
  O  O258  1  0.13521017  0.41657850  0.31842225  1
  O  O259  1  0.12996547  0.41758305  0.65017496  1
  O  O260  1  0.13512401  0.40901211  0.98143922  1
  O  O261  1  0.14278271  0.91588544  0.32332909  1
  O  O262  1  0.12790944  0.92348965  0.65039224  1
  O  O263  1  0.13308480  0.91547216  0.98496683  1
  O  O264  1  0.63702776  0.41247380  0.31631935  1
  O  O265  1  0.63344303  0.41889496  0.65414504  1
  O  O266  1  0.63689660  0.41773428  0.98725096  1
  O  O267  1  0.62859718  0.91943305  0.31730673  1
  O  O268  1  0.63499981  0.92238207  0.65023349  1
  O  O269  1  0.62820786  0.93033866  0.98542990  1
  O  O270  1  0.03017069  0.19982712  0.10243537  1
  O  O271  1  0.03001607  0.20158685  0.43670205  1
  O  O272  1  0.03106530  0.19544770  0.76968421  1
  O  O273  1  0.02423266  0.71161955  0.10357653  1
  O  O274  1  0.03293534  0.70680647  0.43751153  1
  O  O275  1  0.03009285  0.68008944  0.76725951  1
  O  O276  1  0.53179659  0.19569989  0.09418784  1
  O  O277  1  0.53429365  0.19585961  0.44056226  1
  O  O278  1  0.53665589  0.19437211  0.76775378  1
  O  O279  1  0.53008639  0.69579856  0.10406119  1
  O  O280  1  0.52646499  0.70268792  0.43402785  1
  O  O281  1  0.53747243  0.70647982  0.78208293  1
  O  O282  1  0.31890364  0.46393341  0.06522635  1
  O  O283  1  0.29650707  0.46836612  0.39387070  1
  O  O284  1  0.29025606  0.47286681  0.72650489  1
  O  O285  1  0.30138957  0.97069959  0.06460180  1
  O  O286  1  0.30333005  0.97463998  0.39871363  1
  O  O287  1  0.29285196  0.95874509  0.72666671  1
  O  O288  1  0.80120293  0.47471756  0.06367418  1
  O  O289  1  0.80596852  0.45826577  0.39617614  1
  O  O290  1  0.80349721  0.46144438  0.73027653  1
  O  O291  1  0.79113854  0.97134286  0.06003096  1
  O  O292  1  0.79872856  0.96812766  0.39758990  1
  O  O293  1  0.79974716  0.97517500  0.72231028  1
  O  O294  1  0.46578331  0.30975717  0.23412637  1
  O  O295  1  0.46791082  0.30363371  0.55805170  1
  O  O296  1  0.47364229  0.30437827  0.90278515  1
  O  O297  1  0.46110934  0.79743787  0.22793553  1
  O  O298  1  0.47047987  0.82377513  0.56883015  1
  O  O299  1  0.45865449  0.79699635  0.89383844  1
  O  O300  1  0.97054174  0.29761129  0.23111838  1
  O  O301  1  0.96925803  0.29820914  0.56499232  1
  O  O302  1  0.97448971  0.30451979  0.90050142  1
  O  O303  1  0.97412131  0.79318599  0.22793199  1
  O  O304  1  0.96469834  0.79497168  0.55232066  1
  O  O305  1  0.97619649  0.79689829  0.90178407  1
  O  O306  1  0.20437335  0.03293048  0.27181158  1
  O  O307  1  0.20322653  0.03335453  0.60603938  1
  O  O308  1  0.19825199  0.02507948  0.93608722  1
  O  O309  1  0.19848246  0.53074027  0.27222852  1
  O  O310  1  0.20042296  0.52971179  0.60207835  1
  O  O311  1  0.19265179  0.52753500  0.92932955  1
  O  O312  1  0.68556056  0.02632810  0.26006941  1
  O  O313  1  0.70119746  0.03669078  0.60365967  1
  O  O314  1  0.69498488  0.03903299  0.93839292  1
  O  O315  1  0.69531351  0.53085545  0.26622413  1
  O  O316  1  0.70326905  0.52583648  0.61070482  1
  O  O317  1  0.69720349  0.53140909  0.93855710  1
  O  O318  1  0.08809308  0.09092418  0.03603017  1
  O  O319  1  0.09659680  0.09709057  0.37878489  1
  O  O320  1  0.08423952  0.08259880  0.70324710  1
  O  O321  1  0.06752129  0.59136250  0.04367743  1
  O  O322  1  0.09023714  0.59648078  0.37634187  1
  O  O323  1  0.07668705  0.57382304  0.68760889  1
  O  O324  1  0.59913198  0.09488513  0.03329059  1
  O  O325  1  0.58874941  0.08374051  0.37343561  1
  O  O326  1  0.59276535  0.08780482  0.69658088  1
  O  O327  1  0.57678885  0.58076343  0.03327331  1
  O  O328  1  0.57474762  0.58822628  0.37002376  1
  O  O329  1  0.57892716  0.58761749  0.71062183  1
  O  O330  1  0.42271298  0.41476636  0.14441578  1
  O  O331  1  0.41049895  0.41824008  0.46240550  1
  O  O332  1  0.40948216  0.43244133  0.79356495  1
  O  O333  1  0.41317214  0.91553178  0.13036961  1
  O  O334  1  0.41668477  0.91986700  0.46146606  1
  O  O335  1  0.40514439  0.90738856  0.79294038  1
  O  O336  1  0.91212088  0.41924821  0.12714659  1
  O  O337  1  0.91010167  0.40445646  0.47093628  1
  O  O338  1  0.91968620  0.41811492  0.80253110  1
  O  O339  1  0.89745412  0.90634992  0.11548680  1
  O  O340  1  0.90985502  0.91222586  0.46129085  1
  O  O341  1  0.91646836  0.92585587  0.78560006  1
  O  O342  1  0.41534455  0.41921137  0.30826313  1
  O  O343  1  0.41428837  0.41896644  0.62209738  1
  O  O344  1  0.41139900  0.41044122  0.96234818  1
  O  O345  1  0.41244392  0.91107205  0.29715495  1
  O  O346  1  0.42640426  0.93286508  0.64758247  1
  O  O347  1  0.41263314  0.91172190  0.96646969  1
  O  O348  1  0.90031692  0.40023276  0.28576830  1
  O  O349  1  0.91387569  0.40927348  0.63135136  1
  O  O350  1  0.91968741  0.41621170  0.96675188  1
  O  O351  1  0.90971431  0.90148817  0.28262708  1
  O  O352  1  0.91990816  0.91213166  0.62208993  1
  O  O353  1  0.91579610  0.90558695  0.95931213  1
  O  O354  1  0.09881306  0.09631514  0.21068485  1
  O  O355  1  0.09181258  0.08658431  0.54115315  1
  O  O356  1  0.08749513  0.08134624  0.87126279  1
  O  O357  1  0.09118518  0.59405154  0.21036654  1
  O  O358  1  0.09085294  0.58897855  0.54109532  1
  O  O359  1  0.08589689  0.59095043  0.87154990  1
  O  O360  1  0.58232275  0.08064561  0.18717573  1
  O  O361  1  0.58544656  0.08238317  0.53319545  1
  O  O362  1  0.59210981  0.09622259  0.86517563  1
  O  O363  1  0.58211929  0.58059467  0.19901874  1
  O  O364  1  0.58490692  0.57525918  0.55117566  1
  O  O365  1  0.58410673  0.58336802  0.87149069  1
  O  O366  1  0.13929269  0.22645084  0.06084045  1
  O  O367  1  0.14009608  0.23260042  0.39842274  1
  O  O368  1  0.13940489  0.21622665  0.72522299  1
  O  O369  1  0.13557527  0.71836709  0.05967252  1
  O  O370  1  0.13495335  0.72945973  0.38663309  1
  O  O371  1  0.13582635  0.70904855  0.72302723  1
  O  O372  1  0.64232604  0.23184212  0.05813245  1
  O  O373  1  0.63714046  0.21829421  0.39092653  1
  O  O374  1  0.64410510  0.22412612  0.72633192  1
  O  O375  1  0.63723886  0.71316390  0.05709705  1
  O  O376  1  0.63475396  0.71838292  0.38771696  1
  O  O377  1  0.63230181  0.71750837  0.71984180  1
  O  O378  1  0.28590374  0.35723811  0.10706958  1
  O  O379  1  0.27763560  0.36207479  0.44168294  1
  O  O380  1  0.28115530  0.36420614  0.77303258  1
  O  O381  1  0.27905792  0.86271769  0.10900229  1
  O  O382  1  0.28320674  0.86416426  0.44047061  1
  O  O383  1  0.27324303  0.85551600  0.77842627  1
  O  O384  1  0.77868728  0.36359230  0.10388058  1
  O  O385  1  0.77319627  0.35755089  0.44487923  1
  O  O386  1  0.78773512  0.35830678  0.78217587  1
  O  O387  1  0.76431373  0.86218126  0.09995708  1
  O  O388  1  0.77706336  0.86018667  0.44199827  1
  O  O389  1  0.78569874  0.86846569  0.76989223  1
  O  O390  1  0.35903607  0.28419542  0.27842001  1
  O  O391  1  0.36683998  0.28737439  0.61172900  1
  O  O392  1  0.36151616  0.27390484  0.93850009  1
  O  O393  1  0.35789615  0.77789082  0.27883898  1
  O  O394  1  0.36568446  0.80042501  0.61764815  1
  O  O395  1  0.35652304  0.77857561  0.94520402  1
  O  O396  1  0.86249531  0.26463239  0.27250625  1
  O  O397  1  0.86192102  0.27527695  0.61012906  1
  O  O398  1  0.86546316  0.28153203  0.94350774  1
  O  O399  1  0.86482420  0.76760779  0.26971866  1
  O  O400  1  0.86306564  0.78107408  0.60673924  1
  O  O401  1  0.86871068  0.77224746  0.94553563  1
  O  O402  1  0.23376931  0.13980140  0.22844959  1
  O  O403  1  0.22480671  0.13998867  0.55917433  1
  O  O404  1  0.22244770  0.13238523  0.89196869  1
  O  O405  1  0.22603585  0.63374848  0.22516774  1
  O  O406  1  0.22367076  0.63834996  0.55780906  1
  O  O407  1  0.22103663  0.63785384  0.88920307  1
  O  O408  1  0.72008701  0.13733786  0.22553809  1
  O  O409  1  0.71750774  0.14192178  0.55489647  1
  O  O410  1  0.72927591  0.14145651  0.89265111  1
  O  O411  1  0.71427637  0.64047010  0.22156787  1
  O  O412  1  0.71408493  0.63317678  0.56344672  1
  O  O413  1  0.71695724  0.64137312  0.89549373  1
  O  O414  1  0.48732410  0.33411732  0.03501387  1
  O  O415  1  0.49099000  0.33118330  0.36577772  1
  O  O416  1  0.49920390  0.34841630  0.69370217  1
  O  O417  1  0.48979939  0.82890403  0.02882837  1
  O  O418  1  0.49041187  0.83193916  0.36332283  1
  O  O419  1  0.50007557  0.84246661  0.70192946  1
  O  O420  1  0.99472588  0.33601729  0.03401504  1
  O  O421  1  0.98683010  0.33328524  0.36295802  1
  O  O422  1  0.99290959  0.33052108  0.69809618  1
  O  O423  1  0.99568166  0.83363301  0.03533135  1
  O  O424  1  0.99103235  0.83060321  0.36071066  1
  O  O425  1  0.99875871  0.83339682  0.68740448  1
  O  O426  1  0.17143640  0.01201894  0.13883828  1
  O  O427  1  0.17073345  0.00919395  0.47232404  1
  O  O428  1  0.16354800  0.00287357  0.80239300  1
  O  O429  1  0.15784350  0.50486331  0.13768468  1
  O  O430  1  0.16528772  0.50854589  0.46924006  1
  O  O431  1  0.15751798  0.51103656  0.79651006  1
  O  O432  1  0.67167328  0.01149157  0.12898364  1
  O  O433  1  0.66905671  0.00833913  0.46886709  1
  O  O434  1  0.67115533  0.01102522  0.80525039  1
  O  O435  1  0.66506865  0.50906324  0.13299832  1
  O  O436  1  0.65916717  0.50184877  0.47540202  1
  O  O437  1  0.66704735  0.50992240  0.80583024  1
  O  O438  1  0.01408561  0.16947145  0.30512464  1
  O  O439  1  0.00871951  0.16298059  0.63624045  1
  O  O440  1  0.01035408  0.17138604  0.97020384  1
  O  O441  1  0.00598723  0.66667113  0.30276878  1
  O  O442  1  0.00367240  0.66447700  0.63448079  1
  O  O443  1  0.00628229  0.67074091  0.96780635  1
  O  O444  1  0.50577873  0.15797420  0.30527522  1
  O  O445  1  0.51317975  0.17161641  0.63681398  1
  O  O446  1  0.51575857  0.17091386  0.96378757  1
  O  O447  1  0.50330884  0.66791651  0.29957879  1
  O  O448  1  0.49484088  0.66496117  0.64657236  1
  O  O449  1  0.50446179  0.66648220  0.97059154  1
  O  O450  1  0.32948942  0.48892743  0.19556007  1
  O  O451  1  0.32960160  0.49436948  0.52766209  1
  O  O452  1  0.32404157  0.49528228  0.86180639  1
  O  O453  1  0.33489371  0.99319887  0.19820067  1
  O  O454  1  0.33766767  0.99291907  0.53202241  1
  O  O455  1  0.32838926  0.98782374  0.86128380  1
  O  O456  1  0.83025428  0.49230540  0.19611019  1
  O  O457  1  0.83057594  0.48894716  0.52988012  1
  O  O458  1  0.83433364  0.49233927  0.86471336  1
  O  O459  1  0.82884190  0.98823370  0.19359271  1
  O  O460  1  0.83393556  0.99106235  0.53122429  1
  O  O461  1  0.83932063  0.99969187  0.85731312  1
