# generated using pymatgen
data_Na31Fe20(SO4)36
_symmetry_space_group_name_H-M   'P 1'
_cell_length_a   18.08048463
_cell_length_b   18.07937077
_cell_length_c   19.70517288
_cell_angle_alpha   107.60535198
_cell_angle_beta   107.57156811
_cell_angle_gamma   90.75433471
_symmetry_Int_Tables_number   1
_chemical_formula_structural   Na31Fe20(SO4)36
_chemical_formula_sum   'Na62 Fe40 S72 O288'
_cell_volume   5814.32025461
_cell_formula_units_Z   2
loop_
 _symmetry_equiv_pos_site_id
 _symmetry_equiv_pos_as_xyz
  1  'x, y, z'
loop_
 _atom_site_type_symbol
 _atom_site_label
 _atom_site_symmetry_multiplicity
 _atom_site_fract_x
 _atom_site_fract_y
 _atom_site_fract_z
 _atom_site_occupancy
  Na  Na0  1  0.13403613  0.36295287  0.08100788  1
  Na  Na1  1  0.12947023  0.35795187  0.41180166  1
  Na  Na2  1  0.13648942  0.36501294  0.75368747  1
  Na  Na3  1  0.14062645  0.86845933  0.09394754  1
  Na  Na4  1  0.12967557  0.85481651  0.40051800  1
  Na  Na5  1  0.12700339  0.86827827  0.74759865  1
  Na  Na6  1  0.65485297  0.36541239  0.09840009  1
  Na  Na7  1  0.62083089  0.35245630  0.40039480  1
  Na  Na8  1  0.64483600  0.37118213  0.76748640  1
  Na  Na9  1  0.63572913  0.86922230  0.08453099  1
  Na  Na10  1  0.64303695  0.87004981  0.42364312  1
  Na  Na11  1  0.63488908  0.86546995  0.74851315  1
  Na  Na12  1  0.37738952  0.14572806  0.26336754  1
  Na  Na13  1  0.35631232  0.12579586  0.56712558  1
  Na  Na14  1  0.36445733  0.14114947  0.92503231  1
  Na  Na15  1  0.35976649  0.63663935  0.24558097  1
  Na  Na16  1  0.36318590  0.62911831  0.57823326  1
  Na  Na17  1  0.37241181  0.63148874  0.92214000  1
  Na  Na18  1  0.86577140  0.13439475  0.24710003  1
  Na  Na19  1  0.86434649  0.12722111  0.58232274  1
  Na  Na20  1  0.86524633  0.13655444  0.91829060  1
  Na  Na21  1  0.87129825  0.63305903  0.23975176  1
  Na  Na22  1  0.86042087  0.63410176  0.57825999  1
  Na  Na23  1  0.83634421  0.64283595  0.92928578  1
  Na  Na24  1  0.99296802  0.52193257  0.38946460  1
  Na  Na25  1  0.49361210  0.02079203  0.38729739  1
  Na  Na26  1  0.55036923  0.48155220  0.03002851  1
  Na  Na27  1  0.48345555  0.03862552  0.14134451  1
  Na  Na28  1  0.98553587  0.50793956  0.75974798  1
  Na  Na29  1  1.01208093  -0.01798903  0.41632437  1
  Na  Na30  1  0.49872924  0.48968274  0.75327528  1
  Na  Na31  1  0.97117579  0.52075723  0.11406664  1
  Na  Na32  1  0.49173215  0.01551540  0.74418858  1
  Na  Na33  1  0.03461437  0.99780481  0.24926889  1
  Na  Na34  1  0.00404192  0.99748384  0.91392146  1
  Na  Na35  1  0.51540817  0.46541072  0.53394393  1
  Na  Na36  1  0.50746252  0.99334577  0.92604619  1
  Na  Na37  1  0.50259806  0.48241747  0.25467552  1
  Na  Na38  1  0.00758569  0.49396498  0.57789280  1
  Na  Na39  1  -0.04157633  0.52159662  0.94740458  1
  Na  Na40  1  -0.00679553  0.96183679  0.58297810  1
  Na  Na41  1  0.52499018  0.99566944  0.56964701  1
  Na  Na42  1  0.24436584  0.74413609  0.01154538  1
  Na  Na43  1  0.24921050  0.24527175  0.66444310  1
  Na  Na44  1  0.75101654  0.25167315  0.66924561  1
  Na  Na45  1  0.24353679  0.74877496  0.31813515  1
  Na  Na46  1  0.74479175  0.24880500  0.32059190  1
  Na  Na47  1  0.76907435  0.75885381  0.32323874  1
  Na  Na48  1  0.75732762  0.76246625  0.66068984  1
  Na  Na49  1  0.26751759  0.26009059  0.32748708  1
  Na  Na50  1  0.25094434  0.75324746  0.66448226  1
  Na  Na51  1  0.74629178  0.25117162  0.00807543  1
  Na  Na52  1  0.23782900  0.23977154  0.84764955  1
  Na  Na53  1  0.75432819  0.25593524  0.83961300  1
  Na  Na54  1  0.24521913  0.75202485  0.49400576  1
  Na  Na55  1  0.25558604  0.24561224  0.48844407  1
  Na  Na56  1  0.77668003  0.77466851  0.49496752  1
  Na  Na57  1  0.24448160  0.74403348  0.83941284  1
  Na  Na58  1  0.74199561  0.74731912  0.83662158  1
  Na  Na59  1  0.74716450  0.24936273  0.49722025  1
  Na  Na60  1  0.75721614  0.74958340  0.14682026  1
  Na  Na61  1  0.25805669  0.25666982  0.15423732  1
  Fe  Fe62  1  0.96544959  0.30824416  0.12409055  1
  Fe  Fe63  1  0.96415266  0.80706747  0.78848006  1
  Fe  Fe64  1  0.96289735  0.30647324  0.45186538  1
  Fe  Fe65  1  0.46617920  0.30791720  0.78932728  1
  Fe  Fe66  1  0.46518457  0.80720601  0.78619167  1
  Fe  Fe67  1  0.46398439  0.80499998  0.44880936  1
  Fe  Fe68  1  0.96980859  0.80084819  0.12147896  1
  Fe  Fe69  1  0.46372483  0.81245963  0.12344879  1
  Fe  Fe70  1  0.96368152  0.31326505  0.79334346  1
  Fe  Fe71  1  0.46891236  0.29958757  0.12075433  1
  Fe  Fe72  1  0.19245633  0.03593068  0.04829493  1
  Fe  Fe73  1  0.18999214  0.03722778  0.71535748  1
  Fe  Fe74  1  0.19259121  0.53465986  0.05058609  1
  Fe  Fe75  1  0.68951288  0.53479154  0.71697713  1
  Fe  Fe76  1  0.18975109  0.53234490  0.37523801  1
  Fe  Fe77  1  0.19322361  0.53454499  0.71488920  1
  Fe  Fe78  1  0.70263419  0.03246490  0.71156142  1
  Fe  Fe79  1  0.69190303  0.53666748  0.38096889  1
  Fe  Fe80  1  0.69370930  0.03173156  0.37685723  1
  Fe  Fe81  1  0.69684648  0.03633223  0.05079322  1
  Fe  Fe82  1  0.03404593  0.69359396  0.88465896  1
  Fe  Fe83  1  0.03125563  0.69867982  0.54606043  1
  Fe  Fe84  1  0.03486107  0.18830919  0.54556781  1
  Fe  Fe85  1  0.03590771  0.19182986  0.88168126  1
  Fe  Fe86  1  0.53421653  0.68917492  0.54437644  1
  Fe  Fe87  1  0.53584493  0.68857100  0.21060934  1
  Fe  Fe88  1  0.53165651  0.20021638  0.53906563  1
  Fe  Fe89  1  0.53477784  0.69449754  0.88424982  1
  Fe  Fe90  1  0.03394288  0.19023613  0.21520810  1
  Fe  Fe91  1  0.53681482  0.19185722  0.88285980  1
  Fe  Fe92  1  0.80359088  0.46571208  0.28042206  1
  Fe  Fe93  1  0.30179643  0.96634058  0.61605402  1
  Fe  Fe94  1  0.30722523  0.96721213  0.95385356  1
  Fe  Fe95  1  0.30625925  0.46342879  0.61857947  1
  Fe  Fe96  1  0.81404566  0.96261662  0.95888315  1
  Fe  Fe97  1  0.29855537  0.96821087  0.28690034  1
  Fe  Fe98  1  0.81106692  0.96344799  0.28491086  1
  Fe  Fe99  1  0.30883037  0.46288947  0.28646193  1
  Fe  Fe100  1  0.31376628  0.46199899  0.95765585  1
  Fe  Fe101  1  0.80468436  0.46478944  0.61918432  1
  S  S102  1  0.35520254  0.14119415  0.08041475  1
  S  S103  1  0.36033034  0.13623294  0.41705471  1
  S  S104  1  0.36039513  0.14018018  0.74978718  1
  S  S105  1  0.35924769  0.63968141  0.08335746  1
  S  S106  1  0.35907274  0.63973474  0.41619801  1
  S  S107  1  0.35797108  0.64151067  0.74995575  1
  S  S108  1  0.86083467  0.13995901  0.08264893  1
  S  S109  1  0.85869968  0.14292809  0.41812539  1
  S  S110  1  0.86091554  0.14505407  0.75325578  1
  S  S111  1  0.87021317  0.64359644  0.08433916  1
  S  S112  1  0.85978568  0.63681550  0.41905537  1
  S  S113  1  0.85848386  0.63934497  0.74915036  1
  S  S114  1  0.14061208  0.35374030  0.25283297  1
  S  S115  1  0.13907324  0.35903164  0.58497386  1
  S  S116  1  0.14150954  0.36068971  0.91531130  1
  S  S117  1  0.13661716  0.86597134  0.24914466  1
  S  S118  1  0.13975561  0.86106567  0.58522754  1
  S  S119  1  0.14220670  0.86000922  0.91645454  1
  S  S120  1  0.63798234  0.36369052  0.25041465  1
  S  S121  1  0.64343011  0.35835303  0.58490217  1
  S  S122  1  0.63966436  0.35478957  0.91597073  1
  S  S123  1  0.64018927  0.85675332  0.25035958  1
  S  S124  1  0.63799177  0.85801966  0.58248783  1
  S  S125  1  0.63867917  0.86302627  0.91598151  1
  S  S126  1  0.06602575  0.16829778  0.04232456  1
  S  S127  1  0.06106571  0.16623825  0.37886589  1
  S  S128  1  0.06647654  0.17199423  0.71055350  1
  S  S129  1  0.06934023  0.67239156  0.03921667  1
  S  S130  1  0.06962989  0.66571167  0.37620325  1
  S  S131  1  0.06554049  0.66707400  0.70916882  1
  S  S132  1  0.56729145  0.16742007  0.03832464  1
  S  S133  1  0.57144588  0.16639893  0.37183770  1
  S  S134  1  0.56813879  0.16973538  0.70565202  1
  S  S135  1  0.56524616  0.67972770  0.04767359  1
  S  S136  1  0.56991351  0.67416094  0.37786421  1
  S  S137  1  0.56352145  0.67056738  0.70725558  1
  S  S138  1  0.33193573  0.43101114  0.12461638  1
  S  S139  1  0.32189058  0.43121200  0.45525133  1
  S  S140  1  0.32886342  0.43211381  0.78960449  1
  S  S141  1  0.32929372  0.93530795  0.12410191  1
  S  S142  1  0.33075516  0.92502091  0.45808256  1
  S  S143  1  0.33173799  0.93582588  0.79150346  1
  S  S144  1  0.84110223  0.43274666  0.12872914  1
  S  S145  1  0.82710435  0.42963311  0.45805151  1
  S  S146  1  0.82959166  0.43949711  0.79231372  1
  S  S147  1  0.83311063  0.92900977  0.12414169  1
  S  S148  1  0.83460608  0.94043686  0.45521277  1
  S  S149  1  0.82895342  0.93197983  0.79493968  1
  S  S150  1  0.43213217  0.33486228  0.29055767  1
  S  S151  1  0.43199822  0.32759537  0.62472264  1
  S  S152  1  0.43197445  0.32509348  0.95616174  1
  S  S153  1  0.42857836  0.83191504  0.29173182  1
  S  S154  1  0.42913833  0.83031422  0.62435808  1
  S  S155  1  0.43169263  0.83265805  0.95752291  1
  S  S156  1  0.93009016  0.32900317  0.29417191  1
  S  S157  1  0.93371965  0.33319764  0.62750615  1
  S  S158  1  0.93898539  0.32992118  0.96071747  1
  S  S159  1  0.93451259  0.83369870  0.28752475  1
  S  S160  1  0.93305603  0.82721925  0.62836371  1
  S  S161  1  0.93338659  0.82753228  0.95628583  1
  S  S162  1  0.17378821  0.07426857  0.20852575  1
  S  S163  1  0.16572450  0.06270047  0.54353683  1
  S  S164  1  0.16877985  0.06576957  0.87594854  1
  S  S165  1  0.17066230  0.55822249  0.20893552  1
  S  S166  1  0.16634941  0.56414351  0.54270135  1
  S  S167  1  0.17131106  0.56823396  0.87683210  1
  S  S168  1  0.67868383  0.06431380  0.21150101  1
  S  S169  1  0.66474508  0.07095143  0.54014303  1
  S  S170  1  0.67120662  0.06616763  0.87444819  1
  S  S171  1  0.66946359  0.56754304  0.21058939  1
  S  S172  1  0.66925491  0.56688131  0.54508839  1
  S  S173  1  0.65835692  0.57107816  0.86846684  1
  O  O174  1  0.36813778  0.21778171  0.06972772  1
  O  O175  1  0.36470450  0.21074323  0.40237190  1
  O  O176  1  0.36952606  0.21988069  0.74358359  1
  O  O177  1  0.36751336  0.71734942  0.07229665  1
  O  O178  1  0.36761991  0.71920292  0.40862413  1
  O  O179  1  0.36706670  0.72080936  0.74193885  1
  O  O180  1  0.87033520  0.21786465  0.07262115  1
  O  O181  1  0.86509657  0.22393026  0.41281947  1
  O  O182  1  0.86829990  0.22939980  0.75398901  1
  O  O183  1  0.87840639  0.72457253  0.07108156  1
  O  O184  1  0.86406394  0.71440159  0.41157075  1
  O  O185  1  0.86776521  0.71909012  0.74319681  1
  O  O186  1  0.27168739  0.13289910  0.07781303  1
  O  O187  1  0.28906405  0.12201248  0.43380058  1
  O  O188  1  0.28288043  0.13190709  0.76090231  1
  O  O189  1  0.28028322  0.62929476  0.09023181  1
  O  O190  1  0.28157397  0.63088502  0.42729597  1
  O  O191  1  0.27752395  0.63265723  0.75579885  1
  O  O192  1  0.78128759  0.13017797  0.08839435  1
  O  O193  1  0.78017452  0.13177437  0.42601539  1
  O  O194  1  0.78141439  0.13435126  0.76224896  1
  O  O195  1  0.79157481  0.63523063  0.08849220  1
  O  O196  1  0.78396570  0.62352393  0.43365903  1
  O  O197  1  0.77923776  0.62994681  0.75611839  1
  O  O198  1  0.12952651  0.27683453  0.26543924  1
  O  O199  1  0.12863863  0.28036520  0.59302249  1
  O  O200  1  0.13468052  0.27992117  0.91889570  1
  O  O201  1  0.13211445  0.78997252  0.25980641  1
  O  O202  1  0.13146018  0.78456529  0.59942082  1
  O  O203  1  0.13418547  0.77800552  0.91763512  1
  O  O204  1  0.63013091  0.29031589  0.26485289  1
  O  O205  1  0.63011075  0.27883751  0.59223997  1
  O  O206  1  0.63091757  0.26885328  0.91179224  1
  O  O207  1  0.62833998  0.77769408  0.25776837  1
  O  O208  1  0.62277038  0.78103362  0.59388535  1
  O  O209  1  0.62745248  0.78455630  0.92217859  1
  O  O210  1  0.22170673  0.36031877  0.24884421  1
  O  O211  1  0.21819629  0.36628707  0.57698205  1
  O  O212  1  0.21889783  0.37292079  0.90403534  1
  O  O213  1  0.21100251  0.87884958  0.23256722  1
  O  O214  1  0.22279490  0.86806372  0.58381987  1
  O  O215  1  0.22024479  0.87042018  0.90615008  1
  O  O216  1  0.71644823  0.37530225  0.24169326  1
  O  O217  1  0.72683538  0.36376158  0.58544944  1
  O  O218  1  0.71353211  0.36789735  0.90338073  1
  O  O219  1  0.71945952  0.86269194  0.24211482  1
  O  O220  1  0.71397443  0.86126243  0.57149174  1
  O  O221  1  0.71688369  0.87216121  0.90699198  1
  O  O222  1  0.40624817  0.13520875  0.15140234  1
  O  O223  1  0.42786475  0.13319417  0.48452287  1
  O  O224  1  0.42180210  0.12853757  0.81468915  1
  O  O225  1  0.41830274  0.63466669  0.15256364  1
  O  O226  1  0.41949156  0.63286472  0.48431764  1
  O  O227  1  0.41515810  0.63481861  0.81899162  1
  O  O228  1  0.91858305  0.13460856  0.15242628  1
  O  O229  1  0.91774379  0.13694806  0.48735000  1
  O  O230  1  0.91934503  0.13581695  0.82132837  1
  O  O231  1  0.93017299  0.64365780  0.15401013  1
  O  O232  1  0.92247184  0.62755354  0.48536673  1
  O  O233  1  0.91846021  0.62896832  0.81543623  1
  O  O234  1  0.36855410  0.07915868  0.01551240  1
  O  O235  1  0.37102763  0.07271372  0.35133718  1
  O  O236  1  0.36587185  0.08198986  0.67963455  1
  O  O237  1  0.36791208  0.57887653  0.01608729  1
  O  O238  1  0.36567974  0.58177963  0.34772442  1
  O  O239  1  0.36617420  0.58226041  0.68224936  1
  O  O240  1  0.87006854  0.07993997  0.01581116  1
  O  O241  1  0.86906611  0.08686857  0.35043584  1
  O  O242  1  0.86657775  0.09259030  0.68392565  1
  O  O243  1  0.88389913  0.58608115  0.01908309  1
  O  O244  1  0.86762656  0.57626969  0.35124475  1
  O  O245  1  0.86670705  0.58140459  0.67997517  1
  O  O246  1  0.08566803  0.35611528  0.18093766  1
  O  O247  1  0.07997781  0.36956850  0.51816645  1
  O  O248  1  0.08035638  0.37047886  0.84892762  1
  O  O249  1  0.07313327  0.86980404  0.17773941  1
  O  O250  1  0.08477866  0.86670569  0.51649511  1
  O  O251  1  0.08114479  0.87242298  0.85190919  1
  O  O252  1  0.57911063  0.36848623  0.18013141  1
  O  O253  1  0.59193052  0.36670790  0.51536582  1
  O  O254  1  0.57495118  0.36726487  0.85204027  1
  O  O255  1  0.58172969  0.86749685  0.18344013  1
  O  O256  1  0.57608521  0.86873448  0.51651758  1
  O  O257  1  0.57853896  0.87301539  0.84837949  1
  O  O258  1  0.12944309  0.41502050  0.31743832  1
  O  O259  1  0.13173490  0.41872556  0.65346233  1
  O  O260  1  0.13589590  0.41744761  0.98520532  1
  O  O261  1  0.12696478  0.92871344  0.31241131  1
  O  O262  1  0.13033373  0.92258471  0.65236404  1
  O  O263  1  0.13709568  0.91491793  0.98759610  1
  O  O264  1  0.62687592  0.42888254  0.31491626  1
  O  O265  1  0.63253042  0.41692019  0.65187629  1
  O  O266  1  0.63367325  0.40222977  0.98828523  1
  O  O267  1  0.63421789  0.91516313  0.31961724  1
  O  O268  1  0.63301699  0.91993962  0.65123642  1
  O  O269  1  0.63066386  0.92302693  0.98386754  1
  O  O270  1  0.02972589  0.19551684  0.10350455  1
  O  O271  1  0.02592227  0.20610101  0.44060131  1
  O  O272  1  0.03035566  0.20185031  0.77151219  1
  O  O273  1  0.03792536  0.70944054  0.10089297  1
  O  O274  1  0.05238114  0.68886329  0.44873821  1
  O  O275  1  0.02968664  0.69704253  0.77035138  1
  O  O276  1  0.53234473  0.19771362  0.09822642  1
  O  O277  1  0.54183620  0.19290707  0.43759369  1
  O  O278  1  0.52750872  0.19683975  0.76354484  1
  O  O279  1  0.52421520  0.71061833  0.10667178  1
  O  O280  1  0.53114506  0.70290237  0.43811592  1
  O  O281  1  0.52724938  0.70163414  0.76868066  1
  O  O282  1  0.29987947  0.46614867  0.06207568  1
  O  O283  1  0.28969611  0.47054197  0.39616719  1
  O  O284  1  0.29927017  0.47229984  0.73065371  1
  O  O285  1  0.29974962  0.97292471  0.06308637  1
  O  O286  1  0.30547124  0.95224066  0.39315889  1
  O  O287  1  0.30158539  0.97170437  0.73055412  1
  O  O288  1  0.82834426  0.46592363  0.06873413  1
  O  O289  1  0.79739449  0.46323092  0.39605214  1
  O  O290  1  0.79875634  0.47114194  0.72691312  1
  O  O291  1  0.80251985  0.96541016  0.06209980  1
  O  O292  1  0.79627093  0.97349719  0.39102502  1
  O  O293  1  0.80122459  0.96907005  0.73648422  1
  O  O294  1  0.46267262  0.31375291  0.22606741  1
  O  O295  1  0.46976626  0.30025777  0.56614291  1
  O  O296  1  0.46822945  0.29318842  0.89488742  1
  O  O297  1  0.46369674  0.80188981  0.22978607  1
  O  O298  1  0.46361331  0.80097124  0.56279734  1
  O  O299  1  0.46838423  0.80092902  0.89641872  1
  O  O300  1  0.96643295  0.29778401  0.23320231  1
  O  O301  1  0.97022442  0.30430588  0.56698982  1
  O  O302  1  0.97802328  0.29644005  0.90067787  1
  O  O303  1  0.96318502  0.81142007  0.22150674  1
  O  O304  1  0.97011295  0.79564567  0.56900226  1
  O  O305  1  0.97418979  0.79765468  0.89748417  1
  O  O306  1  0.20716392  0.04312962  0.27067095  1
  O  O307  1  0.20137006  0.03417766  0.61097385  1
  O  O308  1  0.19882107  0.02671735  0.93509703  1
  O  O309  1  0.20710048  0.51927076  0.26877218  1
  O  O310  1  0.19871941  0.52762170  0.60411469  1
  O  O311  1  0.19816115  0.53335916  0.93827672  1
  O  O312  1  0.71120137  0.02324974  0.26967676  1
  O  O313  1  0.68265980  0.03709642  0.60189716  1
  O  O314  1  0.69941162  0.03031544  0.93547492  1
  O  O315  1  0.70559733  0.53834506  0.27723672  1
  O  O316  1  0.69798485  0.52719816  0.60431817  1
  O  O317  1  0.68945092  0.54498042  0.93189301  1
  O  O318  1  0.08543298  0.08650427  0.03437619  1
  O  O319  1  0.06727811  0.08508958  0.37674893  1
  O  O320  1  0.08370777  0.09028605  0.70371184  1
  O  O321  1  0.09030551  0.59322445  0.04168167  1
  O  O322  1  0.09129175  0.58226483  0.36495680  1
  O  O323  1  0.08175906  0.58403071  0.70386778  1
  O  O324  1  0.59014935  0.08719723  0.03674346  1
  O  O325  1  0.59444571  0.08489983  0.36741792  1
  O  O326  1  0.58314177  0.08644810  0.69947073  1
  O  O327  1  0.58734730  0.60355568  0.04914967  1
  O  O328  1  0.58674071  0.59256815  0.37229100  1
  O  O329  1  0.57993242  0.58873599  0.70063988  1
  O  O330  1  0.41050692  0.40811374  0.12445077  1
  O  O331  1  0.39909123  0.41070008  0.45550003  1
  O  O332  1  0.40945239  0.41432562  0.79197008  1
  O  O333  1  0.41136832  0.91874132  0.12775921  1
  O  O334  1  0.41549020  0.91041895  0.47396156  1
  O  O335  1  0.41476803  0.92007750  0.79763621  1
  O  O336  1  0.92493562  0.41292480  0.14958454  1
  O  O337  1  0.90995458  0.41288897  0.46558814  1
  O  O338  1  0.91233742  0.42157366  0.79688297  1
  O  O339  1  0.91157672  0.90434740  0.12359737  1
  O  O340  1  0.91512927  0.92794626  0.45545473  1
  O  O341  1  0.91050601  0.91189207  0.80202114  1
  O  O342  1  0.41086625  0.41810268  0.29993020  1
  O  O343  1  0.41123342  0.40917259  0.62978987  1
  O  O344  1  0.41856559  0.40797273  0.96133219  1
  O  O345  1  0.40613767  0.91144844  0.29422298  1
  O  O346  1  0.41067448  0.91246477  0.63173765  1
  O  O347  1  0.41415125  0.91360903  0.95824792  1
  O  O348  1  0.91005490  0.40955586  0.29885814  1
  O  O349  1  0.91679021  0.41599434  0.63247585  1
  O  O350  1  0.92686544  0.41028714  0.96473633  1
  O  O351  1  0.91275646  0.91667360  0.29720612  1
  O  O352  1  0.91585698  0.90639818  0.63243990  1
  O  O353  1  0.92109291  0.91004610  0.96191719  1
  O  O354  1  0.09207758  0.09088386  0.20697137  1
  O  O355  1  0.08554368  0.08423595  0.54437814  1
  O  O356  1  0.08846687  0.08484951  0.87465890  1
  O  O357  1  0.09111581  0.57000595  0.20655592  1
  O  O358  1  0.08501037  0.58050916  0.54059832  1
  O  O359  1  0.08954745  0.58799632  0.86791956  1
  O  O360  1  0.60197016  0.08463819  0.21305341  1
  O  O361  1  0.58122155  0.09042928  0.52553503  1
  O  O362  1  0.58742271  0.08087848  0.86609397  1
  O  O363  1  0.58977823  0.58834620  0.21359592  1
  O  O364  1  0.58733196  0.58331423  0.54120330  1
  O  O365  1  0.57410812  0.58872049  0.85778834  1
  O  O366  1  0.13480622  0.22230077  0.05746193  1
  O  O367  1  0.13568596  0.21285937  0.39503357  1
  O  O368  1  0.13945496  0.22350167  0.72832679  1
  O  O369  1  0.13580435  0.72249977  0.04212425  1
  O  O370  1  0.13914168  0.71716633  0.38501399  1
  O  O371  1  0.13824501  0.71758320  0.72624316  1
  O  O372  1  0.63418775  0.21983010  0.04533500  1
  O  O373  1  0.64212007  0.21946614  0.38693634  1
  O  O374  1  0.64147762  0.22096467  0.72688124  1
  O  O375  1  0.63194551  0.73676928  0.06330044  1
  O  O376  1  0.64147457  0.72669040  0.39701240  1
  O  O377  1  0.63540970  0.72224645  0.72388682  1
  O  O378  1  0.27661378  0.36504591  0.11423069  1
  O  O379  1  0.26670013  0.36158636  0.43948338  1
  O  O380  1  0.27602366  0.36039729  0.76981731  1
  O  O381  1  0.27859165  0.86311541  0.10523128  1
  O  O382  1  0.28078515  0.85342337  0.44624702  1
  O  O383  1  0.28162746  0.86333463  0.77564003  1
  O  O384  1  0.78719599  0.36207179  0.11160429  1
  O  O385  1  0.77618441  0.35876798  0.44480329  1
  O  O386  1  0.77981228  0.36662488  0.77628412  1
  O  O387  1  0.77690265  0.86360771  0.11235331  1
  O  O388  1  0.78537065  0.86532891  0.43649129  1
  O  O389  1  0.77608572  0.86051093  0.77882640  1
  O  O390  1  0.35988077  0.28138047  0.27103080  1
  O  O391  1  0.36092128  0.27445242  0.60855326  1
  O  O392  1  0.35857350  0.27647437  0.93804849  1
  O  O393  1  0.36177547  0.77744887  0.28114347  1
  O  O394  1  0.35850707  0.77762434  0.60983585  1
  O  O395  1  0.36019304  0.78121863  0.94180351  1
  O  O396  1  0.86210641  0.27606930  0.28270850  1
  O  O397  1  0.86237181  0.28142387  0.61136191  1
  O  O398  1  0.86609004  0.27854606  0.94166007  1
  O  O399  1  0.86411286  0.77992838  0.27110240  1
  O  O400  1  0.86153685  0.77346273  0.61212050  1
  O  O401  1  0.85972830  0.77794464  0.93409686  1
  O  O402  1  0.22183521  0.14526161  0.21622190  1
  O  O403  1  0.21666054  0.13328989  0.55500929  1
  O  O404  1  0.22174662  0.13525473  0.89104046  1
  O  O405  1  0.22227010  0.62995953  0.22623622  1
  O  O406  1  0.21776187  0.63627190  0.55954742  1
  O  O407  1  0.22520508  0.63856842  0.89274315  1
  O  O408  1  0.73393920  0.13270772  0.22752351  1
  O  O409  1  0.71914659  0.14153049  0.55871249  1
  O  O410  1  0.72197250  0.13880178  0.89249198  1
  O  O411  1  0.72023021  0.63708063  0.22007335  1
  O  O412  1  0.72060620  0.63930986  0.56495382  1
  O  O413  1  0.70443587  0.63999749  0.86874678  1
  O  O414  1  0.49031246  0.32475170  0.02763186  1
  O  O415  1  0.49078235  0.33463671  0.35939649  1
  O  O416  1  0.49033639  0.33410112  0.69978418  1
  O  O417  1  0.48972029  0.83718793  0.03080958  1
  O  O418  1  0.49195754  0.83983150  0.36468367  1
  O  O419  1  0.48970051  0.83351880  0.69705806  1
  O  O420  1  0.99497559  0.32742899  0.03341804  1
  O  O421  1  0.99276285  0.33536338  0.36719749  1
  O  O422  1  0.99196069  0.33712499  0.70119998  1
  O  O423  1  0.98921155  0.82434089  0.02843815  1
  O  O424  1  0.99717662  0.83725035  0.35559631  1
  O  O425  1  0.99135160  0.82638222  0.70209854  1
  O  O426  1  0.16737703  0.01197546  0.13535095  1
  O  O427  1  0.15749400  -0.00151487  0.47513252  1
  O  O428  1  0.16442565  0.00677588  0.80214790  1
  O  O429  1  0.17226272  0.50091591  0.13560506  1
  O  O430  1  0.16303702  0.50594734  0.46983043  1
  O  O431  1  0.16941042  0.50812791  0.80443707  1
  O  O432  1  0.67434747  0.00561615  0.13691772  1
  O  O433  1  0.66703047  0.01008674  0.47039898  1
  O  O434  1  0.67047964  0.00872724  0.80141002  1
  O  O435  1  0.65997900  0.50306081  0.14139326  1
  O  O436  1  0.66792883  0.51015845  0.47209167  1
  O  O437  1  0.65136668  0.50541624  0.79482112  1
  O  O438  1  0.00506486  0.16818658  0.30566196  1
  O  O439  1  0.00832690  0.17344100  0.63887572  1
  O  O440  1  0.00557073  0.16416008  0.96922012  1
  O  O441  1  0.00150770  0.66453130  0.31422876  1
  O  O442  1  0.00779097  0.66443600  0.63619118  1
  O  O443  1  0.00470396  0.65813048  0.96478805  1
  O  O444  1  0.50945189  0.16154266  0.30309371  1
  O  O445  1  0.51341812  0.16995205  0.63171364  1
  O  O446  1  0.50453841  0.15461928  0.96270778  1
  O  O447  1  0.51076100  0.67375815  0.30608000  1
  O  O448  1  0.50433849  0.67055467  0.63535317  1
  O  O449  1  0.50564917  0.67465269  0.97331642  1
  O  O450  1  0.34138433  0.49435006  0.19734631  1
  O  O451  1  0.32543180  0.49023212  0.52966591  1
  O  O452  1  0.33053473  0.48847015  0.86319445  1
  O  O453  1  0.33073373  0.99354500  0.19607134  1
  O  O454  1  0.32782462  0.98810848  0.52743739  1
  O  O455  1  0.33311799  0.99472521  0.86395021  1
  O  O456  1  0.83509657  0.49325442  0.19897587  1
  O  O457  1  0.83046409  0.49065219  0.53072537  1
  O  O458  1  0.83130257  0.50075529  0.86087518  1
  O  O459  1  0.84258211  0.99244526  0.19629371  1
  O  O460  1  0.83443137  0.99643992  0.52625220  1
  O  O461  1  0.83341902  0.99015241  0.86989435  1
