# generated using pymatgen
data_Na31Fe20(SO4)36
_symmetry_space_group_name_H-M   'P 1'
_cell_length_a   18.06431194
_cell_length_b   18.06177152
_cell_length_c   19.67513688
_cell_angle_alpha   107.59037685
_cell_angle_beta   107.59021818
_cell_angle_gamma   90.68398588
_symmetry_Int_Tables_number   1
_chemical_formula_structural   Na31Fe20(SO4)36
_chemical_formula_sum   'Na62 Fe40 S72 O288'
_cell_volume   5795.39287282
_cell_formula_units_Z   2
loop_
 _symmetry_equiv_pos_site_id
 _symmetry_equiv_pos_as_xyz
  1  'x, y, z'
loop_
 _atom_site_type_symbol
 _atom_site_label
 _atom_site_symmetry_multiplicity
 _atom_site_fract_x
 _atom_site_fract_y
 _atom_site_fract_z
 _atom_site_occupancy
  Na  Na0  1  0.16110793  0.37895437  0.10306203  1
  Na  Na1  1  0.12668583  0.37358848  0.41421740  1
  Na  Na2  1  0.14228995  0.37792381  0.77294481  1
  Na  Na3  1  0.13418067  0.85234458  0.07078439  1
  Na  Na4  1  0.13693634  0.86495240  0.41668319  1
  Na  Na5  1  0.13086767  0.86391704  0.74488811  1
  Na  Na6  1  0.62091838  0.36080207  0.06442379  1
  Na  Na7  1  0.63439156  0.36555642  0.41776623  1
  Na  Na8  1  0.66259937  0.33620950  0.75618488  1
  Na  Na9  1  0.62512649  0.86167587  0.07987663  1
  Na  Na10  1  0.64414935  0.86071838  0.42426037  1
  Na  Na11  1  0.63450255  0.86768363  0.74776811  1
  Na  Na12  1  0.36803588  0.13049970  0.24413850  1
  Na  Na13  1  0.35864990  0.13329661  0.57767250  1
  Na  Na14  1  0.36743929  0.13279349  0.91489067  1
  Na  Na15  1  0.34232328  0.61884190  0.23148260  1
  Na  Na16  1  0.37047649  0.63675050  0.58595338  1
  Na  Na17  1  0.35345629  0.65395016  0.94623714  1
  Na  Na18  1  0.86689823  0.12689293  0.24724287  1
  Na  Na19  1  0.86274356  0.14378391  0.59416301  1
  Na  Na20  1  0.83247132  0.13303969  0.88958783  1
  Na  Na21  1  0.87824970  0.62694380  0.25283479  1
  Na  Na22  1  0.86079310  0.64650648  0.58185273  1
  Na  Na23  1  0.87750507  0.63971931  0.92936420  1
  Na  Na24  1  0.49211146  0.00813083  0.41138779  1
  Na  Na25  1  0.98084057  0.01361372  0.75605279  1
  Na  Na26  1  0.50233277  0.04598712  0.77070534  1
  Na  Na27  1  1.01517694  -0.04150310  0.13929050  1
  Na  Na28  1  0.52059344  0.47182822  0.77808055  1
  Na  Na29  1  0.99689090  0.00437759  0.40309970  1
  Na  Na30  1  1.03879290  0.48266170  0.04192994  1
  Na  Na31  1  0.45548682  0.51171160  0.39516864  1
  Na  Na32  1  1.00146406  0.50460493  0.75348383  1
  Na  Na33  1  0.50954657  0.95302370  0.21220064  1
  Na  Na34  1  0.53637822  0.98990799  0.59165725  1
  Na  Na35  1  0.50878886  0.49025469  0.58371445  1
  Na  Na36  1  0.00876286  0.98254566  0.58467125  1
  Na  Na37  1  0.48609269  0.51996514  0.21983797  1
  Na  Na38  1  0.46024163  0.51213134  0.96839620  1
  Na  Na39  1  -0.00084820  0.99886840  0.93160943  1
  Na  Na40  1  -0.01226197  0.54268928  0.53421525  1
  Na  Na41  1  0.50489717  0.99932121  0.93551415  1
  Na  Na42  1  0.75835326  0.76346013  0.65287916  1
  Na  Na43  1  0.24968503  0.75056393  0.32741084  1
  Na  Na44  1  0.26601964  0.28334138  -0.00414303  1
  Na  Na45  1  0.74182845  0.24801681  -0.01365451  1
  Na  Na46  1  0.76256473  0.76412631  -0.00135940  1
  Na  Na47  1  0.25204022  0.25788364  0.66528403  1
  Na  Na48  1  0.23223216  0.73577753  0.67100597  1
  Na  Na49  1  0.26106152  0.26654535  0.32560064  1
  Na  Na50  1  0.74735530  0.74059277  0.34533346  1
  Na  Na51  1  0.75499988  0.25047521  0.33274348  1
  Na  Na52  1  0.74146481  0.24240719  0.51157158  1
  Na  Na53  1  0.25762793  0.25310129  0.16468454  1
  Na  Na54  1  0.23755773  0.73954504  0.50719304  1
  Na  Na55  1  0.25837534  0.26571925  0.83175756  1
  Na  Na56  1  0.75932345  0.75089370  0.16613816  1
  Na  Na57  1  0.24129606  0.74681342  0.84339395  1
  Na  Na58  1  0.26264459  0.74061957  0.13823911  1
  Na  Na59  1  0.75037239  0.25552356  0.15827010  1
  Na  Na60  1  0.75698545  0.75557235  0.83031272  1
  Na  Na61  1  0.25486804  0.25789457  0.49135797  1
  Fe  Fe62  1  0.96985619  0.80043787  0.45455162  1
  Fe  Fe63  1  0.47143064  0.30222350  0.11934173  1
  Fe  Fe64  1  0.96524936  0.31040773  0.45556061  1
  Fe  Fe65  1  0.46774260  0.30149103  0.79226208  1
  Fe  Fe66  1  0.46495673  0.80915175  0.45192104  1
  Fe  Fe67  1  0.96525956  0.80713334  0.78311069  1
  Fe  Fe68  1  0.46735225  0.30421832  0.45120723  1
  Fe  Fe69  1  0.95733474  0.31422632  0.79079372  1
  Fe  Fe70  1  0.96578873  0.30895036  0.12182687  1
  Fe  Fe71  1  0.46335661  0.80849166  0.78491189  1
  Fe  Fe72  1  0.19187691  0.53565911  0.71372594  1
  Fe  Fe73  1  0.69180103  0.53601388  0.04710126  1
  Fe  Fe74  1  0.69429276  0.53497646  0.71667281  1
  Fe  Fe75  1  0.68763771  0.53683659  0.37913134  1
  Fe  Fe76  1  0.69340878  0.03371318  0.05112743  1
  Fe  Fe77  1  0.19260045  0.03625621  0.71719359  1
  Fe  Fe78  1  0.69366150  0.03104635  0.38184722  1
  Fe  Fe79  1  0.19153293  0.03383456  0.37781515  1
  Fe  Fe80  1  0.19312482  0.53463024  0.37331030  1
  Fe  Fe81  1  0.19317249  0.03797180  0.04872222  1
  Fe  Fe82  1  0.03408791  0.19183868  0.21583173  1
  Fe  Fe83  1  0.53897725  0.18478020  0.21350186  1
  Fe  Fe84  1  0.03327086  0.19510997  0.54987608  1
  Fe  Fe85  1  0.53484510  0.69271535  0.54547074  1
  Fe  Fe86  1  0.03187628  0.69898734  0.20314847  1
  Fe  Fe87  1  0.03655348  0.69589620  0.88297896  1
  Fe  Fe88  1  0.52999586  0.69757509  0.20737669  1
  Fe  Fe89  1  0.52874755  0.69574293  0.88422168  1
  Fe  Fe90  1  0.53763749  0.19096684  0.55526665  1
  Fe  Fe91  1  0.03128961  0.19433487  0.88368132  1
  Fe  Fe92  1  0.31052361  0.96172718  0.95514444  1
  Fe  Fe93  1  0.80675591  0.46542690  0.62025087  1
  Fe  Fe94  1  0.80812446  0.96642779  0.95565345  1
  Fe  Fe95  1  0.80676838  0.46686842  0.28720248  1
  Fe  Fe96  1  0.30897725  0.96164953  0.27883755  1
  Fe  Fe97  1  0.30982609  0.96619052  0.61870161  1
  Fe  Fe98  1  0.31217916  0.46503933  0.62251940  1
  Fe  Fe99  1  0.79949107  0.96981532  0.62122346  1
  Fe  Fe100  1  0.80963857  0.96007548  0.28695940  1
  Fe  Fe101  1  0.80968402  0.46789107  0.95232678  1
  S  S102  1  0.36223896  0.13655156  0.08229639  1
  S  S103  1  0.35914692  0.13868101  0.41344291  1
  S  S104  1  0.35366361  0.13938691  0.74801108  1
  S  S105  1  0.36534472  0.63034279  0.08858806  1
  S  S106  1  0.35873466  0.64621842  0.41722918  1
  S  S107  1  0.35981117  0.64188873  0.74885529  1
  S  S108  1  0.86081064  0.14110799  0.08544431  1
  S  S109  1  0.86010680  0.14099488  0.41838674  1
  S  S110  1  0.86122382  0.14147236  0.74984855  1
  S  S111  1  0.85801324  0.63943080  0.08575282  1
  S  S112  1  0.85713055  0.63665865  0.41673731  1
  S  S113  1  0.85747772  0.64187039  0.74677852  1
  S  S114  1  0.13926232  0.35622582  0.25224348  1
  S  S115  1  0.14127276  0.35928224  0.58310733  1
  S  S116  1  0.13143031  0.35751150  0.91869146  1
  S  S117  1  0.14572391  0.86136615  0.24958005  1
  S  S118  1  0.14348785  0.86363709  0.58316403  1
  S  S119  1  0.13670501  0.86578715  0.91424002  1
  S  S120  1  0.64468233  0.35797801  0.25284660  1
  S  S121  1  0.63957847  0.36060550  0.58592230  1
  S  S122  1  0.63895782  0.36961710  0.91129241  1
  S  S123  1  0.64764316  0.85377544  0.25488884  1
  S  S124  1  0.63900040  0.85824719  0.58267387  1
  S  S125  1  0.63821033  0.85709252  0.91701989  1
  S  S126  1  0.06753866  0.17205714  0.04610556  1
  S  S127  1  0.06652690  0.17012411  0.37896747  1
  S  S128  1  0.06824277  0.16906965  0.70879548  1
  S  S129  1  0.06468878  0.67360415  0.04246995  1
  S  S130  1  0.07456146  0.67747613  0.37351548  1
  S  S131  1  0.06169034  0.67004875  0.70663765  1
  S  S132  1  0.56692515  0.16620804  0.04573415  1
  S  S133  1  0.56728985  0.16584420  0.37665981  1
  S  S134  1  0.55554711  0.16272321  0.70072576  1
  S  S135  1  0.57065926  0.67041408  0.04499311  1
  S  S136  1  0.56788489  0.67214648  0.37505683  1
  S  S137  1  0.56737802  0.66952122  0.70971676  1
  S  S138  1  0.33874902  0.41978454  0.12927366  1
  S  S139  1  0.33442101  0.43487437  0.45956575  1
  S  S140  1  0.33300782  0.43509427  0.78980940  1
  S  S141  1  0.32484720  0.93117667  0.11942728  1
  S  S142  1  0.33359084  0.93699766  0.45631800  1
  S  S143  1  0.32825229  0.93216577  0.78888002  1
  S  S144  1  0.82137456  0.42575936  0.11995189  1
  S  S145  1  0.82735645  0.43298517  0.45814040  1
  S  S146  1  0.83639196  0.44031516  0.79257312  1
  S  S147  1  0.82330800  0.92926933  0.12439988  1
  S  S148  1  0.83318398  0.93545566  0.45896188  1
  S  S149  1  0.83335370  0.93333321  0.79246595  1
  S  S150  1  0.44110461  0.32428113  0.29094714  1
  S  S151  1  0.43411048  0.32692002  0.62299660  1
  S  S152  1  0.43076147  0.31998087  0.95137069  1
  S  S153  1  0.43743722  0.83019577  0.29096217  1
  S  S154  1  0.43315153  0.83333297  0.62359665  1
  S  S155  1  0.43408866  0.83350973  0.95488885  1
  S  S156  1  0.92671188  0.32490901  0.28948886  1
  S  S157  1  0.93321602  0.33316730  0.62493435  1
  S  S158  1  0.92456168  0.32631850  0.95845495  1
  S  S159  1  0.93658048  0.82655353  0.29319491  1
  S  S160  1  0.93126457  0.83915058  0.62487310  1
  S  S161  1  0.93568736  0.83642781  0.95764043  1
  S  S162  1  0.17258963  0.06935223  0.21177311  1
  S  S163  1  0.16515428  0.06825897  0.54088511  1
  S  S164  1  0.16620900  0.06979042  0.87658694  1
  S  S165  1  0.16157234  0.57427344  0.20577456  1
  S  S166  1  0.18052857  0.56745274  0.54432250  1
  S  S167  1  0.16903954  0.57405883  0.87239389  1
  S  S168  1  0.67177908  0.06075389  0.21350094  1
  S  S169  1  0.66774272  0.06438092  0.53904798  1
  S  S170  1  0.66308028  0.05435312  0.88201562  1
  S  S171  1  0.67114039  0.57040314  0.21053408  1
  S  S172  1  0.66572769  0.56551878  0.54256102  1
  S  S173  1  0.67362076  0.57859238  0.87816745  1
  O  O174  1  0.37215814  0.21430144  0.07315427  1
  O  O175  1  0.36736807  0.21909823  0.40776943  1
  O  O176  1  0.36250931  0.21955985  0.74224265  1
  O  O177  1  0.36907466  0.71028925  0.08399014  1
  O  O178  1  0.36743461  0.72904131  0.41680536  1
  O  O179  1  0.36939330  0.71911769  0.73635439  1
  O  O180  1  0.86779638  0.22184239  0.08066165  1
  O  O181  1  0.86989754  0.21990244  0.41011720  1
  O  O182  1  0.87809438  0.21723929  0.73779428  1
  O  O183  1  0.85655072  0.71439146  0.07218258  1
  O  O184  1  0.87078631  0.71665060  0.41207961  1
  O  O185  1  0.86646638  0.72037258  0.73678924  1
  O  O186  1  0.28488188  0.13045803  0.09558547  1
  O  O187  1  0.28051881  0.13005184  0.42313963  1
  O  O188  1  0.27385719  0.13184824  0.75650012  1
  O  O189  1  0.29548574  0.61202113  0.10581045  1
  O  O190  1  0.28171239  0.63510966  0.42803346  1
  O  O191  1  0.27708620  0.63360541  0.74875008  1
  O  O192  1  0.78351879  0.13135514  0.09743822  1
  O  O193  1  0.77908985  0.13140330  0.42163637  1
  O  O194  1  0.78760572  0.13631268  0.76338755  1
  O  O195  1  0.78365605  0.62244530  0.10077570  1
  O  O196  1  0.77451844  0.62909208  0.41780509  1
  O  O197  1  0.77701336  0.63354442  0.75213120  1
  O  O198  1  0.12447248  0.27947113  0.26569882  1
  O  O199  1  0.12990472  0.27935366  0.58933090  1
  O  O200  1  0.12234782  0.27607918  0.92553711  1
  O  O201  1  0.12835755  0.78099490  0.25353951  1
  O  O202  1  0.13896361  0.78598464  0.59049262  1
  O  O203  1  0.12923060  0.78841921  0.92422285  1
  O  O204  1  0.63573870  0.27987287  0.26331238  1
  O  O205  1  0.62988444  0.27943971  0.58697218  1
  O  O206  1  0.63537758  0.29432926  0.92318221  1
  O  O207  1  0.63207613  0.77376453  0.26113095  1
  O  O208  1  0.62968923  0.77630128  0.58597536  1
  O  O209  1  0.62824672  0.77965400  0.92838444  1
  O  O210  1  0.21749031  0.35835746  0.24500180  1
  O  O211  1  0.22109872  0.36547002  0.57552169  1
  O  O212  1  0.20465419  0.36264743  0.90154069  1
  O  O213  1  0.22947065  0.86498016  0.25154375  1
  O  O214  1  0.22042198  0.87758002  0.57069634  1
  O  O215  1  0.21524255  0.87562675  0.90500700  1
  O  O216  1  0.72621225  0.36670744  0.24940837  1
  O  O217  1  0.71741346  0.37093970  0.57554534  1
  O  O218  1  0.71549552  0.38593087  0.89986698  1
  O  O219  1  0.73072871  0.85852025  0.25587767  1
  O  O220  1  0.71790765  0.86837048  0.57523686  1
  O  O221  1  0.71979002  0.86447002  0.91390442  1
  O  O222  1  0.42277962  0.12642600  0.14833196  1
  O  O223  1  0.41916724  0.12831100  0.47945833  1
  O  O224  1  0.41213040  0.12516424  0.81089563  1
  O  O225  1  0.43480901  0.62668594  0.15924471  1
  O  O226  1  0.42021179  0.63503091  0.48430091  1
  O  O227  1  0.41312170  0.63913329  0.82155063  1
  O  O228  1  0.92168522  0.13097282  0.15200889  1
  O  O229  1  0.91632624  0.13531478  0.48918173  1
  O  O230  1  0.92552618  0.12888074  0.81502398  1
  O  O231  1  0.92170530  0.64011192  0.15576859  1
  O  O232  1  0.91099259  0.62525567  0.48380929  1
  O  O233  1  0.91481826  0.63559410  0.81602617  1
  O  O234  1  0.36446872  0.07655439  0.01224163  1
  O  O235  1  0.36632624  0.08118565  0.34399687  1
  O  O236  1  0.35650140  0.08292546  0.67530202  1
  O  O237  1  0.37744543  0.57441885  0.02265198  1
  O  O238  1  0.36641280  0.59196963  0.34833658  1
  O  O239  1  0.37433069  0.58079852  0.68547657  1
  O  O240  1  0.86676766  0.08455142  0.01555030  1
  O  O241  1  0.87291064  0.08114793  0.35292791  1
  O  O242  1  0.86697246  0.07925677  0.68081858  1
  O  O243  1  0.86900114  0.57727504  0.02078989  1
  O  O244  1  0.86490045  0.57930203  0.34669340  1
  O  O245  1  0.86600217  0.58190133  0.67922648  1
  O  O246  1  0.08043062  0.36136877  0.18241523  1
  O  O247  1  0.08328805  0.36750172  0.51430336  1
  O  O248  1  0.06713719  0.36510622  0.85174791  1
  O  O249  1  0.09535044  0.87487359  0.18239119  1
  O  O250  1  0.08126949  0.87419196  0.51782558  1
  O  O251  1  0.07789973  0.87249345  0.84502304  1
  O  O252  1  0.58973226  0.36372146  0.18237471  1
  O  O253  1  0.57869674  0.37445171  0.52105666  1
  O  O254  1  0.57767482  0.37376108  0.84153732  1
  O  O255  1  0.59576427  0.86426664  0.18640197  1
  O  O256  1  0.58003053  0.86688929  0.51353809  1
  O  O257  1  0.58309215  0.86067149  0.84505076  1
  O  O258  1  0.13277720  0.41869985  0.31887288  1
  O  O259  1  0.13425505  0.41758380  0.65134900  1
  O  O260  1  0.12765828  0.41352278  0.98808309  1
  O  O261  1  0.13740121  0.91833301  0.31969259  1
  O  O262  1  0.13617849  0.92316824  0.65263693  1
  O  O263  1  0.12615098  0.92652712  0.98043262  1
  O  O264  1  0.63468209  0.41830378  0.31945256  1
  O  O265  1  0.63396941  0.41642024  0.65708937  1
  O  O266  1  0.62784319  0.43115706  0.97744242  1
  O  O267  1  0.63692122  0.91235268  0.32235981  1
  O  O268  1  0.62855010  0.91405260  0.64924673  1
  O  O269  1  0.62518663  0.91857596  0.98102341  1
  O  O270  1  0.03004700  0.20044879  0.10661854  1
  O  O271  1  0.02885864  0.19988822  0.43947118  1
  O  O272  1  0.03618776  0.19892340  0.77151069  1
  O  O273  1  0.02633414  0.70381660  0.10277359  1
  O  O274  1  0.03378005  0.70626492  0.42980055  1
  O  O275  1  0.02919524  0.70240998  0.77164453  1
  O  O276  1  0.53914020  0.20285318  0.11348961  1
  O  O277  1  0.53070769  0.19741660  0.43756388  1
  O  O278  1  0.52531086  0.20225557  0.76304173  1
  O  O279  1  0.54007950  0.69742733  0.10949152  1
  O  O280  1  0.52735346  0.70045366  0.43343188  1
  O  O281  1  0.53029920  0.69752024  0.76999099  1
  O  O282  1  0.30592337  0.42862068  0.05555773  1
  O  O283  1  0.30592220  0.47314445  0.40208423  1
  O  O284  1  0.29893192  0.46841295  0.72525410  1
  O  O285  1  0.28849546  0.96828300  0.05844215  1
  O  O286  1  0.30596779  0.97415083  0.39553567  1
  O  O287  1  0.29951731  0.96952714  0.72797579  1
  O  O288  1  0.79272660  0.46173891  0.05842993  1
  O  O289  1  0.79686231  0.46890354  0.39729130  1
  O  O290  1  0.79983107  0.47489452  0.72980417  1
  O  O291  1  0.79267484  0.96902003  0.06486550  1
  O  O292  1  0.80298869  0.97364615  0.39844179  1
  O  O293  1  0.80701118  0.96470577  0.72967087  1
  O  O294  1  0.47655397  0.28724185  0.23005351  1
  O  O295  1  0.46823729  0.29492356  0.56002306  1
  O  O296  1  0.46978597  0.29110586  0.89332580  1
  O  O297  1  0.47751358  0.79958044  0.23365885  1
  O  O298  1  0.47163221  0.80275873  0.56410917  1
  O  O299  1  0.46723450  0.79986528  0.88943059  1
  O  O300  1  0.96521876  0.29614090  0.22998339  1
  O  O301  1  0.97135333  0.30431742  0.56433035  1
  O  O302  1  0.95606218  0.29209794  0.89443400  1
  O  O303  1  0.97507929  0.79982946  0.23483098  1
  O  O304  1  0.96696270  0.81805887  0.56457637  1
  O  O305  1  0.96667741  0.80347526  0.89228314  1
  O  O306  1  0.20447944  0.03077937  0.27129600  1
  O  O307  1  0.19419651  0.03466553  0.60327163  1
  O  O308  1  0.19936136  0.03680477  0.93925612  1
  O  O309  1  0.18141364  0.54667636  0.27201644  1
  O  O310  1  0.20925495  0.52545968  0.60258115  1
  O  O311  1  0.19685898  0.54409839  0.93391667  1
  O  O312  1  0.70468503  0.02255200  0.27374737  1
  O  O313  1  0.69655576  0.03086559  0.60034876  1
  O  O314  1  0.70882864  0.02464701  0.94741254  1
  O  O315  1  0.69554058  0.52896254  0.26862357  1
  O  O316  1  0.69436565  0.52740749  0.60281887  1
  O  O317  1  0.70671705  0.54841130  0.94241301  1
  O  O318  1  0.08809715  0.09084547  0.04245193  1
  O  O319  1  0.08608645  0.08932528  0.37655644  1
  O  O320  1  0.08266014  0.08497517  0.70068278  1
  O  O321  1  0.07509527  0.59192993  0.02950745  1
  O  O322  1  0.09417950  0.59833140  0.37222236  1
  O  O323  1  0.08326092  0.58957869  0.70357511  1
  O  O324  1  0.59502857  0.09009332  0.05306757  1
  O  O325  1  0.58405023  0.08404608  0.37331621  1
  O  O326  1  0.56950227  0.08319136  0.70320094  1
  O  O327  1  0.58590240  0.58710089  0.03290450  1
  O  O328  1  0.57856041  0.58757812  0.36595715  1
  O  O329  1  0.58537980  0.58692035  0.70235354  1
  O  O330  1  0.42370261  0.40081257  0.14070681  1
  O  O331  1  0.41595980  0.41359279  0.46163463  1
  O  O332  1  0.40855059  0.40488390  0.78280032  1
  O  O333  1  0.40124718  0.91138616  0.11533219  1
  O  O334  1  0.41725387  0.92229993  0.46478945  1
  O  O335  1  0.41097397  0.91658517  0.79606377  1
  O  O336  1  0.90062181  0.40387395  0.12418855  1
  O  O337  1  0.90931672  0.41574234  0.46377603  1
  O  O338  1  0.91831968  0.42821129  0.79381826  1
  O  O339  1  0.89806812  0.90297723  0.12163557  1
  O  O340  1  0.91588174  0.92089499  0.46436522  1
  O  O341  1  0.91815801  0.91821467  0.80412636  1
  O  O342  1  0.42943670  0.40470911  0.29505463  1
  O  O343  1  0.42119357  0.41031458  0.62938010  1
  O  O344  1  0.40693952  0.39699755  0.95416616  1
  O  O345  1  0.41984068  0.91193289  0.29093305  1
  O  O346  1  0.41836102  0.91596762  0.62872226  1
  O  O347  1  0.41496759  0.91422109  0.95307345  1
  O  O348  1  0.90434301  0.40346673  0.29237126  1
  O  O349  1  0.91523754  0.41513178  0.63054433  1
  O  O350  1  0.90907088  0.40802535  0.96081703  1
  O  O351  1  0.91320114  0.90680873  0.29565930  1
  O  O352  1  0.91281899  0.92276093  0.63689284  1
  O  O353  1  0.90983293  0.91522748  0.95518671  1
  O  O354  1  0.09188896  0.08709472  0.21047334  1
  O  O355  1  0.08128708  0.08275276  0.53212325  1
  O  O356  1  0.08299614  0.08354891  0.87191106  1
  O  O357  1  0.07958302  0.59974292  0.19100655  1
  O  O358  1  0.10400547  0.59079979  0.54429231  1
  O  O359  1  0.08548728  0.59439577  0.86095674  1
  O  O360  1  0.59122060  0.07767332  0.21362166  1
  O  O361  1  0.58411012  0.08079002  0.53228477  1
  O  O362  1  0.58391347  0.06203054  0.88842537  1
  O  O363  1  0.59309282  0.59816217  0.21074028  1
  O  O364  1  0.58256115  0.58092561  0.53606402  1
  O  O365  1  0.59149207  0.59556672  0.87246115  1
  O  O366  1  0.13770776  0.22481501  0.06225326  1
  O  O367  1  0.13702235  0.22299939  0.39508886  1
  O  O368  1  0.13989741  0.21818643  0.72052267  1
  O  O369  1  0.13754909  0.72452436  0.06253852  1
  O  O370  1  0.14632171  0.73164318  0.39219373  1
  O  O371  1  0.13283266  0.72358527  0.72293229  1
  O  O372  1  0.63258431  0.21997557  0.05140390  1
  O  O373  1  0.63942880  0.21694043  0.39299673  1
  O  O374  1  0.62416989  0.20735712  0.70079627  1
  O  O375  1  0.64242601  0.72064018  0.05916602  1
  O  O376  1  0.64147763  0.72106033  0.39613820  1
  O  O377  1  0.63831975  0.72196041  0.72596302  1
  O  O378  1  0.29240404  0.35118604  0.13103770  1
  O  O379  1  0.28208375  0.36354611  0.44471634  1
  O  O380  1  0.27642226  0.36776172  0.77728484  1
  O  O381  1  0.27080116  0.86497707  0.11060869  1
  O  O382  1  0.28298893  0.86467576  0.43823303  1
  O  O383  1  0.27677903  0.85994665  0.77081534  1
  O  O384  1  0.76536074  0.35656313  0.10367913  1
  O  O385  1  0.77638445  0.36114194  0.44325914  1
  O  O386  1  0.79178633  0.36636548  0.77849264  1
  O  O387  1  0.76460681  0.86334300  0.11034022  1
  O  O388  1  0.78290720  0.86307631  0.44063251  1
  O  O389  1  0.78389428  0.85998633  0.77738984  1
  O  O390  1  0.36819038  0.27401625  0.27619119  1
  O  O391  1  0.35961876  0.27843862  0.60521348  1
  O  O392  1  0.36109998  0.26319851  0.93421919  1
  O  O393  1  0.36630808  0.77929655  0.27571567  1
  O  O394  1  0.36059148  0.78304050  0.60614934  1
  O  O395  1  0.36171265  0.78397124  0.93903954  1
  O  O396  1  0.85791132  0.26828802  0.27274598  1
  O  O397  1  0.86190384  0.28066401  0.60575351  1
  O  O398  1  0.85428874  0.27730443  0.94870146  1
  O  O399  1  0.86797764  0.77161325  0.27860957  1
  O  O400  1  0.86147341  0.78593507  0.60880439  1
  O  O401  1  0.86688802  0.78281442  0.94598549  1
  O  O402  1  0.22465083  0.14050029  0.22778328  1
  O  O403  1  0.21478460  0.14078416  0.55547870  1
  O  O404  1  0.21442582  0.14145412  0.88811349  1
  O  O405  1  0.21696469  0.64322281  0.22141567  1
  O  O406  1  0.23798033  0.63707552  0.56504502  1
  O  O407  1  0.21896142  0.64266894  0.87744332  1
  O  O408  1  0.72280872  0.13288085  0.23031349  1
  O  O409  1  0.71692429  0.13480636  0.54919970  1
  O  O410  1  0.70559308  0.13001241  0.89476604  1
  O  O411  1  0.72932443  0.63755079  0.22930363  1
  O  O412  1  0.71696102  0.63724805  0.56080496  1
  O  O413  1  0.72452637  0.64792253  0.88701758  1
  O  O414  1  0.48911430  0.32078200  0.02500389  1
  O  O415  1  0.49892730  0.32329136  0.36470794  1
  O  O416  1  0.49242219  0.32581306  0.69391966  1
  O  O417  1  0.49456149  0.83803672  0.02422805  1
  O  O418  1  0.49471702  0.83932134  0.36724946  1
  O  O419  1  0.49059662  0.83363027  0.69667660  1
  O  O420  1  0.98841068  0.33217215  0.02997365  1
  O  O421  1  0.98619752  0.32863679  0.36305423  1
  O  O422  1  0.99146340  0.33463196  0.69749290  1
  O  O423  1  0.99843348  0.84936335  0.02849545  1
  O  O424  1  0.99480873  0.83665188  0.36924429  1
  O  O425  1  0.99176939  0.83898432  0.69698175  1
  O  O426  1  0.16722518  0.01046777  0.13813141  1
  O  O427  1  0.16577725  0.00834169  0.46925367  1
  O  O428  1  0.16289136  0.00829751  0.80411325  1
  O  O429  1  0.15983874  0.50965860  0.13922652  1
  O  O430  1  0.17885922  0.51137381  0.47005812  1
  O  O431  1  0.16236468  0.51018283  0.79761835  1
  O  O432  1  0.66836766  0.00307286  0.14043227  1
  O  O433  1  0.66291643  0.00248910  0.46572365  1
  O  O434  1  0.66060760  -0.00355105  0.81096739  1
  O  O435  1  0.66272743  0.51148298  0.13648875  1
  O  O436  1  0.66504848  0.50774117  0.46958375  1
  O  O437  1  0.66803078  0.51395469  0.80667583  1
  O  O438  1  0.00745189  0.16622409  0.30602239  1
  O  O439  1  0.00708661  0.16733466  0.63664392  1
  O  O440  1  0.00686479  0.16539107  0.97303357  1
  O  O441  1  0.01934835  0.67594534  0.29788619  1
  O  O442  1  0.00031627  0.66562667  0.63669272  1
  O  O443  1  0.00754315  0.68367973  0.97217592  1
  O  O444  1  0.50914327  0.16270490  0.30336044  1
  O  O445  1  0.49188976  0.15421236  0.62573221  1
  O  O446  1  0.50037185  0.14997071  0.97747992  1
  O  O447  1  0.51205006  0.67481114  0.30197407  1
  O  O448  1  0.50849182  0.66744561  0.63644847  1
  O  O449  1  0.50772848  0.67254978  0.97584357  1
  O  O450  1  0.34519966  0.48970781  0.19384983  1
  O  O451  1  0.34377061  0.49133494  0.53653649  1
  O  O452  1  0.34681283  0.49786408  0.86045402  1
  O  O453  1  0.33292216  0.99391076  0.19379482  1
  O  O454  1  0.33181512  0.99503460  0.52812914  1
  O  O455  1  0.32722996  0.99071305  0.86055434  1
  O  O456  1  0.82427021  0.48609929  0.19224056  1
  O  O457  1  0.82960378  0.49289331  0.53070804  1
  O  O458  1  0.83687788  0.50016011  0.86420066  1
  O  O459  1  0.83071608  0.98983522  0.19888875  1
  O  O460  1  0.83254143  0.99363370  0.53115328  1
  O  O461  1  0.83173719  0.99357140  0.86326802  1
