# generated using pymatgen
data_Na31Fe20(SO4)36
_symmetry_space_group_name_H-M   'P 1'
_cell_length_a   18.08980838
_cell_length_b   18.09683833
_cell_length_c   19.72478950
_cell_angle_alpha   107.57779846
_cell_angle_beta   107.57150248
_cell_angle_gamma   90.76787815
_symmetry_Int_Tables_number   1
_chemical_formula_structural   Na31Fe20(SO4)36
_chemical_formula_sum   'Na62 Fe40 S72 O288'
_cell_volume   5829.56566246
_cell_formula_units_Z   2
loop_
 _symmetry_equiv_pos_site_id
 _symmetry_equiv_pos_as_xyz
  1  'x, y, z'
loop_
 _atom_site_type_symbol
 _atom_site_label
 _atom_site_symmetry_multiplicity
 _atom_site_fract_x
 _atom_site_fract_y
 _atom_site_fract_z
 _atom_site_occupancy
  Na  Na0  1  0.12752059  0.37598773  0.08908900  1
  Na  Na1  1  0.13137478  0.37470883  0.41337602  1
  Na  Na2  1  0.13378612  0.36669658  0.74953581  1
  Na  Na3  1  0.14150689  0.87038569  0.09070215  1
  Na  Na4  1  0.13177032  0.86803857  0.41164671  1
  Na  Na5  1  0.13302146  0.86425147  0.74862689  1
  Na  Na6  1  0.64465646  0.32385090  0.05197363  1
  Na  Na7  1  0.62666975  0.35594180  0.40023948  1
  Na  Na8  1  0.65426028  0.37262049  0.76740190  1
  Na  Na9  1  0.62539606  0.86280881  0.08079108  1
  Na  Na10  1  0.63292764  0.86200249  0.41305368  1
  Na  Na11  1  0.63670121  0.85830517  0.75641528  1
  Na  Na12  1  0.37374551  0.13655823  0.25059831  1
  Na  Na13  1  0.37548863  0.14131646  0.59508519  1
  Na  Na14  1  0.36302902  0.13823969  0.91320584  1
  Na  Na15  1  0.35464996  0.62864484  0.24641032  1
  Na  Na16  1  0.35332988  0.62498978  0.56636141  1
  Na  Na17  1  0.37316259  0.64148273  0.92891942  1
  Na  Na18  1  0.86793367  0.13113232  0.24888574  1
  Na  Na19  1  0.86359146  0.13741282  0.58546035  1
  Na  Na20  1  0.85880942  0.14071768  0.92604060  1
  Na  Na21  1  0.87032993  0.62921556  0.24537671  1
  Na  Na22  1  0.86382941  0.63454279  0.58344229  1
  Na  Na23  1  0.84390161  0.61871395  0.89597803  1
  Na  Na24  1  0.97653738  0.50591786  0.76816016  1
  Na  Na25  1  0.50257228  0.52409712  0.08109011  1
  Na  Na26  1  0.49433375  0.00749280  0.39720603  1
  Na  Na27  1  0.49698756  0.03281017  0.12242968  1
  Na  Na28  1  0.49702372  0.06298271  0.77165835  1
  Na  Na29  1  0.98997324  0.01220154  0.74527571  1
  Na  Na30  1  0.51770386  0.47788560  0.75501819  1
  Na  Na31  1  0.44068769  0.50633341  0.40299773  1
  Na  Na32  1  0.98712733  0.00271232  0.10653470  1
  Na  Na33  1  0.01124002  0.49113916  0.57427136  1
  Na  Na34  1  0.00103502  0.99493835  0.92228960  1
  Na  Na35  1  0.50638328  0.99394257  0.92189450  1
  Na  Na36  1  0.49348670  0.48661549  0.25119904  1
  Na  Na37  1  0.54327258  0.48929236  0.59153465  1
  Na  Na38  1  0.50973038  0.98784830  0.58052763  1
  Na  Na39  1  0.50035659  0.44231980  0.90688958  1
  Na  Na40  1  0.01420331  1.00067338  0.56181316  1
  Na  Na41  1  0.05963976  0.50710368  0.26954613  1
  Na  Na42  1  0.75067096  0.25211828  0.31542691  1
  Na  Na43  1  0.25801679  0.75589696  0.00620328  1
  Na  Na44  1  0.26182899  0.27195463  0.32428180  1
  Na  Na45  1  0.73612002  0.72560425  0.68810271  1
  Na  Na46  1  0.74449736  0.24313767  0.67268821  1
  Na  Na47  1  0.26565355  0.26393783  0.65863704  1
  Na  Na48  1  0.25704789  0.25851139  -0.00276232  1
  Na  Na49  1  0.75420245  0.75236858  -0.01341831  1
  Na  Na50  1  0.25239188  0.75256946  0.65692661  1
  Na  Na51  1  0.75635533  0.75833890  0.33171894  1
  Na  Na52  1  0.25310209  0.26365420  0.16076638  1
  Na  Na53  1  0.74364516  0.74134283  0.50712741  1
  Na  Na54  1  0.73219667  0.24674106  0.86440294  1
  Na  Na55  1  0.75135462  0.25435670  0.49337913  1
  Na  Na56  1  0.26586664  0.26158258  0.82206033  1
  Na  Na57  1  0.26014301  0.25860153  0.49393571  1
  Na  Na58  1  0.75467343  0.75230855  0.16223858  1
  Na  Na59  1  0.24426320  0.74208981  0.18083764  1
  Na  Na60  1  0.25253491  0.75437664  0.83343848  1
  Na  Na61  1  0.25648047  0.75596217  0.47845084  1
  Fe  Fe62  1  0.95585116  0.31275543  0.11826521  1
  Fe  Fe63  1  0.96318173  0.30627292  0.44992346  1
  Fe  Fe64  1  0.96347847  0.80650636  0.45118009  1
  Fe  Fe65  1  0.46957585  0.30348704  0.45102840  1
  Fe  Fe66  1  0.47350497  0.29321204  0.12201468  1
  Fe  Fe67  1  0.46225186  0.80687356  0.44779102  1
  Fe  Fe68  1  0.46271839  0.80881983  0.78620798  1
  Fe  Fe69  1  0.96438787  0.80630549  0.11940572  1
  Fe  Fe70  1  0.96567229  0.80748270  0.78442029  1
  Fe  Fe71  1  0.96279139  0.30906584  0.79176899  1
  Fe  Fe72  1  0.19192338  0.53739789  0.71445849  1
  Fe  Fe73  1  0.19018318  0.03682957  0.37848850  1
  Fe  Fe74  1  0.19066520  0.03279240  0.71372033  1
  Fe  Fe75  1  0.69021671  0.03437439  0.37734597  1
  Fe  Fe76  1  0.69537620  0.03101342  0.72043530  1
  Fe  Fe77  1  0.18847065  0.53388130  0.04459082  1
  Fe  Fe78  1  0.19104954  0.03914681  0.04991484  1
  Fe  Fe79  1  0.68980131  0.03990875  0.05385584  1
  Fe  Fe80  1  0.68926572  0.53728429  0.37382630  1
  Fe  Fe81  1  0.70057276  0.52923516  0.03809291  1
  Fe  Fe82  1  0.03732353  0.68399130  0.53958752  1
  Fe  Fe83  1  0.03563029  0.19379281  0.88606069  1
  Fe  Fe84  1  0.53065045  0.70305983  0.20991960  1
  Fe  Fe85  1  0.03560896  0.68969863  0.21030839  1
  Fe  Fe86  1  0.53149243  0.69266188  0.54887151  1
  Fe  Fe87  1  0.03531972  0.69636199  0.88173702  1
  Fe  Fe88  1  0.03123889  0.19613288  0.21701662  1
  Fe  Fe89  1  0.53225229  0.69243775  0.87972512  1
  Fe  Fe90  1  0.03498514  0.19419939  0.54685756  1
  Fe  Fe91  1  0.53613012  0.19185193  0.54738952  1
  Fe  Fe92  1  0.30449699  0.96409533  0.28077828  1
  Fe  Fe93  1  0.80076159  0.46935873  0.62180761  1
  Fe  Fe94  1  0.31042729  0.46173993  0.95532501  1
  Fe  Fe95  1  0.30700743  0.96650466  0.61693171  1
  Fe  Fe96  1  0.30906741  0.96584433  0.95618530  1
  Fe  Fe97  1  0.80711851  0.96187638  0.95400737  1
  Fe  Fe98  1  0.80472448  0.96251685  0.61764296  1
  Fe  Fe99  1  0.80867700  0.46685498  0.28323959  1
  Fe  Fe100  1  0.81386599  0.96311279  0.28991971  1
  Fe  Fe101  1  0.31133911  0.46650198  0.62273114  1
  S  S102  1  0.35237313  0.14097735  0.07951192  1
  S  S103  1  0.36008775  0.13849805  0.41513442  1
  S  S104  1  0.35215230  0.14010869  0.74969525  1
  S  S105  1  0.35999514  0.63687711  0.08289871  1
  S  S106  1  0.35948046  0.64552782  0.41875619  1
  S  S107  1  0.35546934  0.64442173  0.74998606  1
  S  S108  1  0.86203915  0.13610345  0.08480176  1
  S  S109  1  0.86035374  0.13974374  0.41983848  1
  S  S110  1  0.86172233  0.13551410  0.75099990  1
  S  S111  1  0.85901268  0.64602877  0.08178136  1
  S  S112  1  0.85763958  0.64106651  0.41873383  1
  S  S113  1  0.86400082  0.64070133  0.74734062  1
  S  S114  1  0.13514327  0.35583399  0.24960274  1
  S  S115  1  0.14005328  0.36078973  0.58520522  1
  S  S116  1  0.14178453  0.35754691  0.91275177  1
  S  S117  1  0.13777674  0.86204808  0.24791544  1
  S  S118  1  0.13886673  0.86109909  0.58170908  1
  S  S119  1  0.13832650  0.86261798  0.91736113  1
  S  S120  1  0.63900984  0.36553401  0.24845707  1
  S  S121  1  0.64333521  0.35414335  0.58236188  1
  S  S122  1  0.64328466  0.36666749  0.91312367  1
  S  S123  1  0.64625940  0.85859417  0.25394220  1
  S  S124  1  0.63926994  0.85706688  0.58419560  1
  S  S125  1  0.63746790  0.86251633  0.91939078  1
  S  S126  1  0.06349180  0.16694582  0.04219139  1
  S  S127  1  0.07039454  0.17633894  0.38143402  1
  S  S128  1  0.06606359  0.16699717  0.70804604  1
  S  S129  1  0.07155223  0.67770620  0.04352883  1
  S  S130  1  0.06653197  0.67576819  0.38006172  1
  S  S131  1  0.06854416  0.67235068  0.70757961  1
  S  S132  1  0.55584648  0.15260318  0.03881829  1
  S  S133  1  0.56550735  0.16472887  0.37643792  1
  S  S134  1  0.57318091  0.16172004  0.70667832  1
  S  S135  1  0.57113759  0.66466819  0.04045977  1
  S  S136  1  0.56691325  0.67362145  0.37369813  1
  S  S137  1  0.55478246  0.66815398  0.70761624  1
  S  S138  1  0.33410359  0.42648330  0.12486832  1
  S  S139  1  0.34087324  0.42843077  0.46405304  1
  S  S140  1  0.33095419  0.43798113  0.78961189  1
  S  S141  1  0.33052102  0.94190574  0.12259209  1
  S  S142  1  0.33042843  0.93745399  0.45859856  1
  S  S143  1  0.32503387  0.93134637  0.78944384  1
  S  S144  1  0.82826714  0.43596863  0.12520336  1
  S  S145  1  0.82525440  0.43042077  0.45626534  1
  S  S146  1  0.83548565  0.43123155  0.78840170  1
  S  S147  1  0.82639425  0.92992181  0.12333224  1
  S  S148  1  0.83154063  0.93412368  0.46079100  1
  S  S149  1  0.83302870  0.93125202  0.79126567  1
  S  S150  1  0.43591967  0.32734533  0.28599529  1
  S  S151  1  0.43902678  0.32857250  0.62426310  1
  S  S152  1  0.42888405  0.32821113  0.96192335  1
  S  S153  1  0.43204494  0.83120440  0.29081506  1
  S  S154  1  0.43273642  0.83543892  0.62523098  1
  S  S155  1  0.43226117  0.83333187  0.95648899  1
  S  S156  1  0.92807216  0.32826281  0.29221134  1
  S  S157  1  0.93444404  0.33067548  0.62365525  1
  S  S158  1  0.93256876  0.32494511  0.95384718  1
  S  S159  1  0.93386355  0.82649677  0.29068522  1
  S  S160  1  0.93342709  0.83145523  0.62322216  1
  S  S161  1  0.93543756  0.83441305  0.96104141  1
  S  S162  1  0.17066798  0.07196299  0.21136038  1
  S  S163  1  0.17352615  0.07041881  0.54366975  1
  S  S164  1  0.16316231  0.06519116  0.87467116  1
  S  S165  1  0.16637230  0.56885941  0.20360732  1
  S  S166  1  0.17007958  0.56348233  0.54502927  1
  S  S167  1  0.17102158  0.57080166  0.87668572  1
  S  S168  1  0.67916282  0.06196989  0.21671635  1
  S  S169  1  0.67031996  0.06109831  0.54195703  1
  S  S170  1  0.67042875  0.05678742  0.87861191  1
  S  S171  1  0.67452600  0.57740227  0.20740187  1
  S  S172  1  0.66731382  0.56618064  0.53802629  1
  S  S173  1  0.66292121  0.57057192  0.87443231  1
  O  O174  1  0.36947218  0.22210474  0.07647891  1
  O  O175  1  0.36940392  0.21559158  0.40358688  1
  O  O176  1  0.35524187  0.21580004  0.73773706  1
  O  O177  1  0.36627076  0.71102073  0.06920510  1
  O  O178  1  0.36929402  0.72975671  0.42110094  1
  O  O179  1  0.36332988  0.72342338  0.74104051  1
  O  O180  1  0.87297288  0.21303030  0.07519437  1
  O  O181  1  0.86639602  0.22044880  0.41437271  1
  O  O182  1  0.87104791  0.21268136  0.74003389  1
  O  O183  1  0.86254201  0.73176009  0.08643056  1
  O  O184  1  0.86324559  0.72151482  0.41313304  1
  O  O185  1  0.87720700  0.71943706  0.73780821  1
  O  O186  1  0.27134487  0.14004023  0.08507704  1
  O  O187  1  0.28047932  0.13098174  0.42216657  1
  O  O188  1  0.27182761  0.12531661  0.75637620  1
  O  O189  1  0.28165218  0.62323668  0.09143384  1
  O  O190  1  0.28616223  0.63267484  0.43202685  1
  O  O191  1  0.27581301  0.63618716  0.75724056  1
  O  O192  1  0.78510722  0.12619851  0.09442274  1
  O  O193  1  0.78207889  0.12826219  0.42908220  1
  O  O194  1  0.78342825  0.12640739  0.75951333  1
  O  O195  1  0.77966483  0.63040788  0.09040454  1
  O  O196  1  0.77907862  0.62908324  0.42785869  1
  O  O197  1  0.78703911  0.63331488  0.75435380  1
  O  O198  1  0.12435908  0.27666839  0.26058711  1
  O  O199  1  0.13108005  0.28249248  0.59498559  1
  O  O200  1  0.13595376  0.27819167  0.92083784  1
  O  O201  1  0.12984037  0.78304202  0.25408236  1
  O  O202  1  0.12760271  0.78158686  0.58715213  1
  O  O203  1  0.13172979  0.78319207  0.92487518  1
  O  O204  1  0.63521361  0.29722007  0.27229862  1
  O  O205  1  0.63553467  0.27258201  0.58615077  1
  O  O206  1  0.63368612  0.29091523  0.92421975  1
  O  O207  1  0.63143512  0.78114128  0.26484433  1
  O  O208  1  0.63051154  0.77683219  0.58936494  1
  O  O209  1  0.62549486  0.78516774  0.92914416  1
  O  O210  1  0.21166848  0.36010409  0.23939851  1
  O  O211  1  0.22081449  0.36911247  0.58079255  1
  O  O212  1  0.21937279  0.36866093  0.90134584  1
  O  O213  1  0.21465171  0.87188838  0.23450055  1
  O  O214  1  0.21803282  0.86978490  0.57411744  1
  O  O215  1  0.21666614  0.87266150  0.90837415  1
  O  O216  1  0.71703868  0.38019463  0.24238976  1
  O  O217  1  0.72328723  0.36514458  0.57668470  1
  O  O218  1  0.71955974  0.38005887  0.90440522  1
  O  O219  1  0.73068761  0.86163227  0.25588477  1
  O  O220  1  0.71758210  0.86626533  0.57442026  1
  O  O221  1  0.71638148  0.86853242  0.91108459  1
  O  O222  1  0.40721376  0.12478389  0.14284692  1
  O  O223  1  0.41777768  0.13269337  0.48483989  1
  O  O224  1  0.41005869  0.13469137  0.81750515  1
  O  O225  1  0.42012312  0.63262625  0.15261250  1
  O  O226  1  0.42430049  0.63328521  0.48408498  1
  O  O227  1  0.41261575  0.63825838  0.81941581  1
  O  O228  1  0.92310788  0.12687344  0.15267790  1
  O  O229  1  0.92014136  0.13293336  0.48819827  1
  O  O230  1  0.92179200  0.12624033  0.81773744  1
  O  O231  1  0.91783595  0.63745106  0.14962376  1
  O  O232  1  0.91710030  0.63454240  0.48716839  1
  O  O233  1  0.92537596  0.63288148  0.81525806  1
  O  O234  1  0.35339254  0.08523288  0.00673539  1
  O  O235  1  0.37005453  0.07674717  0.34958739  1
  O  O236  1  0.36302544  0.07869462  0.68260428  1
  O  O237  1  0.37137512  0.57316041  0.01803222  1
  O  O238  1  0.36900251  0.59353772  0.34977123  1
  O  O239  1  0.36403208  0.58567902  0.68264073  1
  O  O240  1  0.87199722  0.07480243  0.01811236  1
  O  O241  1  0.86939635  0.08342926  0.35176533  1
  O  O242  1  0.86973770  0.07502326  0.68280988  1
  O  O243  1  0.86709314  0.59854692  0.01196213  1
  O  O244  1  0.86545357  0.58434241  0.35040622  1
  O  O245  1  0.87420498  0.58161522  0.67959848  1
  O  O246  1  0.07348680  0.36011090  0.17985361  1
  O  O247  1  0.08229172  0.36809512  0.51627601  1
  O  O248  1  0.08162366  0.36322190  0.84477760  1
  O  O249  1  0.07620960  0.87322861  0.18288230  1
  O  O250  1  0.07979150  0.87454747  0.51658888  1
  O  O251  1  0.07856001  0.86998350  0.84901970  1
  O  O252  1  0.57978939  0.35762317  0.17313710  1
  O  O253  1  0.58662957  0.36107130  0.51161458  1
  O  O254  1  0.58087422  0.37860459  0.85004458  1
  O  O255  1  0.59510479  0.86560321  0.18481776  1
  O  O256  1  0.57916672  0.86824052  0.51812479  1
  O  O257  1  0.57849534  0.87083970  0.85110093  1
  O  O258  1  0.12678225  0.41571469  0.31485970  1
  O  O259  1  0.12876136  0.42059487  0.65141229  1
  O  O260  1  0.13628651  0.41575966  0.98156282  1
  O  O261  1  0.13594428  0.92069776  0.31862126  1
  O  O262  1  0.13251876  0.91875927  0.65178770  1
  O  O263  1  0.12822489  0.92064955  0.98456143  1
  O  O264  1  0.61949515  0.43435017  0.30413648  1
  O  O265  1  0.63122696  0.41040576  0.64775985  1
  O  O266  1  0.63530992  0.42795143  0.98612089  1
  O  O267  1  0.63774777  0.91867814  0.32189827  1
  O  O268  1  0.63350996  0.91426400  0.65393158  1
  O  O269  1  0.62944276  0.92393287  0.98617142  1
  O  O270  1  0.03035475  0.19639582  0.10416737  1
  O  O271  1  0.03000980  0.20465939  0.44049851  1
  O  O272  1  0.03043841  0.19416952  0.76901863  1
  O  O273  1  0.03187126  0.70630192  0.10263841  1
  O  O274  1  0.02251277  0.70666648  0.43729983  1
  O  O275  1  0.03628220  0.70444422  0.77113984  1
  O  O276  1  0.52645202  0.19509174  0.10301753  1
  O  O277  1  0.53135945  0.19748052  0.44070866  1
  O  O278  1  0.53746070  0.18219212  0.76509468  1
  O  O279  1  0.53653024  0.68310979  0.10165567  1
  O  O280  1  0.53113549  0.70306715  0.43521669  1
  O  O281  1  0.52314355  0.70686798  0.77162967  1
  O  O282  1  0.30440168  0.45614787  0.05877655  1
  O  O283  1  0.31954491  0.45844115  0.40148529  1
  O  O284  1  0.29542853  0.47750448  0.73135768  1
  O  O285  1  0.28971652  0.97732123  0.06053828  1
  O  O286  1  0.29905460  0.97048036  0.39558848  1
  O  O287  1  0.29599545  0.96502267  0.72656506  1
  O  O288  1  0.79737290  0.47581328  0.06762761  1
  O  O289  1  0.79823160  0.46789768  0.39623809  1
  O  O290  1  0.82070319  0.46687455  0.72666901  1
  O  O291  1  0.79610270  0.96767305  0.06357672  1
  O  O292  1  0.80435982  0.97042620  0.40050595  1
  O  O293  1  0.80051989  0.96670372  0.72974149  1
  O  O294  1  0.47047313  0.29539701  0.22459446  1
  O  O295  1  0.46936873  0.29662282  0.55802341  1
  O  O296  1  0.45946282  0.31041008  0.89998668  1
  O  O297  1  0.46926506  0.80373969  0.23252191  1
  O  O298  1  0.47197600  0.80450979  0.56697101  1
  O  O299  1  0.46321134  0.79948257  0.89086549  1
  O  O300  1  0.96170773  0.29681334  0.22917364  1
  O  O301  1  0.97168523  0.30023996  0.56274995  1
  O  O302  1  0.97535785  0.28962880  0.89525912  1
  O  O303  1  0.97316128  0.79745989  0.23226221  1
  O  O304  1  0.96958421  0.80358754  0.56271144  1
  O  O305  1  0.96903495  0.80397169  0.89792802  1
  O  O306  1  0.20176944  0.03485570  0.27180419  1
  O  O307  1  0.20059327  0.03047813  0.60249476  1
  O  O308  1  0.19133549  0.02887525  0.93500773  1
  O  O309  1  0.18626317  0.53413015  0.26289341  1
  O  O310  1  0.20268664  0.53035545  0.60984819  1
  O  O311  1  0.19949615  0.53345531  0.93667215  1
  O  O312  1  0.71384425  0.02162512  0.27574582  1
  O  O313  1  0.69999393  0.02542679  0.60383615  1
  O  O314  1  0.71024154  0.02781455  0.94379588  1
  O  O315  1  0.70492936  0.53960814  0.26721925  1
  O  O316  1  0.69526603  0.52651548  0.59501445  1
  O  O317  1  0.69342287  0.54673941  0.94336164  1
  O  O318  1  0.08354790  0.08512463  0.03838290  1
  O  O319  1  0.09378478  0.09849614  0.38092053  1
  O  O320  1  0.08083013  0.08283546  0.69905540  1
  O  O321  1  0.09155633  0.59827329  0.03800830  1
  O  O322  1  0.08845907  0.60045043  0.38502590  1
  O  O323  1  0.08356984  0.58985416  0.70189075  1
  O  O324  1  0.57819466  0.07514689  0.05114971  1
  O  O325  1  0.58900085  0.08618767  0.38161252  1
  O  O326  1  0.59097080  0.07637097  0.69362233  1
  O  O327  1  0.59097731  0.58144546  0.02710088  1
  O  O328  1  0.58093820  0.59038144  0.36443909  1
  O  O329  1  0.56289635  0.58672350  0.70348690  1
  O  O330  1  0.41166186  0.39406394  0.12631622  1
  O  O331  1  0.42602479  0.41227322  0.47992056  1
  O  O332  1  0.40997999  0.42386805  0.78860467  1
  O  O333  1  0.40995518  0.93392819  0.12216330  1
  O  O334  1  0.41198557  0.91841482  0.46235757  1
  O  O335  1  0.40759113  0.91568317  0.79795191  1
  O  O336  1  0.90834640  0.41663398  0.12576528  1
  O  O337  1  0.90747458  0.41198918  0.46493390  1
  O  O338  1  0.91923951  0.41075695  0.80032874  1
  O  O339  1  0.90568323  0.90835344  0.12197038  1
  O  O340  1  0.91237323  0.91291402  0.46612564  1
  O  O341  1  0.91628402  0.91790690  0.79499473  1
  O  O342  1  0.42693024  0.41006187  0.29564423  1
  O  O343  1  0.41739982  0.40971113  0.62915528  1
  O  O344  1  0.41867806  0.41510852  0.98430935  1
  O  O345  1  0.40805494  0.91121491  0.29378890  1
  O  O346  1  0.41738085  0.91767970  0.62810628  1
  O  O347  1  0.41157857  0.91400271  0.95503274  1
  O  O348  1  0.90796208  0.40764786  0.29516134  1
  O  O349  1  0.91970600  0.41280914  0.62864098  1
  O  O350  1  0.91729793  0.40197447  0.95270816  1
  O  O351  1  0.91061489  0.90454202  0.29071742  1
  O  O352  1  0.91450149  0.91353868  0.62971065  1
  O  O353  1  0.91937421  0.91768607  0.96595501  1
  O  O354  1  0.09018930  0.09083950  0.20846311  1
  O  O355  1  0.09322834  0.09085733  0.54155669  1
  O  O356  1  0.08019087  0.08238266  0.86910638  1
  O  O357  1  0.08301674  0.58860161  0.19058941  1
  O  O358  1  0.08889557  0.58293949  0.54625364  1
  O  O359  1  0.08971728  0.59008481  0.86966862  1
  O  O360  1  0.60330341  0.08207094  0.22193812  1
  O  O361  1  0.58695378  0.07501525  0.53336892  1
  O  O362  1  0.58889429  0.06236755  0.87604214  1
  O  O363  1  0.59249464  0.59296691  0.20332871  1
  O  O364  1  0.58600086  0.58550339  0.53567668  1
  O  O365  1  0.57959749  0.58917655  0.86687611  1
  O  O366  1  0.13222670  0.21872950  0.05200956  1
  O  O367  1  0.13843441  0.23303770  0.39896378  1
  O  O368  1  0.13776316  0.21751533  0.72377078  1
  O  O369  1  0.14282211  0.73258882  0.06352032  1
  O  O370  1  0.13233621  0.73504842  0.39834398  1
  O  O371  1  0.14051346  0.72262663  0.72195689  1
  O  O372  1  0.62510752  0.19651221  0.04124640  1
  O  O373  1  0.63602046  0.21708567  0.39100877  1
  O  O374  1  0.64543294  0.21237357  0.72290978  1
  O  O375  1  0.64096049  0.71914272  0.05818881  1
  O  O376  1  0.64134536  0.72310225  0.39375898  1
  O  O377  1  0.62799869  0.71540010  0.72066988  1
  O  O378  1  0.27516057  0.36222701  0.11364533  1
  O  O379  1  0.29012074  0.35578025  0.44913331  1
  O  O380  1  0.27835892  0.36556640  0.77067606  1
  O  O381  1  0.28270129  0.86785338  0.10693029  1
  O  O382  1  0.27842223  0.86933934  0.44827843  1
  O  O383  1  0.27383533  0.85879675  0.77238216  1
  O  O384  1  0.77681046  0.36718226  0.11284238  1
  O  O385  1  0.77239004  0.35866197  0.43726803  1
  O  O386  1  0.78234305  0.35856331  0.76367071  1
  O  O387  1  0.77211314  0.86072613  0.10807163  1
  O  O388  1  0.77821859  0.86443481  0.44644482  1
  O  O389  1  0.78472121  0.85887225  0.77617333  1
  O  O390  1  0.36124328  0.27879538  0.26799222  1
  O  O391  1  0.36685552  0.27617537  0.60801590  1
  O  O392  1  0.35252804  0.28135033  0.94324553  1
  O  O393  1  0.36457001  0.77718910  0.27975267  1
  O  O394  1  0.35923238  0.78583225  0.60702112  1
  O  O395  1  0.35963688  0.78309396  0.94217077  1
  O  O396  1  0.86109353  0.27423673  0.28196198  1
  O  O397  1  0.86214523  0.27891155  0.60533216  1
  O  O398  1  0.86305191  0.26877301  0.93390727  1
  O  O399  1  0.86549096  0.77072556  0.27562995  1
  O  O400  1  0.86298364  0.77930534  0.60806608  1
  O  O401  1  0.86494918  0.78517915  0.94874646  1
  O  O402  1  0.22378422  0.14118691  0.22507638  1
  O  O403  1  0.22709027  0.14061458  0.56087371  1
  O  O404  1  0.21393210  0.13613706  0.88938169  1
  O  O405  1  0.21906216  0.63907114  0.21803008  1
  O  O406  1  0.21967233  0.63664486  0.56166001  1
  O  O407  1  0.22447726  0.64149177  0.89346292  1
  O  O408  1  0.73431277  0.13019692  0.23182181  1
  O  O409  1  0.72059441  0.13413005  0.56015266  1
  O  O410  1  0.71448060  0.12992912  0.88785868  1
  O  O411  1  0.72611131  0.64956067  0.22586452  1
  O  O412  1  0.72005904  0.63904640  0.55812022  1
  O  O413  1  0.71255837  0.64091034  0.88454343  1
  O  O414  1  0.48579965  0.31423976  0.02983920  1
  O  O415  1  0.49135353  0.32148423  0.35796860  1
  O  O416  1  0.50089829  0.33173484  0.69261954  1
  O  O417  1  0.49249645  0.83838270  0.02576673  1
  O  O418  1  0.49275938  0.84248305  0.36712070  1
  O  O419  1  0.48882987  0.83815088  0.69934760  1
  O  O420  1  0.98932564  0.32326864  0.02720032  1
  O  O421  1  0.99122337  0.33361283  0.36442685  1
  O  O422  1  0.99172125  0.32991620  0.69596509  1
  O  O423  1  0.99703961  0.83981407  0.03333382  1
  O  O424  1  0.99205962  0.83404886  0.36538129  1
  O  O425  1  0.99349661  0.83548335  0.69623998  1
  O  O426  1  0.16474511  0.01096569  0.13827646  1
  O  O427  1  0.16975056  0.01184527  0.47070574  1
  O  O428  1  0.15818229  0.00559070  0.80113081  1
  O  O429  1  0.16695887  0.50889610  0.13058576  1
  O  O430  1  0.16684801  0.50424583  0.47593468  1
  O  O431  1  0.16847447  0.51143000  0.80378182  1
  O  O432  1  0.67354704  0.00340980  0.14240973  1
  O  O433  1  0.67253185  0.00301660  0.47083638  1
  O  O434  1  0.67235172  -0.00348813  0.80693308  1
  O  O435  1  0.67320512  0.52105522  0.13372876  1
  O  O436  1  0.66321217  0.51175214  0.46263295  1
  O  O437  1  0.65862258  0.50571787  0.80745807  1
  O  O438  1  0.01061879  0.17064420  0.30850213  1
  O  O439  1  0.00700112  0.16532231  0.63523737  1
  O  O440  1  0.00196232  0.15776405  0.96857018  1
  O  O441  1  0.00983820  0.66829993  0.30411712  1
  O  O442  1  0.00860027  0.67153919  0.63617664  1
  O  O443  1  0.01352539  0.67799043  0.97150886  1
  O  O444  1  0.50497085  0.15561654  0.30619685  1
  O  O445  1  0.51488289  0.15978612  0.63213615  1
  O  O446  1  0.49120160  0.13212674  0.96766567  1
  O  O447  1  0.50994074  0.67658411  0.30256213  1
  O  O448  1  0.49595877  0.67114960  0.63607424  1
  O  O449  1  0.50989510  0.66845113  0.97129363  1
  O  O450  1  0.34885376  0.49210112  0.19395196  1
  O  O451  1  0.33634939  0.48821530  0.53468264  1
  O  O452  1  0.33399914  0.49160993  0.86548720  1
  O  O453  1  0.32760755  0.99845699  0.19495224  1
  O  O454  1  0.33716727  0.99984286  0.53133821  1
  O  O455  1  0.32252534  0.99064723  0.85973706  1
  O  O456  1  0.83742629  0.49606788  0.20070811  1
  O  O457  1  0.82588096  0.48851129  0.52902289  1
  O  O458  1  0.83076072  0.48829254  0.85565145  1
  O  O459  1  0.83518781  0.98862801  0.19744220  1
  O  O460  1  0.83636334  0.99434082  0.53381396  1
  O  O461  1  0.83709608  0.99039880  0.86430195  1
