# generated using pymatgen
data_Na31Fe20(SO4)36
_symmetry_space_group_name_H-M   'P 1'
_cell_length_a   18.08511391
_cell_length_b   18.08438689
_cell_length_c   19.72543930
_cell_angle_alpha   107.59304752
_cell_angle_beta   107.58480401
_cell_angle_gamma   90.70848606
_symmetry_Int_Tables_number   1
_chemical_formula_structural   Na31Fe20(SO4)36
_chemical_formula_sum   'Na62 Fe40 S72 O288'
_cell_volume   5823.96739101
_cell_formula_units_Z   2
loop_
 _symmetry_equiv_pos_site_id
 _symmetry_equiv_pos_as_xyz
  1  'x, y, z'
loop_
 _atom_site_type_symbol
 _atom_site_label
 _atom_site_symmetry_multiplicity
 _atom_site_fract_x
 _atom_site_fract_y
 _atom_site_fract_z
 _atom_site_occupancy
  Na  Na0  1  0.12518045  0.36838443  0.08361353  1
  Na  Na1  1  0.12587128  0.37412668  0.41870856  1
  Na  Na2  1  0.12967007  0.36663303  0.74904345  1
  Na  Na3  1  0.15520477  0.87447693  0.10904178  1
  Na  Na4  1  0.13321888  0.84055636  0.40123456  1
  Na  Na5  1  0.11985175  0.86882738  0.74310808  1
  Na  Na6  1  0.63313730  0.35993784  0.08146251  1
  Na  Na7  1  0.63783384  0.36334940  0.42240333  1
  Na  Na8  1  0.62815931  0.35784207  0.73773961  1
  Na  Na9  1  0.64924691  0.86475012  0.08901238  1
  Na  Na10  1  0.64934786  0.87565866  0.42567630  1
  Na  Na11  1  0.63621897  0.85752810  0.74052379  1
  Na  Na12  1  0.36961987  0.12906155  0.25097614  1
  Na  Na13  1  0.37131785  0.13545021  0.58220929  1
  Na  Na14  1  0.36927559  0.13075474  0.91679497  1
  Na  Na15  1  0.34863064  0.67962762  0.26049264  1
  Na  Na16  1  0.37383311  0.63078090  0.58151753  1
  Na  Na17  1  0.36461924  0.63707848  0.92047806  1
  Na  Na18  1  0.85643056  0.12418027  0.23436345  1
  Na  Na19  1  0.84999688  0.11750300  0.56953607  1
  Na  Na20  1  0.88257939  0.12794346  0.92717633  1
  Na  Na21  1  0.86964024  0.63780260  0.26146525  1
  Na  Na22  1  0.86596515  0.66454098  0.60157064  1
  Na  Na23  1  0.86291426  0.63147177  0.91760825  1
  Na  Na24  1  0.49588048  0.51594367  0.73545074  1
  Na  Na25  1  1.01169946  0.47891553  0.21400103  1
  Na  Na26  1  0.48349266  0.03946660  0.41374065  1
  Na  Na27  1  0.98901412  0.51930132  0.73198805  1
  Na  Na28  1  0.49393236  0.51280364  0.08377409  1
  Na  Na29  1  1.01094771  -0.02391106  0.42364423  1
  Na  Na30  1  0.50770063  -0.00511576  0.08276272  1
  Na  Na31  1  0.49527296  0.00944065  0.74535612  1
  Na  Na32  1  0.50058184  0.49106303  0.44192786  1
  Na  Na33  1  0.47864596  0.51891325  0.25899993  1
  Na  Na34  1  0.02481545  1.00041704  0.23030399  1
  Na  Na35  1  0.00184828  0.49009012  0.92793555  1
  Na  Na36  1  0.56066595  0.99404577  0.93044452  1
  Na  Na37  1  -0.00752398  0.57670652  0.48306485  1
  Na  Na38  1  0.55123987  0.99173463  0.26983842  1
  Na  Na39  1  0.51760928  1.00204592  0.57389232  1
  Na  Na40  1  0.51320299  0.48991825  0.91264239  1
  Na  Na41  1  -0.01351945  0.94245708  0.57510795  1
  Na  Na42  1  0.22865871  0.74355941  0.66355740  1
  Na  Na43  1  0.74216045  0.23304439  0.33678437  1
  Na  Na44  1  0.24312122  0.74545723  0.01823620  1
  Na  Na45  1  0.74619082  0.74081958  0.00412800  1
  Na  Na46  1  0.73392129  0.23758640  0.66808429  1
  Na  Na47  1  0.24313435  0.24699183  0.33795688  1
  Na  Na48  1  0.24130399  0.24410393  0.00534019  1
  Na  Na49  1  0.76175899  0.75707924  0.32231136  1
  Na  Na50  1  0.24837903  0.25082883  0.66850145  1
  Na  Na51  1  0.77110730  0.25576759  0.00286570  1
  Na  Na52  1  0.25330482  0.24859354  0.50003682  1
  Na  Na53  1  0.78890794  0.78678644  0.50788820  1
  Na  Na54  1  0.24719361  0.24267608  0.17354590  1
  Na  Na55  1  0.24012790  0.74249581  0.83591222  1
  Na  Na56  1  0.72991734  0.23084072  0.50415549  1
  Na  Na57  1  0.75373786  0.24897744  0.83483858  1
  Na  Na58  1  0.24844396  0.75087772  0.49669126  1
  Na  Na59  1  0.75072791  0.24311472  0.16434096  1
  Na  Na60  1  0.24210999  0.24156419  0.83798949  1
  Na  Na61  1  0.76114328  0.76046823  0.82200583  1
  Fe  Fe62  1  0.46743701  0.81087404  0.12245765  1
  Fe  Fe63  1  0.46447652  0.30504139  0.45705737  1
  Fe  Fe64  1  0.96051953  0.81433983  0.79248458  1
  Fe  Fe65  1  0.46593125  0.80682949  0.78447210  1
  Fe  Fe66  1  0.46706989  0.30208802  0.78420458  1
  Fe  Fe67  1  0.96074288  0.80704104  0.12029563  1
  Fe  Fe68  1  0.95988335  0.30559549  0.78416279  1
  Fe  Fe69  1  0.46601541  0.31028711  0.12107843  1
  Fe  Fe70  1  0.46441391  0.81049590  0.44629439  1
  Fe  Fe71  1  0.96148078  0.31206063  0.45347466  1
  Fe  Fe72  1  0.20137657  0.02831462  0.37395558  1
  Fe  Fe73  1  0.70480430  0.02864978  0.71074667  1
  Fe  Fe74  1  0.19462334  0.53746723  0.05063532  1
  Fe  Fe75  1  0.69044116  0.53674320  0.71323786  1
  Fe  Fe76  1  0.68472230  0.53015910  0.38066556  1
  Fe  Fe77  1  0.18950798  0.03339626  0.70790139  1
  Fe  Fe78  1  0.69174790  0.53715275  0.05383838  1
  Fe  Fe79  1  0.19549161  0.03145046  0.04304288  1
  Fe  Fe80  1  0.18904999  0.53517175  0.70920577  1
  Fe  Fe81  1  0.19270472  0.53724538  0.37907849  1
  Fe  Fe82  1  0.53766408  0.19146776  0.88347826  1
  Fe  Fe83  1  0.53774427  0.69690910  0.22154308  1
  Fe  Fe84  1  0.53388595  0.69043021  0.88115454  1
  Fe  Fe85  1  0.53659888  0.69602388  0.54786209  1
  Fe  Fe86  1  0.03466813  0.69427604  0.88348047  1
  Fe  Fe87  1  0.03093502  0.19941138  0.20338130  1
  Fe  Fe88  1  0.03201049  0.68993799  0.21303010  1
  Fe  Fe89  1  0.53767815  0.18802839  0.21206492  1
  Fe  Fe90  1  0.03225757  0.19122748  0.87638614  1
  Fe  Fe91  1  0.03155853  0.18984631  0.54064869  1
  Fe  Fe92  1  0.80193460  0.46553634  0.61658065  1
  Fe  Fe93  1  0.80208298  0.96677323  0.28875390  1
  Fe  Fe94  1  0.30507255  0.46600781  0.28355171  1
  Fe  Fe95  1  0.81072785  0.46305522  0.29057103  1
  Fe  Fe96  1  0.30742726  0.96517053  0.61559273  1
  Fe  Fe97  1  0.80957132  0.46100711  0.95755151  1
  Fe  Fe98  1  0.80462143  0.96845284  0.96225217  1
  Fe  Fe99  1  0.30689937  0.46630837  0.95149089  1
  Fe  Fe100  1  0.30691743  0.46247321  0.61834260  1
  Fe  Fe101  1  0.30954976  0.96281760  0.95026623  1
  S  S102  1  0.36129158  0.14209801  0.08077026  1
  S  S103  1  0.35664362  0.14410611  0.41661877  1
  S  S104  1  0.36057554  0.13857798  0.75070538  1
  S  S105  1  0.36344102  0.64041208  0.08468257  1
  S  S106  1  0.36417835  0.63854890  0.41236266  1
  S  S107  1  0.36015077  0.64036233  0.75038188  1
  S  S108  1  0.86353315  0.14115371  0.08599124  1
  S  S109  1  0.86008230  0.14191306  0.41255457  1
  S  S110  1  0.85791157  0.14421527  0.75187290  1
  S  S111  1  0.85856120  0.63576629  0.08067556  1
  S  S112  1  0.83911883  0.63930638  0.41505827  1
  S  S113  1  0.86051289  0.63671705  0.75360856  1
  S  S114  1  0.14433096  0.36110164  0.25128458  1
  S  S115  1  0.13785059  0.35801689  0.58381967  1
  S  S116  1  0.13900291  0.36143233  0.91330604  1
  S  S117  1  0.13496909  0.85870892  0.24922936  1
  S  S118  1  0.14226073  0.86239727  0.57853440  1
  S  S119  1  0.14428632  0.85731712  0.91957834  1
  S  S120  1  0.64139063  0.35664010  0.25080427  1
  S  S121  1  0.63691680  0.36436128  0.58307646  1
  S  S122  1  0.63893386  0.35954984  0.91876001  1
  S  S123  1  0.64484492  0.85345310  0.24551345  1
  S  S124  1  0.63576140  0.86217003  0.58256066  1
  S  S125  1  0.64128091  0.85111842  0.91472929  1
  S  S126  1  0.07747781  0.17489067  0.04369849  1
  S  S127  1  0.07361793  0.17300882  0.37263271  1
  S  S128  1  0.06771408  0.17327228  0.70756999  1
  S  S129  1  0.06854137  0.66952238  0.04222695  1
  S  S130  1  0.06240539  0.65125884  0.36914264  1
  S  S131  1  0.06392535  0.66666908  0.71079540  1
  S  S132  1  0.56153967  0.16889476  0.04375349  1
  S  S133  1  0.56242679  0.17576315  0.37481784  1
  S  S134  1  0.56623469  0.16665495  0.71139649  1
  S  S135  1  0.56413829  0.66593007  0.03925681  1
  S  S136  1  0.56529492  0.67243158  0.37568799  1
  S  S137  1  0.56568467  0.66976748  0.71031392  1
  S  S138  1  0.33208247  0.43389080  0.12230139  1
  S  S139  1  0.32754869  0.43278411  0.45659530  1
  S  S140  1  0.33209189  0.43305856  0.79212973  1
  S  S141  1  0.33865673  0.93795676  0.12177972  1
  S  S142  1  0.33270367  0.93356465  0.45966596  1
  S  S143  1  0.33439529  0.93188165  0.78959032  1
  S  S144  1  0.82129630  0.43128770  0.12300988  1
  S  S145  1  0.82506541  0.42948274  0.45570908  1
  S  S146  1  0.82505401  0.43103305  0.79027949  1
  S  S147  1  0.82977641  0.92783807  0.12531091  1
  S  S148  1  0.83787449  0.93400540  0.44972982  1
  S  S149  1  0.82473731  0.93383388  0.79852117  1
  S  S150  1  0.43463266  0.33604682  0.29238500  1
  S  S151  1  0.42925728  0.33181638  0.62753175  1
  S  S152  1  0.43309829  0.33326427  0.95704461  1
  S  S153  1  0.45138568  0.84528806  0.29648077  1
  S  S154  1  0.43051486  0.82943847  0.62366701  1
  S  S155  1  0.43381549  0.82693886  0.95483498  1
  S  S156  1  0.93242627  0.32483433  0.28861955  1
  S  S157  1  0.92602227  0.32817965  0.62259928  1
  S  S158  1  0.93615244  0.33162643  0.95710828  1
  S  S159  1  0.92982731  0.82851660  0.28856838  1
  S  S160  1  0.93378116  0.84234737  0.64207100  1
  S  S161  1  0.92703581  0.82353045  0.95627426  1
  S  S162  1  0.17045935  0.07484111  0.20668019  1
  S  S163  1  0.17398508  0.07159872  0.54042752  1
  S  S164  1  0.17560696  0.07044122  0.87582805  1
  S  S165  1  0.17057595  0.56671384  0.20587165  1
  S  S166  1  0.18238777  0.57172168  0.55010583  1
  S  S167  1  0.17099392  0.56631681  0.87634960  1
  S  S168  1  0.66679921  0.05938949  0.20400507  1
  S  S169  1  0.66297688  0.06577048  0.54339524  1
  S  S170  1  0.67230975  0.06884894  0.87396015  1
  S  S171  1  0.66143623  0.56062487  0.20858272  1
  S  S172  1  0.66974946  0.57038953  0.54305901  1
  S  S173  1  0.66479961  0.56109622  0.87389626  1
  O  O174  1  0.36987747  0.22104060  0.07148130  1
  O  O175  1  0.36209786  0.22728655  0.41427710  1
  O  O176  1  0.36911564  0.21777364  0.74264213  1
  O  O177  1  0.37374228  0.71726475  0.07295428  1
  O  O178  1  0.37507143  0.71571628  0.40205989  1
  O  O179  1  0.36812914  0.71930139  0.74285897  1
  O  O180  1  0.87432439  0.21651241  0.07503726  1
  O  O181  1  0.87631726  0.21913692  0.40238041  1
  O  O182  1  0.85996864  0.22859713  0.75331484  1
  O  O183  1  0.86981644  0.71125430  0.06687556  1
  O  O184  1  0.85332482  0.71595049  0.40829350  1
  O  O185  1  0.86940756  0.71623824  0.74928385  1
  O  O186  1  0.28121033  0.13319033  0.08623328  1
  O  O187  1  0.27395978  0.13236629  0.41847780  1
  O  O188  1  0.28087709  0.12943666  0.75692762  1
  O  O189  1  0.28272337  0.63106993  0.08724797  1
  O  O190  1  0.28673703  0.63150256  0.42363160  1
  O  O191  1  0.28024207  0.62928186  0.75605290  1
  O  O192  1  0.79160423  0.13089830  0.10327117  1
  O  O193  1  0.78457207  0.14043934  0.42476376  1
  O  O194  1  0.77765739  0.12982551  0.76010579  1
  O  O195  1  0.77852650  0.62931663  0.08631134  1
  O  O196  1  0.75415875  0.62760002  0.40811521  1
  O  O197  1  0.78245254  0.62606997  0.76394301  1
  O  O198  1  0.13213334  0.27851607  0.25295137  1
  O  O199  1  0.12626646  0.27927860  0.59214495  1
  O  O200  1  0.13307211  0.28119483  0.91906686  1
  O  O201  1  0.11770530  0.78240517  0.26002758  1
  O  O202  1  0.13140278  0.78437577  0.58321816  1
  O  O203  1  0.13638666  0.77637944  0.92480839  1
  O  O204  1  0.63165860  0.27639082  0.25609977  1
  O  O205  1  0.63089618  0.28862361  0.59430044  1
  O  O206  1  0.63054198  0.28298969  0.93164226  1
  O  O207  1  0.63785723  0.77036316  0.24439251  1
  O  O208  1  0.62194549  0.78732128  0.59681983  1
  O  O209  1  0.63196875  0.76839182  0.91540387  1
  O  O210  1  0.22542454  0.36691484  0.24514820  1
  O  O211  1  0.21703832  0.36394096  0.57550641  1
  O  O212  1  0.21695214  0.37214253  0.90275951  1
  O  O213  1  0.20751486  0.86338987  0.23353755  1
  O  O214  1  0.22528245  0.87344905  0.57639600  1
  O  O215  1  0.22204304  0.86627722  0.90789120  1
  O  O216  1  0.72090799  0.36589228  0.24450610  1
  O  O217  1  0.71368809  0.37447060  0.56904727  1
  O  O218  1  0.71911195  0.36732723  0.91307898  1
  O  O219  1  0.72416138  0.86777728  0.23862902  1
  O  O220  1  0.70617506  0.86597934  0.56287624  1
  O  O221  1  0.72131027  0.86394158  0.91152678  1
  O  O222  1  0.41864003  0.13667955  0.15047392  1
  O  O223  1  0.41190567  0.13609464  0.48483679  1
  O  O224  1  0.41896558  0.13175464  0.81965458  1
  O  O225  1  0.41989156  0.63463403  0.15499392  1
  O  O226  1  0.42504642  0.62903165  0.47936592  1
  O  O227  1  0.41747929  0.63270770  0.81987291  1
  O  O228  1  0.93042057  0.13402843  0.15333796  1
  O  O229  1  0.92226727  0.13064001  0.47756425  1
  O  O230  1  0.91619828  0.13752150  0.82107170  1
  O  O231  1  0.91640025  0.62956725  0.14962529  1
  O  O232  1  0.88559943  0.63088597  0.48692946  1
  O  O233  1  0.92104757  0.62410967  0.81884249  1
  O  O234  1  0.37169158  0.08245183  0.01445707  1
  O  O235  1  0.36759707  0.09023715  0.34920617  1
  O  O236  1  0.37149800  0.07945951  0.68434979  1
  O  O237  1  0.37549758  0.57811219  0.01945999  1
  O  O238  1  0.36955274  0.57742274  0.34396391  1
  O  O239  1  0.37262806  0.58105152  0.68476499  1
  O  O240  1  0.86883413  0.07805092  0.01896372  1
  O  O241  1  0.86186010  0.08096215  0.34147242  1
  O  O242  1  0.86602988  0.09385683  0.68320853  1
  O  O243  1  0.86614328  0.57365439  0.01345574  1
  O  O244  1  0.85569330  0.57803564  0.35090163  1
  O  O245  1  0.86668405  0.57844144  0.68375705  1
  O  O246  1  0.08774359  0.37542595  0.18771912  1
  O  O247  1  0.07907723  0.36694325  0.51670077  1
  O  O248  1  0.07764826  0.37088306  0.84735229  1
  O  O249  1  0.07000181  0.87158604  0.18541641  1
  O  O250  1  0.08812728  0.87808014  0.51359488  1
  O  O251  1  0.08334447  0.86705195  0.85481859  1
  O  O252  1  0.58342491  0.36586654  0.18272337  1
  O  O253  1  0.57532226  0.37306407  0.51656325  1
  O  O254  1  0.58201836  0.36376302  0.84762246  1
  O  O255  1  0.58580356  0.86360500  0.17718357  1
  O  O256  1  0.56799691  0.87664020  0.52378647  1
  O  O257  1  0.58420164  0.86111306  0.84514125  1
  O  O258  1  0.14161991  0.41529152  0.32364583  1
  O  O259  1  0.13347689  0.41760801  0.65309691  1
  O  O260  1  0.13281438  0.41950212  0.98263635  1
  O  O261  1  0.13257350  0.92066289  0.31968269  1
  O  O262  1  0.13588809  0.92175953  0.64978708  1
  O  O263  1  0.14264342  0.91353770  0.99142827  1
  O  O264  1  0.63141500  0.41304454  0.31929182  1
  O  O265  1  0.63226712  0.42638316  0.65156764  1
  O  O266  1  0.62568959  0.42133402  0.98222959  1
  O  O267  1  0.63472434  0.90638332  0.31325088  1
  O  O268  1  0.63761769  0.92448707  0.65549073  1
  O  O269  1  0.62761637  0.90475831  0.98094905  1
  O  O270  1  0.04181440  0.19864164  0.10461725  1
  O  O271  1  0.03462127  0.19929480  0.43168041  1
  O  O272  1  0.02826308  0.20168713  0.76686572  1
  O  O273  1  0.03210742  0.69640258  0.10267462  1
  O  O274  1  0.02330881  0.65820368  0.42444650  1
  O  O275  1  0.03221211  0.69601241  0.77610225  1
  O  O276  1  0.52753053  0.20727241  0.10576016  1
  O  O277  1  0.52535852  0.21014978  0.43297321  1
  O  O278  1  0.53398088  0.19796241  0.77731124  1
  O  O279  1  0.53008140  0.69652696  0.10089972  1
  O  O280  1  0.53532050  0.70885356  0.44021396  1
  O  O281  1  0.52495217  0.69731951  0.76869964  1
  O  O282  1  0.29956519  0.46798720  0.05996740  1
  O  O283  1  0.29925682  0.47247025  0.39802496  1
  O  O284  1  0.30179539  0.46842184  0.73103638  1
  O  O285  1  0.30512126  0.97060962  0.05638153  1
  O  O286  1  0.30181637  0.96793875  0.39942061  1
  O  O287  1  0.30489005  0.96965208  0.73005584  1
  O  O288  1  0.78705159  0.46893914  0.06190678  1
  O  O289  1  0.79196154  0.46566159  0.39473667  1
  O  O290  1  0.79667252  0.46589694  0.72816963  1
  O  O291  1  0.80558577  0.96487567  0.06656488  1
  O  O292  1  0.80524828  0.97135755  0.38865129  1
  O  O293  1  0.79804605  0.97304540  0.73930285  1
  O  O294  1  0.46947481  0.30600097  0.23050692  1
  O  O295  1  0.46089438  0.30955412  0.56567794  1
  O  O296  1  0.46838292  0.30148998  0.89575852  1
  O  O297  1  0.47787289  0.79849924  0.22948382  1
  O  O298  1  0.46023546  0.79572524  0.55918323  1
  O  O299  1  0.47037148  0.79715480  0.89361380  1
  O  O300  1  0.97624011  0.29676380  0.23392273  1
  O  O301  1  0.96343347  0.30040786  0.56217312  1
  O  O302  1  0.97188651  0.29968289  0.89420762  1
  O  O303  1  0.95239044  0.79336760  0.21824786  1
  O  O304  1  0.95864083  0.81375455  0.57514057  1
  O  O305  1  0.96944621  0.79641496  0.89839853  1
  O  O306  1  0.18527226  0.03572097  0.26397404  1
  O  O307  1  0.20466482  0.03721036  0.60301666  1
  O  O308  1  0.20414887  0.03026417  0.93428069  1
  O  O309  1  0.20208885  0.52995201  0.26736203  1
  O  O310  1  0.21212551  0.52584823  0.60537174  1
  O  O311  1  0.20277198  0.53182395  0.93877199  1
  O  O312  1  0.70093848  0.02533830  0.26593394  1
  O  O313  1  0.68951178  0.04132194  0.61405344  1
  O  O314  1  0.69614897  0.02850808  0.93059079  1
  O  O315  1  0.68706005  0.51920985  0.26496462  1
  O  O316  1  0.70150826  0.53661783  0.60597167  1
  O  O317  1  0.69295175  0.52527754  0.93478454  1
  O  O318  1  0.10127245  0.09573516  0.03426496  1
  O  O319  1  0.09256536  0.09161523  0.36550415  1
  O  O320  1  0.09024235  0.09439034  0.70483928  1
  O  O321  1  0.08958469  0.58803327  0.03560932  1
  O  O322  1  0.08372360  0.56813142  0.34403281  1
  O  O323  1  0.09085023  0.58784041  0.71381286  1
  O  O324  1  0.56606241  0.08674987  0.03906001  1
  O  O325  1  0.57648845  0.09573107  0.37311768  1
  O  O326  1  0.58824240  0.08609099  0.70942830  1
  O  O327  1  0.58023805  0.58269849  0.03494159  1
  O  O328  1  0.57986503  0.59036237  0.37413924  1
  O  O329  1  0.58298931  0.58821838  0.70671937  1
  O  O330  1  0.41549916  0.42031013  0.12712700  1
  O  O331  1  0.40589422  0.40900595  0.45581433  1
  O  O332  1  0.41385179  0.41417246  0.79784257  1
  O  O333  1  0.41999336  0.91821265  0.12143230  1
  O  O334  1  0.41525877  0.91643167  0.46357889  1
  O  O335  1  0.41759516  0.91709374  0.79558019  1
  O  O336  1  0.89951929  0.41446774  0.12338206  1
  O  O337  1  0.90695353  0.41578678  0.46018140  1
  O  O338  1  0.90773749  0.41450196  0.79768828  1
  O  O339  1  0.91448976  0.91660842  0.14198794  1
  O  O340  1  0.91646653  0.91359173  0.44895453  1
  O  O341  1  0.90441238  0.91326904  0.80408664  1
  O  O342  1  0.41607038  0.41837614  0.29645197  1
  O  O343  1  0.40959195  0.41490826  0.64142028  1
  O  O344  1  0.41878079  0.41644308  0.96203516  1
  O  O345  1  0.45677720  0.92760663  0.30068794  1
  O  O346  1  0.41697608  0.91280211  0.63065298  1
  O  O347  1  0.41826514  0.90939929  0.96103688  1
  O  O348  1  0.90918293  0.40281335  0.28609193  1
  O  O349  1  0.90749712  0.40998110  0.62950617  1
  O  O350  1  0.91144552  0.40987425  0.95161983  1
  O  O351  1  0.89887371  0.90629359  0.28775544  1
  O  O352  1  0.93326008  0.92732297  0.66426074  1
  O  O353  1  0.90271199  0.90068040  0.95748932  1
  O  O354  1  0.08987944  0.10101244  0.19578277  1
  O  O355  1  0.09169310  0.08786752  0.53401308  1
  O  O356  1  0.09813381  0.09516872  0.87430785  1
  O  O357  1  0.08870678  0.58226527  0.20015723  1
  O  O358  1  0.11154120  0.60074262  0.56190785  1
  O  O359  1  0.08844255  0.58078482  0.87022983  1
  O  O360  1  0.58652508  0.08133864  0.20871590  1
  O  O361  1  0.58054994  0.08054138  0.53150472  1
  O  O362  1  0.58753819  0.08349783  0.86632369  1
  O  O363  1  0.58045932  0.58352780  0.20641449  1
  O  O364  1  0.58968693  0.59175337  0.54227408  1
  O  O365  1  0.58126310  0.57785175  0.86753004  1
  O  O366  1  0.14622131  0.23292231  0.06235725  1
  O  O367  1  0.14369819  0.22896321  0.39304290  1
  O  O368  1  0.13846855  0.22905951  0.72745853  1
  O  O369  1  0.13648282  0.72352911  0.05573465  1
  O  O370  1  0.13408079  0.70675805  0.39589058  1
  O  O371  1  0.13323011  0.72119129  0.72467010  1
  O  O372  1  0.63691073  0.21336154  0.05887284  1
  O  O373  1  0.63605855  0.22524942  0.39015017  1
  O  O374  1  0.63653482  0.22052666  0.72734986  1
  O  O375  1  0.63427524  0.71443622  0.04900838  1
  O  O376  1  0.63324455  0.72094029  0.38079875  1
  O  O377  1  0.63725008  0.72115949  0.72968306  1
  O  O378  1  0.28396824  0.36142922  0.10842408  1
  O  O379  1  0.27165810  0.36502481  0.44195176  1
  O  O380  1  0.28027020  0.36243260  0.77808365  1
  O  O381  1  0.28873943  0.86595877  0.10656814  1
  O  O382  1  0.28415619  0.86318367  0.45068169  1
  O  O383  1  0.28415926  0.85972304  0.77343590  1
  O  O384  1  0.76775642  0.35997121  0.10566370  1
  O  O385  1  0.77591579  0.35587629  0.43856767  1
  O  O386  1  0.77272077  0.35998060  0.77410976  1
  O  O387  1  0.78153797  0.85327544  0.10442057  1
  O  O388  1  0.78258826  0.86342969  0.43095524  1
  O  O389  1  0.76958562  0.86451437  0.78020575  1
  O  O390  1  0.36398268  0.28436280  0.27784685  1
  O  O391  1  0.35890235  0.27936677  0.61423001  1
  O  O392  1  0.36021273  0.28476434  0.94198624  1
  O  O393  1  0.37390411  0.81043098  0.28583710  1
  O  O394  1  0.35898197  0.78136702  0.61323739  1
  O  O395  1  0.36166691  0.77588144  0.93740070  1
  O  O396  1  0.86322685  0.26922815  0.27068273  1
  O  O397  1  0.85600318  0.27517549  0.60699025  1
  O  O398  1  0.86547522  0.27812268  0.94112997  1
  O  O399  1  0.86925748  0.77331995  0.28732490  1
  O  O400  1  0.85798185  0.79857214  0.63018540  1
  O  O401  1  0.85884946  0.76490837  0.93553006  1
  O  O402  1  0.22880402  0.14331087  0.22779385  1
  O  O403  1  0.22516420  0.14424382  0.55809130  1
  O  O404  1  0.23286858  0.13982406  0.89457130  1
  O  O405  1  0.22039257  0.63678988  0.21897309  1
  O  O406  1  0.24305532  0.63611041  0.56609095  1
  O  O407  1  0.22161198  0.63912761  0.89355438  1
  O  O408  1  0.71650225  0.13151610  0.21736612  1
  O  O409  1  0.71451874  0.13891407  0.56051744  1
  O  O410  1  0.72152870  0.14264597  0.89355881  1
  O  O411  1  0.71649215  0.62790784  0.22332443  1
  O  O412  1  0.72219750  0.63611188  0.55083259  1
  O  O413  1  0.71553749  0.63263005  0.88990124  1
  O  O414  1  0.49181020  0.33558596  0.02983035  1
  O  O415  1  0.49393644  0.34198171  0.36574455  1
  O  O416  1  0.49107638  0.33175989  0.69859422  1
  O  O417  1  0.49267098  0.82696909  0.02656265  1
  O  O418  1  0.50891910  0.83538301  0.36563776  1
  O  O419  1  0.49278368  0.83131890  0.69499491  1
  O  O420  1  0.99472279  0.34170755  0.02869739  1
  O  O421  1  0.98808345  0.33384196  0.36520237  1
  O  O422  1  0.98614145  0.33141475  0.69562591  1
  O  O423  1  0.98492186  0.82680292  0.02956910  1
  O  O424  1  1.00145802  0.84490238  0.35270391  1
  O  O425  1  0.99336804  0.82291665  0.70710522  1
  O  O426  1  0.17120872  0.01591349  0.13534056  1
  O  O427  1  0.17285800  0.01248946  0.46904470  1
  O  O428  1  0.17221041  0.01241687  0.80260761  1
  O  O429  1  0.16939327  0.50455086  0.13431317  1
  O  O430  1  0.16919492  0.51533993  0.47316468  1
  O  O431  1  0.17220703  0.50745309  0.80512412  1
  O  O432  1  0.65286472  0.00043621  0.13055016  1
  O  O433  1  0.67210586  0.00420558  0.48043384  1
  O  O434  1  0.67048080  0.01401922  0.79860398  1
  O  O435  1  0.65088690  0.50240104  0.13209875  1
  O  O436  1  0.65710604  0.50472517  0.47021662  1
  O  O437  1  0.66115335  0.50285148  0.80042714  1
  O  O438  1  0.01740054  0.17249771  0.29854939  1
  O  O439  1  0.01059553  0.17082137  0.63454935  1
  O  O440  1  0.01745967  0.17585406  0.97292333  1
  O  O441  1  0.00706614  0.66256891  0.29917501  1
  O  O442  1  0.00236223  0.65496165  0.64022110  1
  O  O443  1  0.00722688  0.66271140  0.96844801  1
  O  O444  1  0.50633807  0.17470185  0.29982300  1
  O  O445  1  0.50418297  0.16195197  0.64275942  1
  O  O446  1  0.50543640  0.17306247  0.97116597  1
  O  O447  1  0.49983281  0.66415744  0.30379478  1
  O  O448  1  0.50861864  0.66844043  0.63728049  1
  O  O449  1  0.50249884  0.65921509  0.96589542  1
  O  O450  1  0.33521004  0.49369639  0.19445653  1
  O  O451  1  0.33594792  0.49131057  0.53119767  1
  O  O452  1  0.33584090  0.49379876  0.86485528  1
  O  O453  1  0.34262791  0.99836837  0.19080458  1
  O  O454  1  0.34056469  0.99545258  0.53421419  1
  O  O455  1  0.33555953  0.98975906  0.86286893  1
  O  O456  1  0.82063204  0.48963334  0.19528093  1
  O  O457  1  0.82440945  0.48759450  0.52729711  1
  O  O458  1  0.82554624  0.49056911  0.86194978  1
  O  O459  1  0.82035829  0.98424498  0.19614170  1
  O  O460  1  0.84336623  0.98979035  0.52271192  1
  O  O461  1  0.82705587  0.99255065  0.87157120  1
