# generated using pymatgen
data_Na31Fe20(SO4)36
_symmetry_space_group_name_H-M   'P 1'
_cell_length_a   18.07802652
_cell_length_b   18.07587831
_cell_length_c   19.71701138
_cell_angle_alpha   107.55159384
_cell_angle_beta   107.59116001
_cell_angle_gamma   90.73360001
_symmetry_Int_Tables_number   1
_chemical_formula_structural   Na31Fe20(SO4)36
_chemical_formula_sum   'Na62 Fe40 S72 O288'
_cell_volume   5817.40897226
_cell_formula_units_Z   2
loop_
 _symmetry_equiv_pos_site_id
 _symmetry_equiv_pos_as_xyz
  1  'x, y, z'
loop_
 _atom_site_type_symbol
 _atom_site_label
 _atom_site_symmetry_multiplicity
 _atom_site_fract_x
 _atom_site_fract_y
 _atom_site_fract_z
 _atom_site_occupancy
  Na  Na0  1  0.13576482  0.36935879  0.08610014  1
  Na  Na1  1  0.13882904  0.37040664  0.42370326  1
  Na  Na2  1  0.12933264  0.35864141  0.74181168  1
  Na  Na3  1  0.13787662  0.86334065  0.08613409  1
  Na  Na4  1  0.13782604  0.86543637  0.42112578  1
  Na  Na5  1  0.14666744  0.87239037  0.76723227  1
  Na  Na6  1  0.63789371  0.36431476  0.08289626  1
  Na  Na7  1  0.63321135  0.37892076  0.42522475  1
  Na  Na8  1  0.63584567  0.36468654  0.74829004  1
  Na  Na9  1  0.63178755  0.86263556  0.08755049  1
  Na  Na10  1  0.63074199  0.86040376  0.40797006  1
  Na  Na11  1  0.62823776  0.85822629  0.73783154  1
  Na  Na12  1  0.36900452  0.11979196  0.24340048  1
  Na  Na13  1  0.36212462  0.13251007  0.58352273  1
  Na  Na14  1  0.34623536  0.13837822  0.91231168  1
  Na  Na15  1  0.37661028  0.62406197  0.24937497  1
  Na  Na16  1  0.36605759  0.63402534  0.58095022  1
  Na  Na17  1  0.37126719  0.64110254  0.92783936  1
  Na  Na18  1  0.86498712  0.13186632  0.24481342  1
  Na  Na19  1  0.86411644  0.13909552  0.57701867  1
  Na  Na20  1  0.86482891  0.13946065  0.92187000  1
  Na  Na21  1  0.85576830  0.65817835  0.25354552  1
  Na  Na22  1  0.86945994  0.62400519  0.58164412  1
  Na  Na23  1  0.87310988  0.64817907  0.93385498  1
  Na  Na24  1  0.97298184  0.51625453  0.70875250  1
  Na  Na25  1  0.48836748  0.50490925  0.10093923  1
  Na  Na26  1  0.49745494  0.51542061  0.73077962  1
  Na  Na27  1  0.98418979  0.00652062  0.75312849  1
  Na  Na28  1  0.99036439  0.51987534  0.08802114  1
  Na  Na29  1  0.99334230  0.50534784  0.43187759  1
  Na  Na30  1  0.48997919  0.00764949  0.75340587  1
  Na  Na31  1  0.99184177  0.04038302  0.41555771  1
  Na  Na32  1  0.45645812  -0.01594606  0.09108375  1
  Na  Na33  1  0.05905814  0.98754606  0.97136669  1
  Na  Na34  1  0.00235814  1.00826170  0.57793740  1
  Na  Na35  1  0.06909010  0.49856971  0.28147074  1
  Na  Na36  1  0.48876256  0.53914360  0.50410000  1
  Na  Na37  1  0.50649638  0.49322101  0.91470537  1
  Na  Na38  1  0.51754323  0.98967629  0.56321855  1
  Na  Na39  1  0.46593637  1.01771464  0.94098573  1
  Na  Na40  1  0.01169933  0.94818274  0.20704639  1
  Na  Na41  1  0.01236150  0.49045654  0.90618039  1
  Na  Na42  1  0.75973996  0.26776708  0.65997277  1
  Na  Na43  1  0.24308627  0.23854452  0.00561503  1
  Na  Na44  1  0.23382458  0.23840502  0.67964479  1
  Na  Na45  1  0.24994250  0.74983636  0.66447524  1
  Na  Na46  1  0.24649291  0.24423049  0.33443037  1
  Na  Na47  1  0.73642033  0.73804908  0.66615652  1
  Na  Na48  1  0.28261352  0.78533611  0.00334680  1
  Na  Na49  1  0.74796803  0.74630334  0.01708573  1
  Na  Na50  1  0.25718309  0.74465928  0.33066066  1
  Na  Na51  1  0.75401481  0.25589096  0.32650510  1
  Na  Na52  1  0.75326676  0.75462269  0.49467364  1
  Na  Na53  1  0.75665719  0.25828909  0.15567802  1
  Na  Na54  1  0.24556382  0.74098880  0.49640990  1
  Na  Na55  1  0.76115825  0.26794905  0.49421750  1
  Na  Na56  1  0.25861177  0.75243818  0.83181739  1
  Na  Na57  1  0.74857989  0.74786778  0.83979543  1
  Na  Na58  1  0.23553198  0.24229036  0.50881064  1
  Na  Na59  1  0.26521955  0.75321400  0.16168162  1
  Na  Na60  1  0.74282776  0.24467968  0.84402592  1
  Na  Na61  1  0.23856157  0.22069837  0.16449213  1
  Fe  Fe62  1  0.96526344  0.30441416  0.77996342  1
  Fe  Fe63  1  0.46487796  0.31090036  0.12270844  1
  Fe  Fe64  1  0.95818274  0.81504878  0.44787642  1
  Fe  Fe65  1  0.46991589  0.79231808  0.45554158  1
  Fe  Fe66  1  0.46165645  0.30729943  0.78473792  1
  Fe  Fe67  1  0.46884522  0.80659487  0.78674467  1
  Fe  Fe68  1  0.96601666  0.81249254  0.79132913  1
  Fe  Fe69  1  0.46239027  0.30898026  0.45371717  1
  Fe  Fe70  1  0.96275587  0.31118866  0.12092181  1
  Fe  Fe71  1  0.96707654  0.30146257  0.45646241  1
  Fe  Fe72  1  0.69107998  0.53643980  0.38034048  1
  Fe  Fe73  1  0.69563338  0.53368139  0.05240846  1
  Fe  Fe74  1  0.19484056  0.53369789  0.04673820  1
  Fe  Fe75  1  0.19270155  0.03314408  0.37925641  1
  Fe  Fe76  1  0.69121649  0.03768364  0.71649167  1
  Fe  Fe77  1  0.69985203  0.53146407  0.70579340  1
  Fe  Fe78  1  0.18849569  0.53697160  0.71034878  1
  Fe  Fe79  1  0.68588078  0.03234339  0.37417303  1
  Fe  Fe80  1  0.19160992  0.03576717  0.72007289  1
  Fe  Fe81  1  0.68940752  0.03518559  0.04399585  1
  Fe  Fe82  1  0.53318214  0.19362138  0.21448601  1
  Fe  Fe83  1  0.03426527  0.69475400  0.88469751  1
  Fe  Fe84  1  0.03626500  0.17832695  0.20323824  1
  Fe  Fe85  1  0.02947460  0.70382244  0.21633334  1
  Fe  Fe86  1  0.53408986  0.19602329  0.88428254  1
  Fe  Fe87  1  0.53283109  0.19154836  0.54479212  1
  Fe  Fe88  1  0.03481172  0.19473122  0.88088556  1
  Fe  Fe89  1  0.53963127  0.69251859  0.88397444  1
  Fe  Fe90  1  0.03055383  0.69773870  0.54625454  1
  Fe  Fe91  1  0.53873838  0.70060067  0.21185990  1
  Fe  Fe92  1  0.80425745  0.96919929  0.61762635  1
  Fe  Fe93  1  0.30041460  0.46638002  0.28808336  1
  Fe  Fe94  1  0.80795787  0.46478905  0.95209184  1
  Fe  Fe95  1  0.80603565  0.96179969  0.28001485  1
  Fe  Fe96  1  0.31400810  0.96027088  0.29059845  1
  Fe  Fe97  1  0.30281603  0.46828543  0.61603173  1
  Fe  Fe98  1  0.30624568  0.96315787  0.61888661  1
  Fe  Fe99  1  0.81730514  0.96408596  0.95794832  1
  Fe  Fe100  1  0.80736570  0.46863139  0.28556705  1
  Fe  Fe101  1  0.30624499  0.46181789  0.94858702  1
  S  S102  1  0.36551639  0.14068848  0.07804289  1
  S  S103  1  0.35875085  0.14047591  0.41983203  1
  S  S104  1  0.35961090  0.13999838  0.75221926  1
  S  S105  1  0.36380741  0.63448433  0.08196715  1
  S  S106  1  0.35207664  0.63739566  0.41310604  1
  S  S107  1  0.36191196  0.63851844  0.75049865  1
  S  S108  1  0.85669001  0.14304949  0.08138118  1
  S  S109  1  0.85196862  0.13751173  0.41067451  1
  S  S110  1  0.85710517  0.14280449  0.75204873  1
  S  S111  1  0.86129658  0.63817955  0.08419142  1
  S  S112  1  0.85840471  0.64297980  0.41583771  1
  S  S113  1  0.86135631  0.64799595  0.75553432  1
  S  S114  1  0.14136684  0.34944680  0.24691305  1
  S  S115  1  0.14101313  0.36128674  0.58300943  1
  S  S116  1  0.14056347  0.35980304  0.91379898  1
  S  S117  1  0.15013237  0.85358066  0.25710293  1
  S  S118  1  0.13829987  0.86204855  0.58620898  1
  S  S119  1  0.14497298  0.84796886  0.91461752  1
  S  S120  1  0.63942619  0.36050170  0.24944976  1
  S  S121  1  0.63622958  0.35798365  0.58535621  1
  S  S122  1  0.63795482  0.36140802  0.91370712  1
  S  S123  1  0.64544764  0.85902564  0.25094247  1
  S  S124  1  0.63905980  0.86399808  0.58419297  1
  S  S125  1  0.64395440  0.86020847  0.91440248  1
  S  S126  1  0.06590798  0.17754453  0.04685432  1
  S  S127  1  0.06713033  0.16992062  0.37163181  1
  S  S128  1  0.05925003  0.16343399  0.70501177  1
  S  S129  1  0.07079581  0.66332915  0.04425646  1
  S  S130  1  0.05686281  0.67683178  0.37970054  1
  S  S131  1  0.06575942  0.67362236  0.70967308  1
  S  S132  1  0.56836371  0.17407987  0.04326285  1
  S  S133  1  0.56961338  0.17741117  0.37971789  1
  S  S134  1  0.56318514  0.16926399  0.70979325  1
  S  S135  1  0.57124217  0.66227049  0.04032376  1
  S  S136  1  0.57068002  0.67111858  0.37330365  1
  S  S137  1  0.56721646  0.66492863  0.70926412  1
  S  S138  1  0.32517016  0.42834480  0.12164842  1
  S  S139  1  0.32971913  0.43064407  0.45728269  1
  S  S140  1  0.32985778  0.43400725  0.78864759  1
  S  S141  1  0.33738652  0.92550447  0.13493904  1
  S  S142  1  0.33413125  0.92761336  0.46049773  1
  S  S143  1  0.33378409  0.93445084  0.78894751  1
  S  S144  1  0.83048967  0.43230211  0.12505384  1
  S  S145  1  0.83222241  0.43274682  0.45306934  1
  S  S146  1  0.83255660  0.43554875  0.79365429  1
  S  S147  1  0.82281798  0.93446010  0.11759502  1
  S  S148  1  0.82876644  0.93884675  0.46045509  1
  S  S149  1  0.82492507  0.93324670  0.78878656  1
  S  S150  1  0.42441970  0.32434537  0.28783088  1
  S  S151  1  0.42691303  0.32919634  0.62410846  1
  S  S152  1  0.43409392  0.33365012  0.95923993  1
  S  S153  1  0.43282952  0.81820706  0.29427042  1
  S  S154  1  0.42972037  0.82900376  0.62331316  1
  S  S155  1  0.44355987  0.82819342  0.95520837  1
  S  S156  1  0.93295282  0.33068839  0.29166788  1
  S  S157  1  0.93103004  0.32595854  0.61937873  1
  S  S158  1  0.93527823  0.33315644  0.95749155  1
  S  S159  1  0.94169296  0.84488559  0.30020360  1
  S  S160  1  0.93183963  0.83575022  0.62677514  1
  S  S161  1  0.93967327  0.83487695  0.96162623  1
  S  S162  1  0.17153458  0.05710354  0.20958411  1
  S  S163  1  0.17024665  0.06250088  0.54425817  1
  S  S164  1  0.15737581  0.06421018  0.87666995  1
  S  S165  1  0.16597394  0.56462802  0.20697869  1
  S  S166  1  0.16722183  0.57044796  0.54138735  1
  S  S167  1  0.17234484  0.56918845  0.87490851  1
  S  S168  1  0.66636877  0.06775471  0.20544601  1
  S  S169  1  0.67131241  0.07269407  0.54402664  1
  S  S170  1  0.66554185  0.06785094  0.87331425  1
  S  S171  1  0.66929801  0.56722236  0.20694012  1
  S  S172  1  0.67971424  0.57344851  0.54630668  1
  S  S173  1  0.67377237  0.56631975  0.87494932  1
  O  O174  1  0.37868516  0.22200487  0.07207134  1
  O  O175  1  0.36625809  0.21996054  0.41252428  1
  O  O176  1  0.36721959  0.21891686  0.74347478  1
  O  O177  1  0.36670117  0.70823828  0.06691684  1
  O  O178  1  0.37115948  0.71834632  0.40889243  1
  O  O179  1  0.37048734  0.71725139  0.74163600  1
  O  O180  1  0.86575266  0.22209721  0.07441202  1
  O  O181  1  0.86393243  0.21770939  0.40512819  1
  O  O182  1  0.86536627  0.22103772  0.74268128  1
  O  O183  1  0.86957817  0.71046323  0.06758762  1
  O  O184  1  0.86638787  0.72434619  0.41466754  1
  O  O185  1  0.86749137  0.72998677  0.75215404  1
  O  O186  1  0.28594533  0.13339883  0.08062310  1
  O  O187  1  0.28029911  0.13069805  0.43014635  1
  O  O188  1  0.28028062  0.12872392  0.75785926  1
  O  O189  1  0.28844792  0.62148969  0.09672663  1
  O  O190  1  0.27136210  0.63420183  0.41320257  1
  O  O191  1  0.28207793  0.62978815  0.75686962  1
  O  O192  1  0.77866479  0.13331734  0.09127846  1
  O  O193  1  0.77142659  0.13150834  0.41689649  1
  O  O194  1  0.77750808  0.13337631  0.75908080  1
  O  O195  1  0.78171057  0.62514295  0.08907310  1
  O  O196  1  0.78154528  0.63042613  0.42616392  1
  O  O197  1  0.78070300  0.63509552  0.75920557  1
  O  O198  1  0.13158886  0.26530899  0.24334749  1
  O  O199  1  0.13993524  0.28462183  0.59331356  1
  O  O200  1  0.13200492  0.28196911  0.92374552  1
  O  O201  1  0.13441495  0.77637887  0.26732592  1
  O  O202  1  0.12827630  0.78160879  0.59119911  1
  O  O203  1  0.13445192  0.76415846  0.91372445  1
  O  O204  1  0.63033421  0.28063338  0.25605814  1
  O  O205  1  0.61979762  0.28182090  0.59885147  1
  O  O206  1  0.62911390  0.28137328  0.91815997  1
  O  O207  1  0.63371282  0.77983104  0.25972497  1
  O  O208  1  0.63429572  0.79158357  0.60097250  1
  O  O209  1  0.63864823  0.78040992  0.92255423  1
  O  O210  1  0.21957330  0.36054060  0.23799373  1
  O  O211  1  0.21727917  0.37626821  0.56941059  1
  O  O212  1  0.21856106  0.37049341  0.90578785  1
  O  O213  1  0.23341515  0.85773440  0.25883875  1
  O  O214  1  0.21506936  0.86712215  0.57218527  1
  O  O215  1  0.21975392  0.85817936  0.90191657  1
  O  O216  1  0.71710213  0.36860434  0.23776423  1
  O  O217  1  0.71372228  0.35864921  0.57692516  1
  O  O218  1  0.71593130  0.37160132  0.90388562  1
  O  O219  1  0.72745406  0.86826738  0.24958878  1
  O  O220  1  0.71647581  0.87678213  0.57345151  1
  O  O221  1  0.72369526  0.87329376  0.90902206  1
  O  O222  1  0.42212302  0.13404973  0.14987241  1
  O  O223  1  0.41842159  0.13395716  0.48854373  1
  O  O224  1  0.41840979  0.13361644  0.82150991  1
  O  O225  1  0.42826346  0.63022250  0.14950368  1
  O  O226  1  0.40679512  0.62725211  0.48088369  1
  O  O227  1  0.42012620  0.62979500  0.81837785  1
  O  O228  1  0.91657989  0.13417023  0.14872264  1
  O  O229  1  0.90979578  0.12413702  0.47469365  1
  O  O230  1  0.91518493  0.13642055  0.82125306  1
  O  O231  1  0.91881695  0.63685387  0.15674122  1
  O  O232  1  0.92051894  0.62990706  0.48060226  1
  O  O233  1  0.91776817  0.64037055  0.82601826  1
  O  O234  1  0.38076520  0.08360881  0.01419109  1
  O  O235  1  0.36572388  0.08236448  0.35213609  1
  O  O236  1  0.37180881  0.08123958  0.68583323  1
  O  O237  1  0.37135398  0.56949193  0.01622058  1
  O  O238  1  0.36158372  0.57996200  0.34413556  1
  O  O239  1  0.37141203  0.57897607  0.68292511  1
  O  O240  1  0.86287690  0.08426210  0.01245276  1
  O  O241  1  0.85741164  0.08017862  0.33964559  1
  O  O242  1  0.86717173  0.08226391  0.68598537  1
  O  O243  1  0.87575359  0.57179148  0.02268492  1
  O  O244  1  0.86460450  0.58771577  0.34508595  1
  O  O245  1  0.87497109  0.59349446  0.69013186  1
  O  O246  1  0.08146352  0.36651885  0.18335202  1
  O  O247  1  0.07877171  0.36645322  0.51557844  1
  O  O248  1  0.08046786  0.36697585  0.84539555  1
  O  O249  1  0.09849435  0.85971548  0.18658261  1
  O  O250  1  0.07683843  0.87714068  0.52402589  1
  O  O251  1  0.08140367  0.86166976  0.85031390  1
  O  O252  1  0.57863356  0.36911089  0.18262211  1
  O  O253  1  0.57692989  0.36610252  0.51743239  1
  O  O254  1  0.57710663  0.37209674  0.84726852  1
  O  O255  1  0.58987356  0.86697401  0.18412214  1
  O  O256  1  0.57741538  0.86550271  0.51383196  1
  O  O257  1  0.58645393  0.86386170  0.84348267  1
  O  O258  1  0.13532949  0.40039121  0.31798260  1
  O  O259  1  0.13465335  0.42192854  0.65137467  1
  O  O260  1  0.13012559  0.42001339  0.98044177  1
  O  O261  1  0.13913089  0.91550312  0.32260130  1
  O  O262  1  0.13771795  0.91814519  0.65872420  1
  O  O263  1  0.14049368  0.89874584  0.98608121  1
  O  O264  1  0.63539263  0.41808579  0.31916715  1
  O  O265  1  0.63142845  0.42042438  0.65322095  1
  O  O266  1  0.63105065  0.41916176  0.98283021  1
  O  O267  1  0.63813599  0.91749677  0.32107816  1
  O  O268  1  0.62677929  0.93022036  0.64663355  1
  O  O269  1  0.63094694  0.91810554  0.97990743  1
  O  O270  1  0.02245435  0.20974108  0.10278000  1
  O  O271  1  0.02836859  0.19788924  0.42929296  1
  O  O272  1  0.02762137  0.19873546  0.77010328  1
  O  O273  1  0.03695024  0.67984208  0.10563750  1
  O  O274  1  0.02337659  0.71831348  0.44172125  1
  O  O275  1  0.02688735  0.70128973  0.76859053  1
  O  O276  1  0.53652290  0.20441950  0.10675718  1
  O  O277  1  0.52850443  0.20502986  0.43812543  1
  O  O278  1  0.52591623  0.19949367  0.77023028  1
  O  O279  1  0.53898348  0.68854477  0.10265705  1
  O  O280  1  0.52766712  0.69473337  0.42893683  1
  O  O281  1  0.53354549  0.69543852  0.77378149  1
  O  O282  1  0.29400735  0.46254144  0.05881563  1
  O  O283  1  0.30534297  0.46251709  0.39482403  1
  O  O284  1  0.30072103  0.47063050  0.72812488  1
  O  O285  1  0.31734933  0.95800337  0.07296825  1
  O  O286  1  0.30830394  0.96751658  0.40235205  1
  O  O287  1  0.29982278  0.96598691  0.72391235  1
  O  O288  1  0.79636139  0.46447236  0.06126304  1
  O  O289  1  0.80089531  0.46730941  0.38873849  1
  O  O290  1  0.80396663  0.47214692  0.73486966  1
  O  O291  1  0.79152447  0.97531936  0.05853541  1
  O  O292  1  0.79908185  0.97344769  0.39887663  1
  O  O293  1  0.79523203  0.97216073  0.72902723  1
  O  O294  1  0.46684588  0.29786908  0.23049696  1
  O  O295  1  0.46082837  0.29963451  0.56193243  1
  O  O296  1  0.47029438  0.30202813  0.89760737  1
  O  O297  1  0.47393942  0.79248893  0.23780241  1
  O  O298  1  0.46315718  0.80503467  0.56178626  1
  O  O299  1  0.47640326  0.79312613  0.88972138  1
  O  O300  1  0.96847731  0.30279599  0.23017820  1
  O  O301  1  0.96488230  0.29335177  0.55852243  1
  O  O302  1  0.97234225  0.30330583  0.89683679  1
  O  O303  1  0.97591605  0.81261850  0.23926471  1
  O  O304  1  0.96661391  0.80380041  0.56512970  1
  O  O305  1  0.97334772  0.80011913  0.89764369  1
  O  O306  1  0.20429270  0.02316103  0.27416628  1
  O  O307  1  0.20402528  0.02747439  0.60656690  1
  O  O308  1  0.16516624  0.02615934  0.93274929  1
  O  O309  1  0.19294605  0.52155880  0.26173032  1
  O  O310  1  0.20085742  0.53929993  0.60710264  1
  O  O311  1  0.20229527  0.53137061  0.93522845  1
  O  O312  1  0.69540202  0.02909635  0.26466384  1
  O  O313  1  0.70350412  0.03822285  0.60669570  1
  O  O314  1  0.69570232  0.03420821  0.93528094  1
  O  O315  1  0.69733094  0.53188966  0.26926671  1
  O  O316  1  0.70450670  0.53224211  0.60305590  1
  O  O317  1  0.70285820  0.53079692  0.93680067  1
  O  O318  1  0.09036908  0.10401310  0.05603442  1
  O  O319  1  0.08764959  0.08889559  0.37027502  1
  O  O320  1  0.08259091  0.08353931  0.70703786  1
  O  O321  1  0.08573396  0.57801272  0.02467447  1
  O  O322  1  0.06019109  0.59548586  0.37901386  1
  O  O323  1  0.08269034  0.59153139  0.70448752  1
  O  O324  1  0.58534254  0.09168231  0.03560440  1
  O  O325  1  0.59365600  0.10001559  0.38012894  1
  O  O326  1  0.57850061  0.08631037  0.70381292  1
  O  O327  1  0.58838463  0.57839145  0.03085682  1
  O  O328  1  0.59106277  0.59115520  0.36812499  1
  O  O329  1  0.59477420  0.58749010  0.71204997  1
  O  O330  1  0.40800483  0.41494410  0.12702073  1
  O  O331  1  0.41379144  0.41506153  0.47158162  1
  O  O332  1  0.41247015  0.41623938  0.79427068  1
  O  O333  1  0.41637848  0.90202723  0.14835471  1
  O  O334  1  0.41353035  0.90342162  0.46591731  1
  O  O335  1  0.41570433  0.91621401  0.79138337  1
  O  O336  1  0.91301214  0.41866533  0.12826041  1
  O  O337  1  0.90939322  0.40543843  0.44955192  1
  O  O338  1  0.91334970  0.41288503  0.79670181  1
  O  O339  1  0.89911707  0.91269463  0.11510396  1
  O  O340  1  0.91158046  0.92197964  0.46571708  1
  O  O341  1  0.90629267  0.91657706  0.79164729  1
  O  O342  1  0.39746572  0.40040937  0.28637490  1
  O  O343  1  0.40845104  0.41092277  0.63132520  1
  O  O344  1  0.41900013  0.41636982  0.96219756  1
  O  O345  1  0.41059680  0.89720486  0.29996320  1
  O  O346  1  0.41426075  0.91304431  0.63717121  1
  O  O347  1  0.42726801  0.90818603  0.95740121  1
  O  O348  1  0.91641169  0.41371732  0.30020656  1
  O  O349  1  0.91247618  0.40530582  0.62540822  1
  O  O350  1  0.92014536  0.41608803  0.96358271  1
  O  O351  1  0.92213956  0.92617332  0.30032650  1
  O  O352  1  0.91565084  0.91851326  0.63020781  1
  O  O353  1  0.92092460  0.91521406  0.95801521  1
  O  O354  1  0.09180891  0.07858711  0.21183993  1
  O  O355  1  0.08761775  0.07049353  0.53591406  1
  O  O356  1  0.07523915  0.08853790  0.85568538  1
  O  O357  1  0.08624394  0.58685541  0.20885648  1
  O  O358  1  0.08933993  0.59661606  0.54384544  1
  O  O359  1  0.09075823  0.58678370  0.87152047  1
  O  O360  1  0.58564024  0.08727667  0.20073470  1
  O  O361  1  0.58960016  0.08840507  0.54230468  1
  O  O362  1  0.58407402  0.08858128  0.86928348  1
  O  O363  1  0.58926155  0.59113068  0.20181835  1
  O  O364  1  0.60496740  0.60340805  0.54477241  1
  O  O365  1  0.58969985  0.58019555  0.86674720  1
  O  O366  1  0.13373436  0.23450729  0.06238730  1
  O  O367  1  0.13916012  0.22230717  0.38860197  1
  O  O368  1  0.12740837  0.21544835  0.71512104  1
  O  O369  1  0.14299898  0.71434387  0.06312266  1
  O  O370  1  0.13349382  0.71971311  0.39577406  1
  O  O371  1  0.13863751  0.72436425  0.72731720  1
  O  O372  1  0.63795039  0.22528673  0.05479479  1
  O  O373  1  0.63684283  0.23522033  0.39656371  1
  O  O374  1  0.63605280  0.21965304  0.72829337  1
  O  O375  1  0.64024285  0.71300751  0.05062355  1
  O  O376  1  0.64021339  0.72745615  0.39566462  1
  O  O377  1  0.63525832  0.72123706  0.72376285  1
  O  O378  1  0.27646545  0.35517286  0.10535954  1
  O  O379  1  0.27937025  0.35859210  0.44299401  1
  O  O380  1  0.27833506  0.36345959  0.77343474  1
  O  O381  1  0.27805822  0.85801224  0.11999320  1
  O  O382  1  0.27743540  0.85962264  0.44410709  1
  O  O383  1  0.28410591  0.86176080  0.77448258  1
  O  O384  1  0.78221507  0.36055298  0.11239713  1
  O  O385  1  0.77532899  0.36428069  0.43723639  1
  O  O386  1  0.77960260  0.36515038  0.78024714  1
  O  O387  1  0.76585140  0.86749615  0.10174861  1
  O  O388  1  0.77910748  0.86924265  0.45010182  1
  O  O389  1  0.77280761  0.86159877  0.77043693  1
  O  O390  1  0.35891583  0.26426998  0.27114674  1
  O  O391  1  0.35680891  0.27675187  0.61079054  1
  O  O392  1  0.36293494  0.28453133  0.94534771  1
  O  O393  1  0.36359241  0.76085242  0.27421116  1
  O  O394  1  0.35714487  0.77831058  0.60711494  1
  O  O395  1  0.37033916  0.77637661  0.93648239  1
  O  O396  1  0.85983458  0.27906729  0.27265999  1
  O  O397  1  0.85987565  0.27304528  0.60604051  1
  O  O398  1  0.86297027  0.28290804  0.94003291  1
  O  O399  1  0.87341885  0.79542817  0.29348536  1
  O  O400  1  0.85970228  0.78662713  0.61271963  1
  O  O401  1  0.86636869  0.78522637  0.94551307  1
  O  O402  1  0.22446370  0.12901102  0.22700488  1
  O  O403  1  0.21851252  0.13759284  0.56344224  1
  O  O404  1  0.21447916  0.13371214  0.89940620  1
  O  O405  1  0.22062632  0.63317440  0.22225109  1
  O  O406  1  0.22243424  0.63869514  0.55382229  1
  O  O407  1  0.22605945  0.63860405  0.89063301  1
  O  O408  1  0.72010237  0.13853370  0.22253660  1
  O  O409  1  0.72052732  0.14520932  0.55882700  1
  O  O410  1  0.71787108  0.13607878  0.88346597  1
  O  O411  1  0.72378065  0.63220624  0.21653454  1
  O  O412  1  0.74033410  0.63886237  0.56251659  1
  O  O413  1  0.72314125  0.64041934  0.89425014  1
  O  O414  1  0.49458158  0.33906876  0.03240384  1
  O  O415  1  0.48350876  0.33285921  0.36262800  1
  O  O416  1  0.48869067  0.33135267  0.69582961  1
  O  O417  1  0.50163688  0.82729150  0.02448156  1
  O  O418  1  0.48922406  0.82175972  0.36953239  1
  O  O419  1  0.48963403  0.82493376  0.69351004  1
  O  O420  1  0.99298394  0.33463591  0.03050810  1
  O  O421  1  0.99111171  0.32869789  0.36294478  1
  O  O422  1  0.99086072  0.32515348  0.69234604  1
  O  O423  1  0.99903530  0.84037163  0.03202265  1
  O  O424  1  1.00310766  0.85490763  0.37514776  1
  O  O425  1  0.99135953  0.84033264  0.70005614  1
  O  O426  1  0.16491525  -0.00153488  0.13882554  1
  O  O427  1  0.17682660  0.00705100  0.47287176  1
  O  O428  1  0.16391921  0.00723236  0.80487037  1
  O  O429  1  0.15542659  0.50822275  0.12966589  1
  O  O430  1  0.15571768  0.50748474  0.47106936  1
  O  O431  1  0.16770143  0.50966562  0.80143452  1
  O  O432  1  0.66364396  0.00961498  0.13211365  1
  O  O433  1  0.66902649  0.01291755  0.47262067  1
  O  O434  1  0.65778564  0.00538221  0.80013875  1
  O  O435  1  0.66110056  0.50165008  0.13507191  1
  O  O436  1  0.67344706  0.51367932  0.47140693  1
  O  O437  1  0.67563064  0.50870467  0.80372820  1
  O  O438  1  0.01036502  0.16490057  0.29674845  1
  O  O439  1  -0.00438407  0.15015499  0.63455850  1
  O  O440  1  0.00928066  0.16798863  0.97050947  1
  O  O441  1  0.00217375  0.68041132  0.30716976  1
  O  O442  1  0.00791829  0.67376410  0.63735756  1
  O  O443  1  0.01068723  0.66958392  0.97515047  1
  O  O444  1  0.51072286  0.17087751  0.30576643  1
  O  O445  1  0.50554344  0.16798349  0.63712137  1
  O  O446  1  0.50541656  0.17082870  0.97172197  1
  O  O447  1  0.51609516  0.66911060  0.29776227  1
  O  O448  1  0.50467073  0.65434353  0.63879348  1
  O  O449  1  0.50907676  0.65740133  0.96716152  1
  O  O450  1  0.32310968  0.48704109  0.19228480  1
  O  O451  1  0.32673906  0.49222251  0.52724365  1
  O  O452  1  0.33457148  0.49361014  0.86199131  1
  O  O453  1  0.33368924  0.98815104  0.20586457  1
  O  O454  1  0.33932437  0.98800484  0.53436806  1
  O  O455  1  0.33724440  0.99623893  0.85788877  1
  O  O456  1  0.83210029  0.49317384  0.19629974  1
  O  O457  1  0.84152364  0.49321076  0.52353197  1
  O  O458  1  0.84077182  0.49436710  0.86911534  1
  O  O459  1  0.82825907  0.99345038  0.19185783  1
  O  O460  1  0.83543847  1.00078088  0.53385815  1
  O  O461  1  0.82625074  0.99096952  0.86146868  1
