# generated using pymatgen
data_Na31Fe20(SO4)36
_symmetry_space_group_name_H-M   'P 1'
_cell_length_a   18.08823820
_cell_length_b   18.08088763
_cell_length_c   19.72502413
_cell_angle_alpha   107.60455258
_cell_angle_beta   107.59023839
_cell_angle_gamma   90.70909658
_symmetry_Int_Tables_number   1
_chemical_formula_structural   Na31Fe20(SO4)36
_chemical_formula_sum   'Na62 Fe40 S72 O288'
_cell_volume   5823.09958230
_cell_formula_units_Z   2
loop_
 _symmetry_equiv_pos_site_id
 _symmetry_equiv_pos_as_xyz
  1  'x, y, z'
loop_
 _atom_site_type_symbol
 _atom_site_label
 _atom_site_symmetry_multiplicity
 _atom_site_fract_x
 _atom_site_fract_y
 _atom_site_fract_z
 _atom_site_occupancy
  Na  Na0  1  0.13825599  0.37143773  0.09150457  1
  Na  Na1  1  0.13422124  0.36686631  0.41707979  1
  Na  Na2  1  0.14012478  0.35861214  0.74408336  1
  Na  Na3  1  0.12810841  0.86915480  0.08489504  1
  Na  Na4  1  0.13678713  0.86293498  0.41696217  1
  Na  Na5  1  0.12115655  0.86524717  0.73916807  1
  Na  Na6  1  0.63191028  0.36458539  0.07893617  1
  Na  Na7  1  0.63592316  0.36998574  0.42053858  1
  Na  Na8  1  0.63495431  0.37007632  0.75462470  1
  Na  Na9  1  0.65526361  0.83592708  0.07667417  1
  Na  Na10  1  0.63539333  0.87086104  0.42496391  1
  Na  Na11  1  0.63487344  0.87290373  0.75407453  1
  Na  Na12  1  0.36720661  0.13816256  0.24897420  1
  Na  Na13  1  0.35867541  0.13687601  0.59276013  1
  Na  Na14  1  0.35738268  0.11520264  0.89634565  1
  Na  Na15  1  0.35872405  0.63373967  0.25196823  1
  Na  Na16  1  0.37346546  0.62953610  0.59161009  1
  Na  Na17  1  0.35246780  0.62397745  0.89991925  1
  Na  Na18  1  0.86927854  0.13223166  0.25015207  1
  Na  Na19  1  0.86800105  0.12232884  0.58728921  1
  Na  Na20  1  0.86779875  0.13701640  0.91845017  1
  Na  Na21  1  0.86219447  0.64934501  0.24520800  1
  Na  Na22  1  0.87682742  0.64080706  0.59165430  1
  Na  Na23  1  0.86930036  0.66654596  0.95170173  1
  Na  Na24  1  0.48622525  0.00919957  0.42293775  1
  Na  Na25  1  0.99559060  0.56169785  0.08611883  1
  Na  Na26  1  0.96796006  -0.00737160  0.71583768  1
  Na  Na27  1  0.99520510  0.51809409  0.74550396  1
  Na  Na28  1  1.00131681  -0.01694948  0.44676466  1
  Na  Na29  1  0.48852718  0.50542798  0.07830548  1
  Na  Na30  1  0.52296984  -0.01809896  0.04965110  1
  Na  Na31  1  0.99769950  0.55929101  0.43442056  1
  Na  Na32  1  0.46280482  0.50671048  0.42403816  1
  Na  Na33  1  0.51184725  0.99092327  0.24519210  1
  Na  Na34  1  0.48416001  0.50792410  0.25952104  1
  Na  Na35  1  0.00117716  0.92892848  0.22319651  1
  Na  Na36  1  0.00732705  0.96216144  0.90586011  1
  Na  Na37  1  -0.00292537  0.52283875  0.23703671  1
  Na  Na38  1  0.50498643  0.50273567  0.89097947  1
  Na  Na39  1  0.49364744  0.99457187  0.61892731  1
  Na  Na40  1  0.06648328  0.50631878  0.60378044  1
  Na  Na41  1  0.01167580  0.48801214  0.91123464  1
  Na  Na42  1  0.25449617  0.25068663  -0.01020687  1
  Na  Na43  1  0.74299895  0.24187833  0.67970203  1
  Na  Na44  1  0.76001490  0.26241948  -0.01580879  1
  Na  Na45  1  0.25523142  0.26190698  0.32860624  1
  Na  Na46  1  0.23545641  0.73599994  0.34309127  1
  Na  Na47  1  0.24393089  0.74466627  0.00080944  1
  Na  Na48  1  0.75694131  0.76154278  0.32149046  1
  Na  Na49  1  0.75288696  0.25055708  0.33304796  1
  Na  Na50  1  0.77079373  0.77467487  0.66508220  1
  Na  Na51  1  0.22850371  0.73025373  0.67076737  1
  Na  Na52  1  0.26153347  0.26275894  0.16244830  1
  Na  Na53  1  0.23445645  0.73911826  0.17656335  1
  Na  Na54  1  0.24009605  0.73903394  0.83406881  1
  Na  Na55  1  0.75612303  0.75526720  0.83861803  1
  Na  Na56  1  0.23275026  0.73639418  0.50927825  1
  Na  Na57  1  0.24487566  0.24350310  0.50648262  1
  Na  Na58  1  0.76381501  0.77257064  0.49966691  1
  Na  Na59  1  0.75518072  0.25897834  0.16244020  1
  Na  Na60  1  0.25309297  0.23991299  0.81257685  1
  Na  Na61  1  0.74631141  0.24338929  0.50668210  1
  Fe  Fe62  1  0.46575566  0.30760390  0.11971484  1
  Fe  Fe63  1  0.46457849  0.80339975  0.11589624  1
  Fe  Fe64  1  0.96622256  0.30822136  0.45402449  1
  Fe  Fe65  1  0.46572552  0.31150167  0.45575625  1
  Fe  Fe66  1  0.46172160  0.81092124  0.45452200  1
  Fe  Fe67  1  0.46605779  0.80429338  0.78528407  1
  Fe  Fe68  1  0.96399328  0.30757051  0.78474045  1
  Fe  Fe69  1  0.97033609  0.79978655  0.45962759  1
  Fe  Fe70  1  0.46464688  0.29962506  0.78138595  1
  Fe  Fe71  1  0.96559244  0.30902415  0.11827970  1
  Fe  Fe72  1  0.69781180  0.03552986  0.71396107  1
  Fe  Fe73  1  0.69079943  0.53736421  0.38228575  1
  Fe  Fe74  1  0.69712466  0.03078401  0.38205269  1
  Fe  Fe75  1  0.68988282  0.53524486  0.71391933  1
  Fe  Fe76  1  0.68671267  0.53855560  0.04655684  1
  Fe  Fe77  1  0.19188141  0.03548228  0.38056041  1
  Fe  Fe78  1  0.19240658  0.03674831  0.04634039  1
  Fe  Fe79  1  0.69232861  0.03698410  0.04513551  1
  Fe  Fe80  1  0.19853405  0.52895972  0.37359999  1
  Fe  Fe81  1  0.19429186  0.53243969  0.04562508  1
  Fe  Fe82  1  0.53686160  0.69215652  0.88171979  1
  Fe  Fe83  1  0.53608999  0.19105269  0.21278198  1
  Fe  Fe84  1  0.03353285  0.18762197  0.21086451  1
  Fe  Fe85  1  0.02032296  0.71319834  0.87450866  1
  Fe  Fe86  1  0.03462769  0.18579447  0.87597569  1
  Fe  Fe87  1  0.53563974  0.69354241  0.21637697  1
  Fe  Fe88  1  0.53392784  0.19713438  0.55110614  1
  Fe  Fe89  1  0.53344923  0.69611703  0.55149556  1
  Fe  Fe90  1  0.54064124  0.19024832  0.88154689  1
  Fe  Fe91  1  0.03553636  0.19008338  0.55140392  1
  Fe  Fe92  1  0.80689024  0.46756610  0.95133258  1
  Fe  Fe93  1  0.81254010  0.96499709  0.95785225  1
  Fe  Fe94  1  0.30388277  0.46162396  0.94582708  1
  Fe  Fe95  1  0.80577618  0.46914993  0.28746387  1
  Fe  Fe96  1  0.30482944  0.96334824  0.94991228  1
  Fe  Fe97  1  0.29744921  0.96609659  0.62478262  1
  Fe  Fe98  1  0.80672629  0.46823360  0.61950376  1
  Fe  Fe99  1  0.31029888  0.96925734  0.28492318  1
  Fe  Fe100  1  0.30623600  0.46214416  0.62476082  1
  Fe  Fe101  1  0.81210709  0.96195318  0.28359800  1
  S  S102  1  0.36063109  0.14032025  0.08138492  1
  S  S103  1  0.36108045  0.14211445  0.41504839  1
  S  S104  1  0.36913977  0.13182237  0.75148613  1
  S  S105  1  0.36110398  0.63895898  0.08565174  1
  S  S106  1  0.36233243  0.64205467  0.41617381  1
  S  S107  1  0.36401788  0.63699964  0.75059054  1
  S  S108  1  0.85807017  0.14578359  0.08345774  1
  S  S109  1  0.85986348  0.14075734  0.41863836  1
  S  S110  1  0.85930677  0.14538797  0.75226590  1
  S  S111  1  0.85414580  0.63663299  0.08604852  1
  S  S112  1  0.85024611  0.64284466  0.41185136  1
  S  S113  1  0.85558506  0.64134824  0.75139599  1
  S  S114  1  0.13729484  0.35511173  0.24993487  1
  S  S115  1  0.13976610  0.35373692  0.58162464  1
  S  S116  1  0.13928938  0.35561225  0.91556843  1
  S  S117  1  0.15275481  0.85949510  0.25229011  1
  S  S118  1  0.14203285  0.85824512  0.57899342  1
  S  S119  1  0.14443193  0.85988195  0.92024163  1
  S  S120  1  0.64095013  0.36035287  0.25114358  1
  S  S121  1  0.64263467  0.36080122  0.58267235  1
  S  S122  1  0.63766007  0.36413410  0.91684541  1
  S  S123  1  0.63813820  0.86041371  0.24573636  1
  S  S124  1  0.63420588  0.86204552  0.58546614  1
  S  S125  1  0.63701257  0.86155196  0.92046979  1
  S  S126  1  0.06984161  0.17408444  0.04423761  1
  S  S127  1  0.06634494  0.17003362  0.37581494  1
  S  S128  1  0.05921447  0.16536105  0.71072060  1
  S  S129  1  0.07315069  0.67068601  0.03430127  1
  S  S130  1  0.06151126  0.66947889  0.37103490  1
  S  S131  1  0.06462949  0.66556094  0.71504795  1
  S  S132  1  0.56792266  0.17282322  0.04495372  1
  S  S133  1  0.56762926  0.16839659  0.37486321  1
  S  S134  1  0.57026356  0.17219640  0.70782951  1
  S  S135  1  0.55859436  0.65963488  0.03803238  1
  S  S136  1  0.56593094  0.67331497  0.37784085  1
  S  S137  1  0.57361370  0.67525419  0.71395509  1
  S  S138  1  0.33609828  0.43572905  0.12246012  1
  S  S139  1  0.32916100  0.43143144  0.45978478  1
  S  S140  1  0.33310403  0.42314527  0.79158996  1
  S  S141  1  0.33552704  0.93487793  0.12355462  1
  S  S142  1  0.33309999  0.93738708  0.45941600  1
  S  S143  1  0.32672619  0.91746417  0.78943859  1
  S  S144  1  0.82700759  0.43046493  0.12357262  1
  S  S145  1  0.82908388  0.43445575  0.45701599  1
  S  S146  1  0.83049849  0.43398608  0.79011361  1
  S  S147  1  0.82977561  0.94121154  0.12308672  1
  S  S148  1  0.82573630  0.93050363  0.45358473  1
  S  S149  1  0.82966548  0.94027260  0.79497040  1
  S  S150  1  0.44115199  0.33230276  0.29215574  1
  S  S151  1  0.43271884  0.32622489  0.62241347  1
  S  S152  1  0.43113207  0.32513572  0.95510327  1
  S  S153  1  0.43460320  0.83181001  0.29063754  1
  S  S154  1  0.42544369  0.82715476  0.62218241  1
  S  S155  1  0.42834634  0.82194690  0.95550567  1
  S  S156  1  0.92904783  0.33357938  0.29206183  1
  S  S157  1  0.93240761  0.33206489  0.62433953  1
  S  S158  1  0.93618697  0.34048577  0.96169509  1
  S  S159  1  0.93371986  0.83426599  0.29900086  1
  S  S160  1  0.92808570  0.82978889  0.61535418  1
  S  S161  1  0.93725962  0.83893276  0.96317066  1
  S  S162  1  0.17595379  0.07236209  0.21177140  1
  S  S163  1  0.17149137  0.06910716  0.53858061  1
  S  S164  1  0.16666309  0.06124887  0.87582714  1
  S  S165  1  0.17041204  0.56230321  0.20807403  1
  S  S166  1  0.17863883  0.56218952  0.54007120  1
  S  S167  1  0.16809838  0.55574938  0.87334032  1
  S  S168  1  0.66767616  0.06607441  0.20908884  1
  S  S169  1  0.66542868  0.07068301  0.54104465  1
  S  S170  1  0.67667112  0.07069391  0.88063323  1
  S  S171  1  0.66289799  0.56477779  0.20945722  1
  S  S172  1  0.66863580  0.57168245  0.54293306  1
  S  S173  1  0.67207133  0.57024330  0.87693503  1
  O  O174  1  0.36933221  0.22109432  0.07597494  1
  O  O175  1  0.37152519  0.21985239  0.40511994  1
  O  O176  1  0.37679855  0.20829384  0.73698071  1
  O  O177  1  0.36863003  0.71869840  0.07857834  1
  O  O178  1  0.37100928  0.72184532  0.40788774  1
  O  O179  1  0.37641765  0.71238333  0.73572209  1
  O  O180  1  0.86771766  0.22460755  0.07378138  1
  O  O181  1  0.86780588  0.22164309  0.41366480  1
  O  O182  1  0.86824582  0.22460008  0.74273936  1
  O  O183  1  0.86432082  0.71261604  0.07853843  1
  O  O184  1  0.86538525  0.72391922  0.40828975  1
  O  O185  1  0.85922948  0.71562347  0.73796943  1
  O  O186  1  0.28231607  0.13264441  0.09139776  1
  O  O187  1  0.28082629  0.13290151  0.41894221  1
  O  O188  1  0.29567702  0.12273510  0.76591145  1
  O  O189  1  0.28365502  0.62967230  0.09607369  1
  O  O190  1  0.28064585  0.63306517  0.41820425  1
  O  O191  1  0.28881223  0.63429520  0.76411840  1
  O  O192  1  0.77884651  0.13859628  0.09150586  1
  O  O193  1  0.78057649  0.13042186  0.42660513  1
  O  O194  1  0.77843978  0.13695207  0.75512293  1
  O  O195  1  0.77471391  0.62250541  0.09351495  1
  O  O196  1  0.76805436  0.63766341  0.41335108  1
  O  O197  1  0.77875854  0.62571275  0.76133152  1
  O  O198  1  0.12092068  0.27795580  0.26074621  1
  O  O199  1  0.12887202  0.27266595  0.58405390  1
  O  O200  1  0.12791024  0.27633848  0.92206375  1
  O  O201  1  0.14853032  0.78202764  0.26036251  1
  O  O202  1  0.14353459  0.77751732  0.58096166  1
  O  O203  1  0.12713944  0.77899926  0.92465249  1
  O  O204  1  0.63326921  0.28096829  0.25897624  1
  O  O205  1  0.63585509  0.27995284  0.58742558  1
  O  O206  1  0.62930589  0.28667111  0.92844308  1
  O  O207  1  0.62880332  0.78199316  0.25528716  1
  O  O208  1  0.62270251  0.78524182  0.59835547  1
  O  O209  1  0.62559093  0.78496332  0.93274774  1
  O  O210  1  0.21433428  0.35673922  0.24056886  1
  O  O211  1  0.21843996  0.36294669  0.57319375  1
  O  O212  1  0.21889090  0.36188223  0.90824245  1
  O  O213  1  0.23370134  0.87468484  0.24708741  1
  O  O214  1  0.21370325  0.87548839  0.55817570  1
  O  O215  1  0.22756172  0.86155768  0.92125722  1
  O  O216  1  0.72054787  0.37046913  0.24452138  1
  O  O217  1  0.72043613  0.37152550  0.57191592  1
  O  O218  1  0.71578813  0.37319689  0.90833480  1
  O  O219  1  0.71604613  0.87052189  0.23827653  1
  O  O220  1  0.71121624  0.86841927  0.57734467  1
  O  O221  1  0.71696238  0.87022301  0.91539702  1
  O  O222  1  0.42000954  0.13199938  0.14905491  1
  O  O223  1  0.41818068  0.13468745  0.48433279  1
  O  O224  1  0.43396597  0.12846289  0.81851136  1
  O  O225  1  0.42180675  0.63098613  0.15326577  1
  O  O226  1  0.41731327  0.63703782  0.48851512  1
  O  O227  1  0.42663961  0.63016504  0.81798501  1
  O  O228  1  0.91593998  0.14210302  0.15398687  1
  O  O229  1  0.91906273  0.13145475  0.48562319  1
  O  O230  1  0.91512792  0.14450941  0.82583866  1
  O  O231  1  0.91237484  0.62067150  0.14941424  1
  O  O232  1  0.90398214  0.62783767  0.47667609  1
  O  O233  1  0.91721907  0.63992633  0.82280487  1
  O  O234  1  0.36715739  0.08296645  0.01236361  1
  O  O235  1  0.37339834  0.08169338  0.34901973  1
  O  O236  1  0.37572193  0.06983017  0.68382898  1
  O  O237  1  0.36929606  0.58048183  0.01754517  1
  O  O238  1  0.37782168  0.58353695  0.35355780  1
  O  O239  1  0.36816590  0.57378717  0.68366104  1
  O  O240  1  0.86722932  0.08620412  0.01768637  1
  O  O241  1  0.86574997  0.08442923  0.34891990  1
  O  O242  1  0.87398342  0.08550063  0.69058652  1
  O  O243  1  0.86166126  0.57605300  0.01491687  1
  O  O244  1  0.85749209  0.58684167  0.34084561  1
  O  O245  1  0.86931555  0.57736304  0.68817866  1
  O  O246  1  0.07771077  0.36502120  0.18252025  1
  O  O247  1  0.08106594  0.36421193  0.51282118  1
  O  O248  1  0.08121318  0.36762706  0.84889909  1
  O  O249  1  0.09561158  0.86705595  0.18500613  1
  O  O250  1  0.07514744  0.86366774  0.51110251  1
  O  O251  1  0.09224965  0.87294383  0.85385109  1
  O  O252  1  0.58281542  0.36727687  0.18222077  1
  O  O253  1  0.58229801  0.36889806  0.51583010  1
  O  O254  1  0.57688820  0.37063793  0.84920587  1
  O  O255  1  0.57821277  0.86654975  0.17683600  1
  O  O256  1  0.57388243  0.86667135  0.51546508  1
  O  O257  1  0.58033060  0.86572332  0.84970120  1
  O  O258  1  0.13206941  0.41642665  0.31779981  1
  O  O259  1  0.13054965  0.41049958  0.64827538  1
  O  O260  1  0.13244888  0.41431413  0.98442765  1
  O  O261  1  0.14271669  0.91915794  0.32056565  1
  O  O262  1  0.13733460  0.91440982  0.64689635  1
  O  O263  1  0.13698473  0.91778944  0.98984750  1
  O  O264  1  0.63173566  0.41882536  0.31880259  1
  O  O265  1  0.63704416  0.41693248  0.65264214  1
  O  O266  1  0.62890953  0.42434742  0.98442555  1
  O  O267  1  0.62681343  0.92031668  0.31249495  1
  O  O268  1  0.62279555  0.92446111  0.65042904  1
  O  O269  1  0.62585257  0.92321391  0.98606439  1
  O  O270  1  0.03111415  0.20205052  0.10409465  1
  O  O271  1  0.02663812  0.19793464  0.43462569  1
  O  O272  1  0.02498735  0.20700975  0.77315647  1
  O  O273  1  0.03311304  0.68985233  0.08949412  1
  O  O274  1  0.02368943  0.69805270  0.43180788  1
  O  O275  1  0.02843835  0.69969790  0.77683028  1
  O  O276  1  0.53096651  0.20317425  0.10608152  1
  O  O277  1  0.53212876  0.19969413  0.43577661  1
  O  O278  1  0.53977403  0.20455416  0.77263981  1
  O  O279  1  0.52644858  0.69453326  0.10180699  1
  O  O280  1  0.53044068  0.70176279  0.43921624  1
  O  O281  1  0.53678570  0.70460447  0.77490547  1
  O  O282  1  0.30223596  0.46512816  0.05658836  1
  O  O283  1  0.30330220  0.47087798  0.40234365  1
  O  O284  1  0.30525867  0.45459684  0.72953397  1
  O  O285  1  0.30652720  0.97275157  0.06406917  1
  O  O286  1  0.30670501  0.97651539  0.40006006  1
  O  O287  1  0.30265514  0.94915709  0.72702927  1
  O  O288  1  0.79633405  0.46164363  0.06001083  1
  O  O289  1  0.79917771  0.47349629  0.39736808  1
  O  O290  1  0.79896303  0.46742737  0.72726918  1
  O  O291  1  0.79138465  0.97949273  0.06312676  1
  O  O292  1  0.79779898  0.96294186  0.38712033  1
  O  O293  1  0.79089440  0.97423046  0.73506002  1
  O  O294  1  0.47468732  0.29544694  0.22921242  1
  O  O295  1  0.47337194  0.29892516  0.56255027  1
  O  O296  1  0.46782028  0.29595149  0.89481259  1
  O  O297  1  0.47155506  0.80098659  0.23003854  1
  O  O298  1  0.46318174  0.79902936  0.56137476  1
  O  O299  1  0.46296654  0.79275440  0.89381046  1
  O  O300  1  0.96173533  0.30486298  0.22903938  1
  O  O301  1  0.96828565  0.30112327  0.56304438  1
  O  O302  1  0.97016497  0.30981712  0.89960697  1
  O  O303  1  0.97118721  0.81284613  0.24198850  1
  O  O304  1  0.96496915  0.79525834  0.55379161  1
  O  O305  1  0.96999058  0.80913291  0.89731060  1
  O  O306  1  0.20578480  0.03433401  0.27172471  1
  O  O307  1  0.20638326  0.04031699  0.60168893  1
  O  O308  1  0.20178857  0.02884497  0.94171707  1
  O  O309  1  0.20000418  0.52554262  0.26707794  1
  O  O310  1  0.20602131  0.52146300  0.59686458  1
  O  O311  1  0.20457310  0.52708194  0.94193155  1
  O  O312  1  0.69864485  0.03136722  0.27065720  1
  O  O313  1  0.68634022  0.03642576  0.60140263  1
  O  O314  1  0.70582264  0.02963266  0.93860251  1
  O  O315  1  0.69278740  0.52642834  0.26888164  1
  O  O316  1  0.69806168  0.53391006  0.60314427  1
  O  O317  1  0.70009117  0.53201236  0.93710297  1
  O  O318  1  0.08845813  0.09308688  0.03815180  1
  O  O319  1  0.08629367  0.08938343  0.37062273  1
  O  O320  1  0.06517811  0.08550703  0.71069787  1
  O  O321  1  0.08916228  0.58562420  0.02030969  1
  O  O322  1  0.08511174  0.58958404  0.37213114  1
  O  O323  1  0.08790303  0.58874624  0.72076380  1
  O  O324  1  0.58978377  0.09344425  0.04523890  1
  O  O325  1  0.58416473  0.08599632  0.36924469  1
  O  O326  1  0.59423279  0.09377099  0.70724746  1
  O  O327  1  0.56974809  0.57541606  0.03289693  1
  O  O328  1  0.58428914  0.59125399  0.37149576  1
  O  O329  1  0.59333915  0.59545957  0.70973657  1
  O  O330  1  0.41775181  0.41548841  0.12331843  1
  O  O331  1  0.41013120  0.41027293  0.46060449  1
  O  O332  1  0.41529298  0.40303929  0.79977790  1
  O  O333  1  0.41694027  0.91468512  0.12768939  1
  O  O334  1  0.41755576  0.92352376  0.46769107  1
  O  O335  1  0.40896702  0.89981300  0.80321621  1
  O  O336  1  0.90971793  0.41431505  0.13218790  1
  O  O337  1  0.90926827  0.41470910  0.46078440  1
  O  O338  1  0.91312421  0.41734749  0.79414231  1
  O  O339  1  0.90965341  0.93479403  0.12313053  1
  O  O340  1  0.90345640  0.90143413  0.45547579  1
  O  O341  1  0.90970074  0.92933822  0.79402425  1
  O  O342  1  0.43348655  0.41452909  0.29803014  1
  O  O343  1  0.41024430  0.40439103  0.62554976  1
  O  O344  1  0.41261671  0.40697189  0.96142006  1
  O  O345  1  0.41993488  0.91477821  0.29520199  1
  O  O346  1  0.40313926  0.90633846  0.62370841  1
  O  O347  1  0.40841357  0.90297796  0.96223966  1
  O  O348  1  0.91109064  0.41576083  0.30004235  1
  O  O349  1  0.91436900  0.41374962  0.62896102  1
  O  O350  1  0.92083961  0.42361554  0.96720773  1
  O  O351  1  0.91984206  0.92046417  0.31441834  1
  O  O352  1  0.89484178  0.90070704  0.60569156  1
  O  O353  1  0.91938967  0.92015585  0.96348797  1
  O  O354  1  0.09574044  0.09042385  0.20774144  1
  O  O355  1  0.09009094  0.08811865  0.53611986  1
  O  O356  1  0.08787109  0.08398269  0.88017802  1
  O  O357  1  0.08786250  0.57413858  0.19696183  1
  O  O358  1  0.09928741  0.58160627  0.53835011  1
  O  O359  1  0.08598563  0.56935473  0.86910042  1
  O  O360  1  0.58501836  0.08246777  0.20489424  1
  O  O361  1  0.58316808  0.09310749  0.52880500  1
  O  O362  1  0.59913264  0.09408652  0.88306630  1
  O  O363  1  0.57965701  0.58029412  0.20455376  1
  O  O364  1  0.58650909  0.58859867  0.53563760  1
  O  O365  1  0.59083244  0.58860407  0.87460250  1
  O  O366  1  0.14100490  0.22774976  0.06283607  1
  O  O367  1  0.13698391  0.22406754  0.39412215  1
  O  O368  1  0.13308217  0.21207780  0.72492434  1
  O  O369  1  0.14745073  0.72126791  0.05625097  1
  O  O370  1  0.13278237  0.72361304  0.39014797  1
  O  O371  1  0.13378306  0.72081147  0.73007201  1
  O  O372  1  0.63772540  0.22661719  0.06091937  1
  O  O373  1  0.63969339  0.21905685  0.38993232  1
  O  O374  1  0.63417299  0.22722199  0.71404523  1
  O  O375  1  0.63171582  0.70374012  0.04996462  1
  O  O376  1  0.63478496  0.72652999  0.39134192  1
  O  O377  1  0.64278382  0.72980250  0.72967761  1
  O  O378  1  0.28593960  0.36435959  0.11052867  1
  O  O379  1  0.27664564  0.35939141  0.44162524  1
  O  O380  1  0.28167285  0.35538428  0.78382570  1
  O  O381  1  0.28279939  0.86513104  0.10879740  1
  O  O382  1  0.28427740  0.86330986  0.43827958  1
  O  O383  1  0.27361264  0.84779048  0.77671157  1
  O  O384  1  0.77607906  0.35840136  0.10900375  1
  O  O385  1  0.77505855  0.36353684  0.43871373  1
  O  O386  1  0.78008859  0.36318484  0.77641511  1
  O  O387  1  0.78314634  0.86847903  0.10827239  1
  O  O388  1  0.76740665  0.86286517  0.43616295  1
  O  O389  1  0.78201384  0.86644388  0.78266044  1
  O  O390  1  0.36615802  0.28528515  0.27535018  1
  O  O391  1  0.36531103  0.26879370  0.60326501  1
  O  O392  1  0.36032219  0.27247290  0.93887282  1
  O  O393  1  0.36330497  0.78078812  0.27431022  1
  O  O394  1  0.35723518  0.77188259  0.60643231  1
  O  O395  1  0.35983337  0.76821405  0.94316145  1
  O  O396  1  0.85764304  0.28118042  0.27724251  1
  O  O397  1  0.86152396  0.28037900  0.60942556  1
  O  O398  1  0.86460752  0.29147195  0.94856063  1
  O  O399  1  0.85998353  0.78594484  0.28154885  1
  O  O400  1  0.86391943  0.76899383  0.60309532  1
  O  O401  1  0.86411740  0.78908366  0.94449707  1
  O  O402  1  0.22929647  0.14356253  0.22910217  1
  O  O403  1  0.22024681  0.13706551  0.54215713  1
  O  O404  1  0.21922210  0.13203995  0.89015033  1
  O  O405  1  0.22099104  0.63640262  0.22743531  1
  O  O406  1  0.23329145  0.63315156  0.55939675  1
  O  O407  1  0.21636622  0.63030308  0.88984938  1
  O  O408  1  0.71753887  0.13836057  0.22380772  1
  O  O409  1  0.72076900  0.13996018  0.55731164  1
  O  O410  1  0.73216177  0.13947821  0.89793034  1
  O  O411  1  0.71236634  0.63701751  0.22669701  1
  O  O412  1  0.72064470  0.64227084  0.55861836  1
  O  O413  1  0.72338641  0.64010924  0.89138088  1
  O  O414  1  0.49114704  0.32846659  0.02797307  1
  O  O415  1  0.49759809  0.32809709  0.36391800  1
  O  O416  1  0.49301647  0.32829352  0.69433451  1
  O  O417  1  0.49169903  0.82685171  0.02740120  1
  O  O418  1  0.49269656  0.83545760  0.36423159  1
  O  O419  1  0.48665751  0.83252790  0.69438563  1
  O  O420  1  0.99617177  0.34193666  0.03394881  1
  O  O421  1  0.98916162  0.33283783  0.36293367  1
  O  O422  1  0.99247498  0.33564769  0.69688150  1
  O  O423  1  0.99632589  0.83965909  0.03193376  1
  O  O424  1  0.99043146  0.83161966  0.37370151  1
  O  O425  1  0.98901450  0.84485703  0.68781395  1
  O  O426  1  0.17553447  0.01420400  0.13928521  1
  O  O427  1  0.16142374  0.00471119  0.46500425  1
  O  O428  1  0.15891002  0.00006964  0.80645311  1
  O  O429  1  0.17567599  0.50738421  0.13485690  1
  O  O430  1  0.17478152  0.50738537  0.46418634  1
  O  O431  1  0.17154897  0.49402915  0.80747185  1
  O  O432  1  0.66293309  0.00722952  0.13581464  1
  O  O433  1  0.66303867  0.00998615  0.46829611  1
  O  O434  1  0.66848800  0.01345388  0.80579805  1
  O  O435  1  0.65983255  0.50683165  0.13589193  1
  O  O436  1  0.66720081  0.51119091  0.47042256  1
  O  O437  1  0.66713967  0.50909776  0.80434153  1
  O  O438  1  0.00820142  0.16836798  0.30275386  1
  O  O439  1  0.00224409  0.16865161  0.63811815  1
  O  O440  1  0.01117941  0.17493487  0.97274968  1
  O  O441  1  0.00386839  0.66062038  0.29803269  1
  O  O442  1  0.00645784  0.65569947  0.64225793  1
  O  O443  1  0.01930063  0.67513751  0.95969861  1
  O  O444  1  0.50846564  0.16547517  0.30172029  1
  O  O445  1  0.50440243  0.16067474  0.63592654  1
  O  O446  1  0.50891770  0.16738967  0.97242085  1
  O  O447  1  0.50474635  0.66839802  0.30464913  1
  O  O448  1  0.51278334  0.67214679  0.64179534  1
  O  O449  1  0.49795793  0.65734071  0.96617296  1
  O  O450  1  0.34491192  0.49795741  0.19271781  1
  O  O451  1  0.33523751  0.48639837  0.53495110  1
  O  O452  1  0.34035446  0.48767343  0.86456100  1
  O  O453  1  0.34212283  0.99522627  0.19742322  1
  O  O454  1  0.33212137  0.99345052  0.53180994  1
  O  O455  1  0.32523734  0.98059141  0.85981409  1
  O  O456  1  0.82752363  0.49113207  0.19479332  1
  O  O457  1  0.83051423  0.49263352  0.52962692  1
  O  O458  1  0.83463364  0.49460878  0.86207716  1
  O  O459  1  0.82966423  0.99808303  0.19809289  1
  O  O460  1  0.83010541  0.99414527  0.52045498  1
  O  O461  1  0.83273331  0.99703853  0.87019511  1
