# generated using pymatgen
data_Na31Fe20(SO4)36
_symmetry_space_group_name_H-M   'P 1'
_cell_length_a   18.08249595
_cell_length_b   18.07761474
_cell_length_c   19.71875797
_cell_angle_alpha   107.56045649
_cell_angle_beta   107.59971308
_cell_angle_gamma   90.73616299
_symmetry_Int_Tables_number   1
_chemical_formula_structural   Na31Fe20(SO4)36
_chemical_formula_sum   'Na62 Fe40 S72 O288'
_cell_volume   5819.25576246
_cell_formula_units_Z   2
loop_
 _symmetry_equiv_pos_site_id
 _symmetry_equiv_pos_as_xyz
  1  'x, y, z'
loop_
 _atom_site_type_symbol
 _atom_site_label
 _atom_site_symmetry_multiplicity
 _atom_site_fract_x
 _atom_site_fract_y
 _atom_site_fract_z
 _atom_site_occupancy
  Na  Na0  1  0.14096814  0.37513085  0.09422121  1
  Na  Na1  1  0.13819866  0.36746646  0.41716309  1
  Na  Na2  1  0.12273308  0.36259473  0.73389298  1
  Na  Na3  1  0.13150418  0.87006875  0.09495467  1
  Na  Na4  1  0.13770036  0.87229514  0.42181486  1
  Na  Na5  1  0.13388646  0.86887082  0.74967192  1
  Na  Na6  1  0.63351378  0.36101486  0.08478677  1
  Na  Na7  1  0.63570430  0.34613887  0.40586260  1
  Na  Na8  1  0.63605157  0.34549510  0.74178733  1
  Na  Na9  1  0.63572881  0.86762944  0.08098484  1
  Na  Na10  1  0.63272308  0.86871279  0.41379414  1
  Na  Na11  1  0.63328940  0.87133276  0.74911184  1
  Na  Na12  1  0.36063892  0.12405482  0.24798886  1
  Na  Na13  1  0.38034662  0.14313352  0.60145167  1
  Na  Na14  1  0.37000207  0.13314428  0.91864190  1
  Na  Na15  1  0.35931074  0.63649539  0.24976008  1
  Na  Na16  1  0.36149944  0.63752287  0.57746213  1
  Na  Na17  1  0.36750805  0.63028159  0.91430575  1
  Na  Na18  1  0.83757350  0.14775497  0.23992906  1
  Na  Na19  1  0.85653147  0.13736087  0.57529139  1
  Na  Na20  1  0.87196823  0.13242671  0.92177914  1
  Na  Na21  1  0.86545405  0.62958165  0.24791934  1
  Na  Na22  1  0.87180420  0.62365812  0.58081337  1
  Na  Na23  1  0.87208042  0.63632118  0.92291161  1
  Na  Na24  1  0.99199124  0.51816476  0.07843608  1
  Na  Na25  1  0.99444153  0.48826506  0.44711706  1
  Na  Na26  1  0.46445569  0.01211288  0.41005687  1
  Na  Na27  1  0.97830958  -0.00376024  0.08636590  1
  Na  Na28  1  0.45459462  0.50940950  0.40458769  1
  Na  Na29  1  0.49744005  0.06296557  0.77019240  1
  Na  Na30  1  0.98729665  0.01135977  0.74952147  1
  Na  Na31  1  0.48905077  0.50839204  0.08388469  1
  Na  Na32  1  0.50922359  0.48436398  0.75729798  1
  Na  Na33  1  0.01327128  0.48931606  0.25701256  1
  Na  Na34  1  0.50966114  0.48728393  0.25268383  1
  Na  Na35  1  -0.01231157  1.04324675  0.52192220  1
  Na  Na36  1  0.01232597  0.49452542  0.89530790  1
  Na  Na37  1  0.51207461  0.48737967  0.58293217  1
  Na  Na38  1  0.56969989  1.01154839  0.95760608  1
  Na  Na39  1  0.50108830  0.42717417  0.89539872  1
  Na  Na40  1  0.53277855  0.98746637  0.25967442  1
  Na  Na41  1  0.00566768  0.96636556  0.26435159  1
  Na  Na42  1  0.25220091  0.75363710  -0.00066644  1
  Na  Na43  1  0.25124058  0.25443637  -0.00184754  1
  Na  Na44  1  0.26160661  0.76343981  0.65277299  1
  Na  Na45  1  0.75736029  0.75290065  0.66028328  1
  Na  Na46  1  0.75669131  0.75112274  0.32896115  1
  Na  Na47  1  0.23913224  0.24293922  0.66567328  1
  Na  Na48  1  0.24628194  0.25200349  0.33288872  1
  Na  Na49  1  0.72255566  0.22225953  0.01394741  1
  Na  Na50  1  0.24031877  0.75150422  0.34583747  1
  Na  Na51  1  0.76805733  0.76186824  -0.00497484  1
  Na  Na52  1  0.76043043  0.75699558  0.82769598  1
  Na  Na53  1  0.73795898  0.23578423  0.49958578  1
  Na  Na54  1  0.26035783  0.26381212  0.16786357  1
  Na  Na55  1  0.25333800  0.76303529  0.17058266  1
  Na  Na56  1  0.74285073  0.23938642  0.84112829  1
  Na  Na57  1  0.25383279  0.75645257  0.82813420  1
  Na  Na58  1  0.75619656  0.75334968  0.49311851  1
  Na  Na59  1  0.24555842  0.24570311  0.50760772  1
  Na  Na60  1  0.25867249  0.25579624  0.82754340  1
  Na  Na61  1  0.76216956  0.75937458  0.15814740  1
  Fe  Fe62  1  0.96594197  0.80890975  0.45603751  1
  Fe  Fe63  1  0.97115607  0.29553497  0.45610883  1
  Fe  Fe64  1  0.46888007  0.80831637  0.78771953  1
  Fe  Fe65  1  0.46185751  0.31058332  0.45026595  1
  Fe  Fe66  1  0.96219977  0.30244007  0.77764789  1
  Fe  Fe67  1  0.46719616  0.80671619  0.12110770  1
  Fe  Fe68  1  0.96574230  0.30673204  0.11532639  1
  Fe  Fe69  1  0.96467605  0.81342151  0.79009194  1
  Fe  Fe70  1  0.46367572  0.81626544  0.45645517  1
  Fe  Fe71  1  0.46274140  0.30754279  0.12264646  1
  Fe  Fe72  1  0.69809305  0.52782555  0.38438159  1
  Fe  Fe73  1  0.19789188  0.03371457  0.37833473  1
  Fe  Fe74  1  0.19862791  0.53862302  0.37913598  1
  Fe  Fe75  1  0.68424939  0.03740393  0.70546979  1
  Fe  Fe76  1  0.19276353  0.03208323  0.04724068  1
  Fe  Fe77  1  0.18894920  0.03484764  0.71045960  1
  Fe  Fe78  1  0.18865162  0.53873291  0.71098183  1
  Fe  Fe79  1  0.69330635  0.52775524  0.04681040  1
  Fe  Fe80  1  0.19390525  0.53501738  0.04824409  1
  Fe  Fe81  1  0.69659842  0.53239143  0.71616746  1
  Fe  Fe82  1  0.53473519  0.69201924  0.54679349  1
  Fe  Fe83  1  0.03600372  0.19316245  0.87881361  1
  Fe  Fe84  1  0.03367589  0.19633814  0.21286414  1
  Fe  Fe85  1  0.03426403  0.69514161  0.87888547  1
  Fe  Fe86  1  0.53546788  0.68834939  0.88114037  1
  Fe  Fe87  1  0.53769019  0.18317044  0.21402874  1
  Fe  Fe88  1  0.53926978  0.68903059  0.21524932  1
  Fe  Fe89  1  0.02689587  0.70447778  0.21307404  1
  Fe  Fe90  1  0.53557422  0.19105384  0.54524164  1
  Fe  Fe91  1  0.03789387  0.69357570  0.54781615  1
  Fe  Fe92  1  0.80427112  0.96694787  0.95913505  1
  Fe  Fe93  1  0.81221348  0.46123518  0.62045687  1
  Fe  Fe94  1  0.30907805  0.46772554  0.61941443  1
  Fe  Fe95  1  0.30452313  0.46639932  0.94969215  1
  Fe  Fe96  1  0.81074494  0.46301243  0.94939122  1
  Fe  Fe97  1  0.31440867  0.96441272  0.95887702  1
  Fe  Fe98  1  0.31137350  0.96473112  0.62079054  1
  Fe  Fe99  1  0.79552633  0.97589483  0.29087200  1
  Fe  Fe100  1  0.81064413  0.45437355  0.28594020  1
  Fe  Fe101  1  0.79932606  0.96864707  0.61537903  1
  S  S102  1  0.35548721  0.14039314  0.08607675  1
  S  S103  1  0.35617005  0.14811250  0.41894954  1
  S  S104  1  0.35348059  0.14109582  0.75167929  1
  S  S105  1  0.36097427  0.63984365  0.08529403  1
  S  S106  1  0.36080827  0.64746978  0.41582447  1
  S  S107  1  0.36008108  0.64247309  0.74986557  1
  S  S108  1  0.86273113  0.14167431  0.08050122  1
  S  S109  1  0.85931363  0.14163481  0.41423226  1
  S  S110  1  0.85926877  0.13860316  0.75070959  1
  S  S111  1  0.85783953  0.63604296  0.08276774  1
  S  S112  1  0.86235226  0.63389496  0.41824764  1
  S  S113  1  0.85990782  0.63938650  0.75025888  1
  S  S114  1  0.13770580  0.36441547  0.24972341  1
  S  S115  1  0.14061288  0.36509821  0.58006907  1
  S  S116  1  0.13852520  0.36138194  0.91125061  1
  S  S117  1  0.13730387  0.86127482  0.25336605  1
  S  S118  1  0.14126889  0.86072632  0.58512351  1
  S  S119  1  0.14186178  0.85963125  0.91657881  1
  S  S120  1  0.63889635  0.35928580  0.25150703  1
  S  S121  1  0.63924312  0.36204715  0.58264981  1
  S  S122  1  0.64953197  0.35598508  0.91729531  1
  S  S123  1  0.64270706  0.85124904  0.24617046  1
  S  S124  1  0.64096480  0.85514208  0.58178245  1
  S  S125  1  0.64322935  0.84916567  0.91526203  1
  S  S126  1  0.07559723  0.17705994  0.04380116  1
  S  S127  1  0.07263971  0.17419550  0.37453584  1
  S  S128  1  0.06177227  0.16508512  0.70696066  1
  S  S129  1  0.06932767  0.66651497  0.03990660  1
  S  S130  1  0.06726892  0.67373898  0.37651341  1
  S  S131  1  0.06807474  0.67618081  0.71143602  1
  S  S132  1  0.56033187  0.17445271  0.05238427  1
  S  S133  1  0.55278537  0.16657858  0.37637195  1
  S  S134  1  0.56710227  0.16711706  0.70715134  1
  S  S135  1  0.56750350  0.66145742  0.04195067  1
  S  S136  1  0.57071003  0.66371682  0.37550016  1
  S  S137  1  0.56776905  0.66506780  0.70877310  1
  S  S138  1  0.32994183  0.43980212  0.12545736  1
  S  S139  1  0.33008522  0.43995948  0.45778431  1
  S  S140  1  0.32677881  0.43732986  0.78592028  1
  S  S141  1  0.32953971  0.93014514  0.12403286  1
  S  S142  1  0.33189573  0.93841168  0.46021517  1
  S  S143  1  0.32988092  0.92895493  0.79232881  1
  S  S144  1  0.83463060  0.42974069  0.12495977  1
  S  S145  1  0.82969276  0.42184195  0.45718345  1
  S  S146  1  0.83126129  0.43185421  0.79116516  1
  S  S147  1  0.82948492  0.93546197  0.12869225  1
  S  S148  1  0.82947156  0.93096996  0.45630859  1
  S  S149  1  0.82693234  0.93303645  0.78859511  1
  S  S150  1  0.43598285  0.33434407  0.29119485  1
  S  S151  1  0.43698619  0.34016147  0.62479045  1
  S  S152  1  0.42711481  0.33414094  0.96193894  1
  S  S153  1  0.44177826  0.82778035  0.28967669  1
  S  S154  1  0.43572970  0.82896641  0.62633113  1
  S  S155  1  0.43342793  0.82372523  0.95534661  1
  S  S156  1  0.93464458  0.33396881  0.29569596  1
  S  S157  1  0.92990451  0.32714204  0.61800025  1
  S  S158  1  0.93864881  0.33276847  0.95567502  1
  S  S159  1  0.92185525  0.82865600  0.29304311  1
  S  S160  1  0.92879762  0.82846877  0.62377191  1
  S  S161  1  0.93433850  0.83117774  0.95783482  1
  S  S162  1  0.16319709  0.06987280  0.20620701  1
  S  S163  1  0.18206003  0.07028782  0.54678906  1
  S  S164  1  0.17034617  0.06703840  0.87647115  1
  S  S165  1  0.16151474  0.57496644  0.20895355  1
  S  S166  1  0.17283852  0.57219363  0.54214153  1
  S  S167  1  0.17104501  0.56979057  0.87531486  1
  S  S168  1  0.66008343  0.05723787  0.20749594  1
  S  S169  1  0.66462922  0.06278552  0.53520396  1
  S  S170  1  0.67367349  0.06216163  0.87484293  1
  S  S171  1  0.67151949  0.56178207  0.21079001  1
  S  S172  1  0.66848853  0.56543630  0.54286635  1
  S  S173  1  0.67419483  0.56641950  0.87710012  1
  O  O174  1  0.36159034  0.22139451  0.08077426  1
  O  O175  1  0.36225534  0.22910912  0.41281930  1
  O  O176  1  0.35638594  0.21607241  0.73793073  1
  O  O177  1  0.36941689  0.71994821  0.07970837  1
  O  O178  1  0.37149494  0.72864210  0.41238032  1
  O  O179  1  0.37031361  0.72255936  0.74436483  1
  O  O180  1  0.87960703  0.21626105  0.06493118  1
  O  O181  1  0.87999592  0.21820407  0.40223092  1
  O  O182  1  0.86878401  0.21674667  0.74273597  1
  O  O183  1  0.86246583  0.71152552  0.07129561  1
  O  O184  1  0.86883681  0.71467470  0.41367738  1
  O  O185  1  0.86712989  0.71960739  0.74381474  1
  O  O186  1  0.27671494  0.12997176  0.09527974  1
  O  O187  1  0.27522592  0.13687532  0.42250047  1
  O  O188  1  0.27106261  0.12690103  0.75512663  1
  O  O189  1  0.28319587  0.63078483  0.09576676  1
  O  O190  1  0.28131714  0.63757913  0.42159605  1
  O  O191  1  0.28145125  0.63437242  0.75880614  1
  O  O192  1  0.78341579  0.13706397  0.08236854  1
  O  O193  1  0.78238089  0.14146232  0.42232441  1
  O  O194  1  0.78184407  0.12815897  0.76024197  1
  O  O195  1  0.78039003  0.62188605  0.09323493  1
  O  O196  1  0.78624397  0.62390453  0.43242499  1
  O  O197  1  0.78182761  0.62990104  0.76096325  1
  O  O198  1  0.12656868  0.28642488  0.26017225  1
  O  O199  1  0.13900705  0.28913483  0.59149727  1
  O  O200  1  0.13182246  0.28201772  0.91855244  1
  O  O201  1  0.12312165  0.78380810  0.26602912  1
  O  O202  1  0.12930012  0.78300014  0.59564214  1
  O  O203  1  0.13198173  0.77893455  0.92172152  1
  O  O204  1  0.62805284  0.28231127  0.26016096  1
  O  O205  1  0.62811766  0.28334070  0.58851965  1
  O  O206  1  0.64312675  0.27895082  0.92513014  1
  O  O207  1  0.63914762  0.76907758  0.24954279  1
  O  O208  1  0.63262253  0.77633439  0.59176600  1
  O  O209  1  0.63375582  0.76835859  0.92078152  1
  O  O210  1  0.21153886  0.37144441  0.23575702  1
  O  O211  1  0.21607390  0.37972749  0.56563394  1
  O  O212  1  0.21618719  0.37098330  0.90061151  1
  O  O213  1  0.21557778  0.86561758  0.24713449  1
  O  O214  1  0.22157034  0.86767560  0.58108189  1
  O  O215  1  0.22133870  0.86814521  0.90902199  1
  O  O216  1  0.71511763  0.37022364  0.23969752  1
  O  O217  1  0.71823536  0.37185676  0.57542875  1
  O  O218  1  0.73159365  0.37129634  0.91530606  1
  O  O219  1  0.72410133  0.86725944  0.24405007  1
  O  O220  1  0.72107729  0.86347288  0.57512629  1
  O  O221  1  0.72474487  0.85861880  0.91267389  1
  O  O222  1  0.41491515  0.13073385  0.15188098  1
  O  O223  1  0.41242927  0.14322313  0.49028750  1
  O  O224  1  0.40907154  0.13708363  0.82138948  1
  O  O225  1  0.42189558  0.62799460  0.15041041  1
  O  O226  1  0.41878617  0.63798437  0.48541933  1
  O  O227  1  0.41931858  0.63184123  0.81676641  1
  O  O228  1  0.91947124  0.13998626  0.15328452  1
  O  O229  1  0.91882863  0.13086151  0.47872729  1
  O  O230  1  0.92033568  0.12976252  0.81828927  1
  O  O231  1  0.91920529  0.63093383  0.15153377  1
  O  O232  1  0.92573963  0.62330132  0.48262242  1
  O  O233  1  0.92051802  0.63133272  0.81701094  1
  O  O234  1  0.35943050  0.08414066  0.01501016  1
  O  O235  1  0.36924208  0.09110894  0.35455917  1
  O  O236  1  0.36699541  0.07832533  0.68733030  1
  O  O237  1  0.36674904  0.58291713  0.01512064  1
  O  O238  1  0.37224060  0.59101427  0.34997872  1
  O  O239  1  0.36682930  0.58517487  0.68074246  1
  O  O240  1  0.87774168  0.07651607  0.01902615  1
  O  O241  1  0.86069425  0.07952333  0.34239710  1
  O  O242  1  0.86793660  0.07816676  0.68310531  1
  O  O243  1  0.86953324  0.57401440  0.01703927  1
  O  O244  1  0.86471205  0.57687628  0.34720085  1
  O  O245  1  0.86384431  0.58179311  0.68018205  1
  O  O246  1  0.07267026  0.37420796  0.18487649  1
  O  O247  1  0.07699223  0.36840873  0.51077909  1
  O  O248  1  0.07749317  0.37128448  0.84504784  1
  O  O249  1  0.07677768  0.86913014  0.18781814  1
  O  O250  1  0.08367829  0.86641336  0.51558973  1
  O  O251  1  0.08358953  0.86833759  0.84867043  1
  O  O252  1  0.57668478  0.37392911  0.18791237  1
  O  O253  1  0.58057932  0.37454638  0.51622068  1
  O  O254  1  0.59440743  0.36647449  0.84967698  1
  O  O255  1  0.58640358  0.85480041  0.17440251  1
  O  O256  1  0.58369606  0.85853521  0.51131900  1
  O  O257  1  0.58834281  0.85473487  0.84352592  1
  O  O258  1  0.13240267  0.42482897  0.31921568  1
  O  O259  1  0.13139778  0.42621065  0.64605745  1
  O  O260  1  0.13245433  0.41956202  0.98077425  1
  O  O261  1  0.13048815  0.92244186  0.32278130  1
  O  O262  1  0.13101806  0.92077792  0.65175500  1
  O  O263  1  0.13479832  0.91615252  0.98571287  1
  O  O264  1  0.63423892  0.41950112  0.32207315  1
  O  O265  1  0.63132722  0.42101700  0.65186182  1
  O  O266  1  0.63721129  0.41625123  0.98530266  1
  O  O267  1  0.62686619  0.90514661  0.31030212  1
  O  O268  1  0.63249254  0.91464487  0.64801234  1
  O  O269  1  0.62995232  0.90633443  0.97920683  1
  O  O270  1  0.04025391  0.20863224  0.10552843  1
  O  O271  1  0.03718576  0.20613978  0.43536064  1
  O  O272  1  0.02946414  0.20124859  0.77173865  1
  O  O273  1  0.03501613  0.68854853  0.10058368  1
  O  O274  1  0.03035124  0.70220530  0.43823461  1
  O  O275  1  0.02793412  0.70557514  0.76986376  1
  O  O276  1  0.52400038  0.21102755  0.11539783  1
  O  O277  1  0.51979086  0.20760410  0.43948224  1
  O  O278  1  0.52858028  0.18560286  0.76378173  1
  O  O279  1  0.52922526  0.69222592  0.10130860  1
  O  O280  1  0.53508332  0.69355187  0.43631335  1
  O  O281  1  0.53019373  0.69481609  0.76842333  1
  O  O282  1  0.29651577  0.46849995  0.05781264  1
  O  O283  1  0.30252428  0.47717079  0.39886614  1
  O  O284  1  0.29118253  0.47477276  0.72584504  1
  O  O285  1  0.29902520  0.96379973  0.05901452  1
  O  O286  1  0.30310263  0.97889749  0.40410626  1
  O  O287  1  0.30089251  0.96594882  0.73222277  1
  O  O288  1  0.80398947  0.46814027  0.06603384  1
  O  O289  1  0.80427983  0.46051424  0.39643132  1
  O  O290  1  0.80020936  0.46740656  0.72913092  1
  O  O291  1  0.80150294  0.96966081  0.06745333  1
  O  O292  1  0.80596162  0.96435552  0.39415397  1
  O  O293  1  0.79467621  0.96752120  0.72668301  1
  O  O294  1  0.46805134  0.29258595  0.22973845  1
  O  O295  1  0.46652088  0.30883313  0.55898507  1
  O  O296  1  0.45874982  0.30980649  0.90070285  1
  O  O297  1  0.47911755  0.79057895  0.22899089  1
  O  O298  1  0.47283877  0.80067402  0.56508754  1
  O  O299  1  0.47165013  0.79408964  0.89507116  1
  O  O300  1  0.96968090  0.30522679  0.23394172  1
  O  O301  1  0.96908456  0.30665542  0.55910640  1
  O  O302  1  0.97427850  0.30175448  0.89427428  1
  O  O303  1  0.95796154  0.80179537  0.23326060  1
  O  O304  1  0.96681923  0.80034701  0.56378934  1
  O  O305  1  0.96856864  0.80172493  0.89361982  1
  O  O306  1  0.18248147  0.03569541  0.26713058  1
  O  O307  1  0.20946947  0.02651165  0.60370671  1
  O  O308  1  0.19742088  0.03001954  0.93699551  1
  O  O309  1  0.18488304  0.53919044  0.26888708  1
  O  O310  1  0.20338691  0.53776292  0.60422910  1
  O  O311  1  0.20171688  0.53360514  0.93691848  1
  O  O312  1  0.69690632  0.02272067  0.27113763  1
  O  O313  1  0.69838891  0.03149819  0.60259919  1
  O  O314  1  0.70404027  0.01686218  0.92772991  1
  O  O315  1  0.70109685  0.52896260  0.27385450  1
  O  O316  1  0.69873008  0.53352508  0.60683536  1
  O  O317  1  0.70386773  0.53112309  0.93858441  1
  O  O318  1  0.09467437  0.09727071  0.04032760  1
  O  O319  1  0.09264818  0.09435913  0.37265670  1
  O  O320  1  0.08426924  0.08689378  0.71266998  1
  O  O321  1  0.08400619  0.58104247  0.02446064  1
  O  O322  1  0.08705460  0.59246492  0.37172804  1
  O  O323  1  0.09050986  0.59789198  0.71113726  1
  O  O324  1  0.58943420  0.10327912  0.06512100  1
  O  O325  1  0.55477046  0.08466003  0.37355655  1
  O  O326  1  0.58024799  0.08158938  0.68892531  1
  O  O327  1  0.58334994  0.57932185  0.03903589  1
  O  O328  1  0.58969866  0.58210657  0.37099785  1
  O  O329  1  0.58487282  0.58272139  0.70457780  1
  O  O330  1  0.41208325  0.42123632  0.12925667  1
  O  O331  1  0.41316648  0.42274929  0.46316391  1
  O  O332  1  0.40768016  0.42665500  0.78801946  1
  O  O333  1  0.40782372  0.90391188  0.12324850  1
  O  O334  1  0.41178226  0.91692226  0.45765125  1
  O  O335  1  0.41048860  0.90892341  0.79686216  1
  O  O336  1  0.91863564  0.41777015  0.13032483  1
  O  O337  1  0.90920521  0.39741752  0.45916941  1
  O  O338  1  0.91113781  0.41022535  0.79254722  1
  O  O339  1  0.91421202  0.93091423  0.14601135  1
  O  O340  1  0.91258161  0.91369119  0.47090402  1
  O  O341  1  0.90823445  0.91554362  0.79012839  1
  O  O342  1  0.42901244  0.41541609  0.29068034  1
  O  O343  1  0.41860484  0.42352418  0.62810956  1
  O  O344  1  0.40953677  0.41928419  0.97193325  1
  O  O345  1  0.43574537  0.90950195  0.29368759  1
  O  O346  1  0.41599759  0.90934676  0.63287899  1
  O  O347  1  0.41397029  0.90350235  0.95864517  1
  O  O348  1  0.92751076  0.42071929  0.30808869  1
  O  O349  1  0.91149615  0.40907075  0.63148121  1
  O  O350  1  0.92213030  0.41526298  0.95965802  1
  O  O351  1  0.89561412  0.90729665  0.29470859  1
  O  O352  1  0.90475001  0.90746007  0.62769592  1
  O  O353  1  0.90450789  0.90780276  0.95651873  1
  O  O354  1  0.07977545  0.08834290  0.18877113  1
  O  O355  1  0.10770286  0.09737024  0.55032362  1
  O  O356  1  0.08836685  0.08596223  0.86843829  1
  O  O357  1  0.07830952  0.59272269  0.19782917  1
  O  O358  1  0.09044449  0.58837008  0.53673139  1
  O  O359  1  0.09084516  0.58952155  0.87361221  1
  O  O360  1  0.58296738  0.08043456  0.21908595  1
  O  O361  1  0.58525094  0.08575171  0.53507722  1
  O  O362  1  0.59587069  0.08047421  0.87931343  1
  O  O363  1  0.58818896  0.57802631  0.20362159  1
  O  O364  1  0.58496526  0.58025916  0.53457988  1
  O  O365  1  0.59199243  0.58373199  0.87064271  1
  O  O366  1  0.14530635  0.23111085  0.05808344  1
  O  O367  1  0.14336245  0.22786866  0.38978361  1
  O  O368  1  0.13135270  0.21808295  0.71930627  1
  O  O369  1  0.14239788  0.71656949  0.05698543  1
  O  O370  1  0.13619039  0.72746775  0.39264969  1
  O  O371  1  0.13701900  0.73155392  0.72800608  1
  O  O372  1  0.62390415  0.23267977  0.06198642  1
  O  O373  1  0.62889661  0.20996384  0.39316547  1
  O  O374  1  0.64256764  0.21543822  0.72913902  1
  O  O375  1  0.63946446  0.71178935  0.05772484  1
  O  O376  1  0.64155031  0.71556510  0.38926399  1
  O  O377  1  0.63947727  0.71588055  0.72430515  1
  O  O378  1  0.27991960  0.36715438  0.11070020  1
  O  O379  1  0.27975774  0.36796440  0.44224036  1
  O  O380  1  0.27714991  0.36435231  0.76958656  1
  O  O381  1  0.27337004  0.86092043  0.10774082  1
  O  O382  1  0.27916791  0.86809748  0.44506712  1
  O  O383  1  0.27595141  0.85770151  0.77427250  1
  O  O384  1  0.78670000  0.35691895  0.10855923  1
  O  O385  1  0.77376435  0.35618312  0.44374241  1
  O  O386  1  0.77834760  0.36510839  0.78162563  1
  O  O387  1  0.78328971  0.85819238  0.10756879  1
  O  O388  1  0.77707461  0.85883210  0.43896349  1
  O  O389  1  0.77651194  0.85940871  0.77199603  1
  O  O390  1  0.36098954  0.29112390  0.28050530  1
  O  O391  1  0.36514932  0.29175177  0.61343782  1
  O  O392  1  0.35427896  0.28518778  0.94936481  1
  O  O393  1  0.36650621  0.78051596  0.27035556  1
  O  O394  1  0.36699865  0.77442683  0.61066942  1
  O  O395  1  0.36206016  0.76989002  0.93709558  1
  O  O396  1  0.85985863  0.29082655  0.27932541  1
  O  O397  1  0.85988735  0.27255386  0.59728560  1
  O  O398  1  0.86807943  0.28160643  0.94086259  1
  O  O399  1  0.85449984  0.77127780  0.27905879  1
  O  O400  1  0.86100831  0.77083423  0.60689263  1
  O  O401  1  0.86766342  0.77223905  0.94172270  1
  O  O402  1  0.21680918  0.14121664  0.22463289  1
  O  O403  1  0.24165208  0.13706517  0.56504045  1
  O  O404  1  0.22321014  0.13833630  0.89416064  1
  O  O405  1  0.21470097  0.64579218  0.22560970  1
  O  O406  1  0.22299425  0.64351608  0.55679089  1
  O  O407  1  0.22404947  0.64042909  0.89117945  1
  O  O408  1  0.70923540  0.12668673  0.21783585  1
  O  O409  1  0.71808092  0.13116179  0.54801079  1
  O  O410  1  0.72876693  0.13296931  0.89523967  1
  O  O411  1  0.72192723  0.63305529  0.22487204  1
  O  O412  1  0.71808167  0.63775928  0.55692614  1
  O  O413  1  0.72647954  0.63661356  0.89152898  1
  O  O414  1  0.48662126  0.33746811  0.03546574  1
  O  O415  1  0.49357213  0.33683175  0.36553830  1
  O  O416  1  0.50007463  0.34716687  0.69429521  1
  O  O417  1  0.49148014  0.82351890  0.02714362  1
  O  O418  1  0.49593378  0.82285944  0.36226079  1
  O  O419  1  0.49673289  0.82992461  0.69795606  1
  O  O420  1  0.99828473  0.33776895  0.02903663  1
  O  O421  1  0.99341893  0.33070826  0.36788647  1
  O  O422  1  0.98888896  0.32313359  0.68890080  1
  O  O423  1  0.99560001  0.84246241  0.02889308  1
  O  O424  1  0.98260581  0.83603163  0.36688416  1
  O  O425  1  0.98873014  0.83408074  0.69715994  1
  O  O426  1  0.16770167  0.00943842  0.13626699  1
  O  O427  1  0.17557676  0.01269454  0.47212816  1
  O  O428  1  0.16962713  0.00791225  0.80440769  1
  O  O429  1  0.16145626  0.51517658  0.13630364  1
  O  O430  1  0.17012313  0.51228881  0.46967664  1
  O  O431  1  0.16693533  0.51058053  0.80281359  1
  O  O432  1  0.64446975  -0.00486292  0.13628480  1
  O  O433  1  0.65731936  -0.00167349  0.46743017  1
  O  O434  1  0.66534370  0.01039413  0.79638016  1
  O  O435  1  0.66968412  0.50150344  0.13910114  1
  O  O436  1  0.67042976  0.50451377  0.47330349  1
  O  O437  1  0.67032125  0.50560567  0.80446056  1
  O  O438  1  0.01322857  0.16945957  0.30136488  1
  O  O439  1  -0.00042868  0.15352722  0.63611473  1
  O  O440  1  0.01484696  0.17444062  0.97163725  1
  O  O441  1  0.00577278  0.66983962  0.30444775  1
  O  O442  1  0.00986339  0.67058909  0.63711242  1
  O  O443  1  0.01044223  0.67032875  0.96875952  1
  O  O444  1  0.49764405  0.17210228  0.30464461  1
  O  O445  1  0.51339714  0.17732781  0.63587592  1
  O  O446  1  0.49816558  0.15881459  0.98035921  1
  O  O447  1  0.51105022  0.65885715  0.30201440  1
  O  O448  1  0.50932957  0.66143083  0.63507262  1
  O  O449  1  0.50927880  0.65872025  0.96846364  1
  O  O450  1  0.33194595  0.50181167  0.19309672  1
  O  O451  1  0.33443537  0.49793214  0.53209360  1
  O  O452  1  0.32776877  0.49361308  0.86015229  1
  O  O453  1  0.33633196  0.99100416  0.19362100  1
  O  O454  1  0.34212372  0.99362792  0.53710393  1
  O  O455  1  0.33167172  0.98661024  0.86545112  1
  O  O456  1  0.83726373  0.48705324  0.19938858  1
  O  O457  1  0.83704393  0.48538913  0.52914834  1
  O  O458  1  0.84061714  0.49600366  0.86374378  1
  O  O459  1  0.81517593  0.98889752  0.19840500  1
  O  O460  1  0.82626274  0.99119273  0.52644120  1
  O  O461  1  0.82922555  0.98982567  0.86121016  1
