# generated using pymatgen
data_Na31Fe20(SO4)36
_symmetry_space_group_name_H-M   'P 1'
_cell_length_a   18.08088177
_cell_length_b   18.07941062
_cell_length_c   19.71921007
_cell_angle_alpha   107.57642198
_cell_angle_beta   107.64351325
_cell_angle_gamma   90.71723950
_symmetry_Int_Tables_number   1
_chemical_formula_structural   Na31Fe20(SO4)36
_chemical_formula_sum   'Na62 Fe40 S72 O288'
_cell_volume   5817.51822742
_cell_formula_units_Z   2
loop_
 _symmetry_equiv_pos_site_id
 _symmetry_equiv_pos_as_xyz
  1  'x, y, z'
loop_
 _atom_site_type_symbol
 _atom_site_label
 _atom_site_symmetry_multiplicity
 _atom_site_fract_x
 _atom_site_fract_y
 _atom_site_fract_z
 _atom_site_occupancy
  Na  Na0  1  0.13462886  0.37344357  0.09074837  1
  Na  Na1  1  0.13872365  0.36513410  0.41506088  1
  Na  Na2  1  0.13799740  0.35827667  0.74907985  1
  Na  Na3  1  0.12830112  0.87190873  0.08489837  1
  Na  Na4  1  0.12235750  0.85785781  0.40987249  1
  Na  Na5  1  0.13981536  0.86700531  0.74721229  1
  Na  Na6  1  0.61690772  0.35162222  0.06346550  1
  Na  Na7  1  0.63215584  0.37100210  0.41589034  1
  Na  Na8  1  0.66853381  0.32868348  0.77712555  1
  Na  Na9  1  0.63314571  0.86462708  0.07934380  1
  Na  Na10  1  0.63703516  0.86493087  0.41651772  1
  Na  Na11  1  0.63541484  0.86686015  0.75287621  1
  Na  Na12  1  0.36316945  0.13100335  0.24826035  1
  Na  Na13  1  0.37296312  0.13414158  0.59540009  1
  Na  Na14  1  0.36438776  0.13788450  0.90381759  1
  Na  Na15  1  0.35923726  0.62536734  0.24517122  1
  Na  Na16  1  0.35320352  0.62706886  0.57129272  1
  Na  Na17  1  0.36869795  0.63070392  0.91501560  1
  Na  Na18  1  0.86415528  0.13344718  0.24672252  1
  Na  Na19  1  0.86530856  0.13944964  0.59038221  1
  Na  Na20  1  0.86435103  0.13687264  0.91211907  1
  Na  Na21  1  0.88030235  0.64504701  0.25995373  1
  Na  Na22  1  0.86217513  0.63956646  0.58480443  1
  Na  Na23  1  0.85575510  0.63541185  0.91054587  1
  Na  Na24  1  1.00189723  0.00662273  0.75474059  1
  Na  Na25  1  0.50674357  0.05405637  0.75305534  1
  Na  Na26  1  0.99155848  0.50910485  0.75153837  1
  Na  Na27  1  0.48873738  0.00963424  0.07986798  1
  Na  Na28  1  0.42489252  0.50152807  0.37939852  1
  Na  Na29  1  1.00287724  0.51518199  0.41040102  1
  Na  Na30  1  0.96033339  0.52072685  0.08796039  1
  Na  Na31  1  0.48037565  0.00497619  0.44309905  1
  Na  Na32  1  0.52632301  0.45181296  0.77390982  1
  Na  Na33  1  0.51156452  0.49251363  0.58924131  1
  Na  Na34  1  0.51038153  0.98809318  0.25763688  1
  Na  Na35  1  -0.01673361  0.50564624  0.92727668  1
  Na  Na36  1  0.49399578  0.44044267  0.91823868  1
  Na  Na37  1  0.00731518  0.97939242  0.25568102  1
  Na  Na38  1  0.03076301  0.97784567  0.57050124  1
  Na  Na39  1  0.06402501  0.50822263  0.26722083  1
  Na  Na40  1  0.01470500  0.49252248  0.58027293  1
  Na  Na41  1  0.49434600  1.02041156  0.90225946  1
  Na  Na42  1  0.74277628  0.74512216  0.67778167  1
  Na  Na43  1  0.24738510  0.74823686  0.00190587  1
  Na  Na44  1  0.75082659  0.26589580  -0.03131215  1
  Na  Na45  1  0.25819196  0.26526324  0.32455164  1
  Na  Na46  1  0.21716058  0.71616859  0.33693861  1
  Na  Na47  1  0.24891729  0.25091846  -0.00105258  1
  Na  Na48  1  0.75778096  0.75866169  -0.01367788  1
  Na  Na49  1  0.77107092  0.76560410  0.33138322  1
  Na  Na50  1  0.75113082  0.25076511  0.33438606  1
  Na  Na51  1  0.26391843  0.24317208  0.67416383  1
  Na  Na52  1  0.25836301  0.75899791  0.82257883  1
  Na  Na53  1  0.25916144  0.26621110  0.16309947  1
  Na  Na54  1  0.23660899  0.74325368  0.17537479  1
  Na  Na55  1  0.23230800  0.73428102  0.51707205  1
  Na  Na56  1  0.76126475  0.75710063  0.15900239  1
  Na  Na57  1  0.74169378  0.24436977  0.51432403  1
  Na  Na58  1  0.24357117  0.23536800  0.83036983  1
  Na  Na59  1  0.75279690  0.25987684  0.15234804  1
  Na  Na60  1  0.25424633  0.25092631  0.50045716  1
  Na  Na61  1  0.76327620  0.75720497  0.49491066  1
  Fe  Fe62  1  0.46680562  0.30588690  0.45345505  1
  Fe  Fe63  1  0.46688041  0.80620637  0.11816985  1
  Fe  Fe64  1  0.46728555  0.81258939  0.45724595  1
  Fe  Fe65  1  0.96000652  0.30922124  0.78327363  1
  Fe  Fe66  1  0.46175970  0.31160505  0.12372541  1
  Fe  Fe67  1  0.96396998  0.30926643  0.11652175  1
  Fe  Fe68  1  0.96676849  0.80127691  0.12092266  1
  Fe  Fe69  1  0.96822915  0.30465734  0.45139128  1
  Fe  Fe70  1  0.46532393  0.80659350  0.78487912  1
  Fe  Fe71  1  0.96373754  0.81359936  0.79143845  1
  Fe  Fe72  1  0.19485726  0.03589056  0.38239688  1
  Fe  Fe73  1  0.18602597  0.03769315  0.04530499  1
  Fe  Fe74  1  0.68574674  0.53545294  0.37429734  1
  Fe  Fe75  1  0.69797702  0.53272673  0.71834375  1
  Fe  Fe76  1  0.69646422  0.03569815  0.38480273  1
  Fe  Fe77  1  0.69135341  0.03509682  0.04569973  1
  Fe  Fe78  1  0.69518538  0.03488746  0.71415656  1
  Fe  Fe79  1  0.69784861  0.53239751  0.04180284  1
  Fe  Fe80  1  0.19195323  0.53718954  0.71659961  1
  Fe  Fe81  1  0.19357467  0.53529608  0.04813480  1
  Fe  Fe82  1  0.53313366  0.69260804  0.54543685  1
  Fe  Fe83  1  0.53825192  0.18971141  0.21485861  1
  Fe  Fe84  1  0.53641132  0.68793602  0.87660636  1
  Fe  Fe85  1  0.03472879  0.19584447  0.88061470  1
  Fe  Fe86  1  0.03455438  0.69680560  0.88115570  1
  Fe  Fe87  1  0.03228376  0.18640352  0.20878215  1
  Fe  Fe88  1  0.54205981  0.19718010  0.55933326  1
  Fe  Fe89  1  0.03294804  0.70006746  0.54723598  1
  Fe  Fe90  1  0.03722665  0.18630243  0.54660778  1
  Fe  Fe91  1  0.53712377  0.68920781  0.21143948  1
  Fe  Fe92  1  0.31312126  0.46337642  0.62609452  1
  Fe  Fe93  1  0.30154961  0.96339272  0.62480411  1
  Fe  Fe94  1  0.80843917  0.96547137  0.61940098  1
  Fe  Fe95  1  0.81313348  0.96613354  0.29168463  1
  Fe  Fe96  1  0.30734723  0.46529627  0.95702023  1
  Fe  Fe97  1  0.80873347  0.46633869  0.61663526  1
  Fe  Fe98  1  0.30629406  0.96518569  0.28561985  1
  Fe  Fe99  1  0.80749521  0.46729797  0.28637235  1
  Fe  Fe100  1  0.81066017  0.96399756  0.95291472  1
  Fe  Fe101  1  0.30273426  0.96934822  0.94807423  1
  S  S102  1  0.35914565  0.13790371  0.08623642  1
  S  S103  1  0.36264038  0.13838081  0.41606660  1
  S  S104  1  0.36489421  0.13410904  0.74725999  1
  S  S105  1  0.35974529  0.64405833  0.08324969  1
  S  S106  1  0.35823793  0.65238232  0.41885479  1
  S  S107  1  0.36007826  0.64119316  0.75154750  1
  S  S108  1  0.85733712  0.14247026  0.08176946  1
  S  S109  1  0.85871825  0.14438257  0.41690480  1
  S  S110  1  0.86085652  0.14010030  0.75070626  1
  S  S111  1  0.85423200  0.64346459  0.07944094  1
  S  S112  1  0.85769746  0.63749720  0.42202403  1
  S  S113  1  0.86142346  0.64015654  0.74840505  1
  S  S114  1  0.13579939  0.35399496  0.25243655  1
  S  S115  1  0.14119637  0.35701933  0.58530842  1
  S  S116  1  0.13777490  0.36096494  0.91089699  1
  S  S117  1  0.14118078  0.86184330  0.25007238  1
  S  S118  1  0.14143668  0.85834766  0.58431919  1
  S  S119  1  0.14213895  0.86082069  0.91767187  1
  S  S120  1  0.64193541  0.35883910  0.24752327  1
  S  S121  1  0.64071368  0.36386580  0.58092619  1
  S  S122  1  0.63579983  0.36409188  0.92030587  1
  S  S123  1  0.64027778  0.86056242  0.24946974  1
  S  S124  1  0.64265383  0.85845379  0.58278379  1
  S  S125  1  0.63970059  0.85909097  0.91775321  1
  S  S126  1  0.06773417  0.17349264  0.04329606  1
  S  S127  1  0.06715263  0.16831593  0.37528871  1
  S  S128  1  0.05979627  0.16704986  0.70726947  1
  S  S129  1  0.06606557  0.67224720  0.03894261  1
  S  S130  1  0.06402007  0.66598533  0.38401098  1
  S  S131  1  0.06535605  0.67236665  0.71097427  1
  S  S132  1  0.56124018  0.16249166  0.04396132  1
  S  S133  1  0.56936637  0.17051320  0.37645709  1
  S  S134  1  0.57631069  0.15958204  0.69860827  1
  S  S135  1  0.57231302  0.67235879  0.04313148  1
  S  S136  1  0.57011551  0.67446388  0.37704795  1
  S  S137  1  0.56909880  0.66969905  0.70710303  1
  S  S138  1  0.32572075  0.43335752  0.12448391  1
  S  S139  1  0.33356092  0.42850007  0.46264850  1
  S  S140  1  0.32938286  0.43425658  0.79037395  1
  S  S141  1  0.33418444  0.93373974  0.12374432  1
  S  S142  1  0.32164197  0.92674314  0.45548376  1
  S  S143  1  0.33261946  0.93098536  0.79273626  1
  S  S144  1  0.82682041  0.43455556  0.12358060  1
  S  S145  1  0.83292099  0.43065406  0.45743384  1
  S  S146  1  0.83819772  0.43860859  0.78968667  1
  S  S147  1  0.82901570  0.93363294  0.12401616  1
  S  S148  1  0.83260974  0.93920094  0.46077718  1
  S  S149  1  0.83101639  0.93477278  0.79051467  1
  S  S150  1  0.43361140  0.32211524  0.28623177  1
  S  S151  1  0.43831458  0.32734337  0.62444072  1
  S  S152  1  0.41763404  0.32533455  0.95911712  1
  S  S153  1  0.43439758  0.83561232  0.29186249  1
  S  S154  1  0.42922052  0.82670257  0.62394425  1
  S  S155  1  0.43100020  0.83133205  0.95671762  1
  S  S156  1  0.92905089  0.32946041  0.29040402  1
  S  S157  1  0.93654924  0.33380202  0.62194408  1
  S  S158  1  0.93906789  0.33396528  0.95890588  1
  S  S159  1  0.93427410  0.83745259  0.29175766  1
  S  S160  1  0.93548384  0.83165210  0.62894942  1
  S  S161  1  0.93004497  0.82725415  0.95724401  1
  S  S162  1  0.17144600  0.07016031  0.21164809  1
  S  S163  1  0.17450362  0.06567446  0.54320906  1
  S  S164  1  0.16865318  0.06689325  0.87596103  1
  S  S165  1  0.15939133  0.56665478  0.19845413  1
  S  S166  1  0.15988619  0.56165133  0.54413686  1
  S  S167  1  0.16845220  0.56803360  0.87544408  1
  S  S168  1  0.66987230  0.06347260  0.21005395  1
  S  S169  1  0.67063524  0.06614166  0.53874338  1
  S  S170  1  0.67317918  0.06253293  0.87916472  1
  S  S171  1  0.68103842  0.57666613  0.21114520  1
  S  S172  1  0.66991963  0.56862339  0.54287244  1
  S  S173  1  0.66815217  0.56710533  0.87536643  1
  O  O174  1  0.36703814  0.21950139  0.08472907  1
  O  O175  1  0.37139539  0.21543704  0.40442831  1
  O  O176  1  0.38196655  0.20255483  0.72708871  1
  O  O177  1  0.37068649  0.72294555  0.07401331  1
  O  O178  1  0.37366637  0.73310218  0.41535155  1
  O  O179  1  0.37018928  0.72073208  0.74645681  1
  O  O180  1  0.86439054  0.22242160  0.07495606  1
  O  O181  1  0.86972558  0.22335546  0.40868382  1
  O  O182  1  0.86969174  0.21750786  0.74064304  1
  O  O183  1  0.86074603  0.72642341  0.07790798  1
  O  O184  1  0.85693238  0.71462173  0.41297011  1
  O  O185  1  0.87056886  0.71923576  0.74114085  1
  O  O186  1  0.28162666  0.12734417  0.09669796  1
  O  O187  1  0.28386166  0.13137461  0.42490201  1
  O  O188  1  0.28733809  0.13313468  0.75704958  1
  O  O189  1  0.27960992  0.63710406  0.08913674  1
  O  O190  1  0.28387642  0.64772885  0.43312997  1
  O  O191  1  0.28302881  0.63254673  0.76392345  1
  O  O192  1  0.77933414  0.13168624  0.09224121  1
  O  O193  1  0.77826774  0.13774630  0.42286077  1
  O  O194  1  0.78469509  0.12904448  0.76185743  1
  O  O195  1  0.76918285  0.63155628  0.07734722  1
  O  O196  1  0.78051126  0.61808274  0.43141013  1
  O  O197  1  0.78257870  0.62927208  0.75472968  1
  O  O198  1  0.11878789  0.27425177  0.25956064  1
  O  O199  1  0.13358879  0.27825701  0.59413287  1
  O  O200  1  0.13280097  0.28070528  0.91802764  1
  O  O201  1  0.13687073  0.78635305  0.26126032  1
  O  O202  1  0.13238143  0.77535777  0.58617155  1
  O  O203  1  0.13380547  0.78095084  0.92441695  1
  O  O204  1  0.63555666  0.28131136  0.25964981  1
  O  O205  1  0.63317740  0.28312946  0.58327443  1
  O  O206  1  0.61850516  0.29440209  0.93853184  1
  O  O207  1  0.63108447  0.78279637  0.25925293  1
  O  O208  1  0.63196350  0.77816705  0.58787185  1
  O  O209  1  0.62649635  0.78111310  0.92723119  1
  O  O210  1  0.21415938  0.35523291  0.24539092  1
  O  O211  1  0.22118704  0.36893401  0.58071982  1
  O  O212  1  0.21450994  0.37148092  0.89872432  1
  O  O213  1  0.21922625  0.87538837  0.23882462  1
  O  O214  1  0.22604201  0.86744020  0.58387186  1
  O  O215  1  0.22088313  0.86992856  0.90853040  1
  O  O216  1  0.72098457  0.36905169  0.23974163  1
  O  O217  1  0.71829791  0.37444127  0.57019123  1
  O  O218  1  0.71428080  0.36750839  0.91331057  1
  O  O219  1  0.71984906  0.87019709  0.24355229  1
  O  O220  1  0.72093185  0.86708587  0.57252260  1
  O  O221  1  0.71991887  0.86571112  0.91350206  1
  O  O222  1  0.42032943  0.12351015  0.15012608  1
  O  O223  1  0.42249122  0.13033153  0.48339970  1
  O  O224  1  0.42463841  0.12227638  0.81209083  1
  O  O225  1  0.41751136  0.63961693  0.15324472  1
  O  O226  1  0.42135840  0.63705036  0.48303926  1
  O  O227  1  0.42091341  0.63119576  0.81802585  1
  O  O228  1  0.91705454  0.13625096  0.15080153  1
  O  O229  1  0.91573362  0.13712982  0.48574591  1
  O  O230  1  0.92313944  0.13136830  0.81733653  1
  O  O231  1  0.90491632  0.63424794  0.14893327  1
  O  O232  1  0.91873384  0.63449539  0.49225360  1
  O  O233  1  0.92101247  0.63070251  0.81557555  1
  O  O234  1  0.36526822  0.08310216  0.01506625  1
  O  O235  1  0.36996436  0.07685999  0.34851825  1
  O  O236  1  0.36712629  0.06373383  0.67825454  1
  O  O237  1  0.36692030  0.58444246  0.01577067  1
  O  O238  1  0.36035383  0.59637723  0.34833725  1
  O  O239  1  0.36368239  0.58290823  0.68139078  1
  O  O240  1  0.86511352  0.08449337  0.01404263  1
  O  O241  1  0.86506821  0.08589960  0.34831118  1
  O  O242  1  0.86843709  0.07957144  0.68257363  1
  O  O243  1  0.86856180  0.59028246  0.01319534  1
  O  O244  1  0.87136725  0.57799241  0.35672223  1
  O  O245  1  0.87162052  0.58159921  0.68026833  1
  O  O246  1  0.07793571  0.36363331  0.18282546  1
  O  O247  1  0.08352357  0.36233045  0.51490556  1
  O  O248  1  0.07618359  0.36856304  0.84409084  1
  O  O249  1  0.08094214  0.86788788  0.18104936  1
  O  O250  1  0.08965868  0.86890852  0.51590656  1
  O  O251  1  0.08223374  0.86895755  0.85099524  1
  O  O252  1  0.58258999  0.36260958  0.17845521  1
  O  O253  1  0.57963993  0.37468535  0.51464323  1
  O  O254  1  0.57728783  0.37566623  0.85453551  1
  O  O255  1  0.58197491  0.86738132  0.17982773  1
  O  O256  1  0.58295061  0.86868898  0.51599694  1
  O  O257  1  0.58224127  0.86598176  0.84835180  1
  O  O258  1  0.12742770  0.41360812  0.31804304  1
  O  O259  1  0.12771357  0.41640202  0.65057375  1
  O  O260  1  0.13111825  0.41828936  0.97978389  1
  O  O261  1  0.13176559  0.92505685  0.31541136  1
  O  O262  1  0.13065402  0.91331697  0.65123734  1
  O  O263  1  0.13771373  0.91823346  0.98791335  1
  O  O264  1  0.63452595  0.41945950  0.31519230  1
  O  O265  1  0.63325764  0.42111392  0.64993585  1
  O  O266  1  0.63036114  0.43309217  0.98971111  1
  O  O267  1  0.62884290  0.92135997  0.31506510  1
  O  O268  1  0.63890905  0.91545288  0.65293506  1
  O  O269  1  0.62996559  0.91963265  0.98454074  1
  O  O270  1  0.02882625  0.20311857  0.10268557  1
  O  O271  1  0.03070296  0.19571217  0.43712002  1
  O  O272  1  0.02686901  0.20681433  0.76958484  1
  O  O273  1  0.02880237  0.69954017  0.09719819  1
  O  O274  1  0.02341840  0.69271537  0.44268393  1
  O  O275  1  0.02905325  0.70231457  0.77209897  1
  O  O276  1  0.53040178  0.19517213  0.10940495  1
  O  O277  1  0.53301093  0.19971894  0.43666528  1
  O  O278  1  0.56112419  0.19060698  0.76914807  1
  O  O279  1  0.53254092  0.69839967  0.10262758  1
  O  O280  1  0.53295499  0.70522711  0.43726433  1
  O  O281  1  0.53287365  0.69912287  0.76851329  1
  O  O282  1  0.29462688  0.46854710  0.06016732  1
  O  O283  1  0.31324216  0.46255641  0.40279012  1
  O  O284  1  0.29453940  0.47227053  0.73021280  1
  O  O285  1  0.30514401  0.96822567  0.06197126  1
  O  O286  1  0.29855385  0.97187444  0.39997682  1
  O  O287  1  0.30590592  0.96146316  0.72907311  1
  O  O288  1  0.79804230  0.47717124  0.06795542  1
  O  O289  1  0.80094277  0.46064894  0.39310093  1
  O  O290  1  0.80237022  0.46785577  0.72264004  1
  O  O291  1  0.79997542  0.97150438  0.06380184  1
  O  O292  1  0.79704393  0.97505698  0.39831099  1
  O  O293  1  0.79952874  0.97055780  0.72860371  1
  O  O294  1  0.47563265  0.28966009  0.22924773  1
  O  O295  1  0.46929335  0.29532606  0.55816742  1
  O  O296  1  0.44343215  0.30148812  0.89404720  1
  O  O297  1  0.47199907  0.80832437  0.23153558  1
  O  O298  1  0.47216197  0.80471318  0.56728072  1
  O  O299  1  0.46686634  0.80189141  0.89605347  1
  O  O300  1  0.96041906  0.30203421  0.22652934  1
  O  O301  1  0.97262591  0.30189607  0.56114463  1
  O  O302  1  0.97317155  0.29896047  0.89583650  1
  O  O303  1  0.96471690  0.81436980  0.22718444  1
  O  O304  1  0.97302011  0.80019956  0.57080443  1
  O  O305  1  0.97003741  0.79977667  0.89752905  1
  O  O306  1  0.20536577  0.03511786  0.27336321  1
  O  O307  1  0.20515794  0.02496789  0.59961268  1
  O  O308  1  0.20085967  0.03573158  0.94240830  1
  O  O309  1  0.18679363  0.53866273  0.26270382  1
  O  O310  1  0.19235866  0.53317334  0.61148104  1
  O  O311  1  0.19825069  0.53272034  0.93670482  1
  O  O312  1  0.70230547  0.02925758  0.27197967  1
  O  O313  1  0.70069212  0.03092415  0.60020173  1
  O  O314  1  0.70746979  0.02315936  0.93869933  1
  O  O315  1  0.70586294  0.53418083  0.26856016  1
  O  O316  1  0.70166518  0.53208191  0.60378902  1
  O  O317  1  0.69212447  0.53381743  0.93745066  1
  O  O318  1  0.08858327  0.09449690  0.04277066  1
  O  O319  1  0.08630336  0.08698359  0.36763989  1
  O  O320  1  0.06383677  0.08460114  0.70145547  1
  O  O321  1  0.08715870  0.59089694  0.03144644  1
  O  O322  1  0.08885883  0.58849918  0.38541754  1
  O  O323  1  0.07799263  0.58816709  0.70411721  1
  O  O324  1  0.58262420  0.08100595  0.04386142  1
  O  O325  1  0.58937485  0.08928392  0.37177626  1
  O  O326  1  0.59021816  0.07417389  0.68703515  1
  O  O327  1  0.59650398  0.59323368  0.03899899  1
  O  O328  1  0.58712207  0.59350427  0.37345638  1
  O  O329  1  0.59163500  0.58967765  0.70425020  1
  O  O330  1  0.40331340  0.40792978  0.12393155  1
  O  O331  1  0.41814430  0.41106981  0.47784768  1
  O  O332  1  0.41044489  0.42369750  0.79440731  1
  O  O333  1  0.41816813  0.91870521  0.13152317  1
  O  O334  1  0.40421921  0.91163709  0.46151247  1
  O  O335  1  0.41544134  0.91248934  0.80354505  1
  O  O336  1  0.90661732  0.41399766  0.12243927  1
  O  O337  1  0.91592465  0.41441000  0.46424696  1
  O  O338  1  0.92083706  0.42133868  0.78972234  1
  O  O339  1  0.90906844  0.91278897  0.12894481  1
  O  O340  1  0.91289367  0.92757298  0.46658404  1
  O  O341  1  0.91217324  0.91795407  0.79281625  1
  O  O342  1  0.41118220  0.39740177  0.28135925  1
  O  O343  1  0.42140026  0.41050316  0.63059980  1
  O  O344  1  0.40421572  0.41073206  0.97474697  1
  O  O345  1  0.41865587  0.91949091  0.29925808  1
  O  O346  1  0.40221379  0.90529505  0.62787895  1
  O  O347  1  0.41188063  0.91307186  0.96275866  1
  O  O348  1  0.91312294  0.41253492  0.30210223  1
  O  O349  1  0.92209011  0.41714024  0.62624128  1
  O  O350  1  0.92902634  0.41586959  0.96460377  1
  O  O351  1  0.91524563  0.92137797  0.30032771  1
  O  O352  1  0.91697175  0.91316846  0.63148315  1
  O  O353  1  0.90892787  0.90652634  0.95951616  1
  O  O354  1  0.08990081  0.08408996  0.20878178  1
  O  O355  1  0.09516670  0.08653394  0.54597161  1
  O  O356  1  0.08995483  0.09222275  0.87573430  1
  O  O357  1  0.07556352  0.57748837  0.18216335  1
  O  O358  1  0.08246578  0.59283592  0.54775738  1
  O  O359  1  0.08667213  0.58641426  0.86956842  1
  O  O360  1  0.58645860  0.07717176  0.20544847  1
  O  O361  1  0.59012343  0.08772830  0.53277314  1
  O  O362  1  0.59261208  0.07447310  0.87713942  1
  O  O363  1  0.60126696  0.59676721  0.20681797  1
  O  O364  1  0.58806355  0.58444563  0.53896623  1
  O  O365  1  0.58388344  0.58210429  0.86151034  1
  O  O366  1  0.13826856  0.22725256  0.05953198  1
  O  O367  1  0.13795226  0.22187997  0.39372904  1
  O  O368  1  0.13582629  0.21167427  0.72264608  1
  O  O369  1  0.13649017  0.72612205  0.05407148  1
  O  O370  1  0.13317050  0.72379185  0.40483318  1
  O  O371  1  0.13868123  0.72047356  0.72872641  1
  O  O372  1  0.63142508  0.21330265  0.05605285  1
  O  O373  1  0.63930776  0.22392157  0.39125264  1
  O  O374  1  0.64171217  0.20325857  0.69133471  1
  O  O375  1  0.63973174  0.72997164  0.06129243  1
  O  O376  1  0.64232878  0.72611165  0.39407304  1
  O  O377  1  0.63639431  0.72457963  0.72010507  1
  O  O378  1  0.26965020  0.36296045  0.10589726  1
  O  O379  1  0.28235888  0.35526636  0.44555956  1
  O  O380  1  0.27964346  0.36048383  0.77152296  1
  O  O381  1  0.28460019  0.86149813  0.10876125  1
  O  O382  1  0.26786499  0.85583872  0.43108945  1
  O  O383  1  0.28045641  0.86310352  0.78304181  1
  O  O384  1  0.77279324  0.36364071  0.10428611  1
  O  O385  1  0.78304819  0.35988179  0.44669063  1
  O  O386  1  0.79222085  0.36794489  0.78065007  1
  O  O387  1  0.77351750  0.86396331  0.10622356  1
  O  O388  1  0.78072415  0.86628961  0.44250722  1
  O  O389  1  0.77982164  0.86362452  0.77496934  1
  O  O390  1  0.36522559  0.26516414  0.26956581  1
  O  O391  1  0.36469084  0.27823281  0.60769829  1
  O  O392  1  0.34461713  0.27724485  0.94862264  1
  O  O393  1  0.36261494  0.78484473  0.27381113  1
  O  O394  1  0.36407637  0.76744557  0.60580332  1
  O  O395  1  0.36060874  0.77846306  0.94174790  1
  O  O396  1  0.85703210  0.27799363  0.27484838  1
  O  O397  1  0.86380464  0.28531932  0.60628369  1
  O  O398  1  0.86719515  0.28475441  0.94470809  1
  O  O399  1  0.85985274  0.78678970  0.27252604  1
  O  O400  1  0.86310578  0.78116091  0.61401419  1
  O  O401  1  0.86152376  0.77168276  0.93904210  1
  O  O402  1  0.22112614  0.14262933  0.22663728  1
  O  O403  1  0.22709716  0.13692451  0.55896398  1
  O  O404  1  0.22343574  0.13543980  0.88932939  1
  O  O405  1  0.20942671  0.63974144  0.21125148  1
  O  O406  1  0.21616383  0.62338063  0.54941187  1
  O  O407  1  0.22079435  0.63839631  0.88999847  1
  O  O408  1  0.71764416  0.13697696  0.22504406  1
  O  O409  1  0.72432160  0.13350253  0.54948173  1
  O  O410  1  0.72377861  0.13464863  0.89731747  1
  O  O411  1  0.73698212  0.64654191  0.23237871  1
  O  O412  1  0.72055964  0.64144548  0.56050357  1
  O  O413  1  0.71855032  0.63857814  0.89069415  1
  O  O414  1  0.47985994  0.32066799  0.02833680  1
  O  O415  1  0.49049119  0.32929482  0.36222790  1
  O  O416  1  0.50037007  0.32734261  0.69180087  1
  O  O417  1  0.49117368  0.83499879  0.02976729  1
  O  O418  1  0.49291780  0.83850785  0.36516697  1
  O  O419  1  0.48963135  0.83323888  0.69783585  1
  O  O420  1  0.99848065  0.33189154  0.03078884  1
  O  O421  1  0.99019880  0.32753725  0.36073639  1
  O  O422  1  0.99475726  0.33614142  0.69473377  1
  O  O423  1  0.98917964  0.83081137  0.03021330  1
  O  O424  1  0.99170709  0.83501760  0.35995219  1
  O  O425  1  0.99311053  0.83766842  0.70420557  1
  O  O426  1  0.17090191  0.01144825  0.13943739  1
  O  O427  1  0.16533564  0.01011813  0.46704214  1
  O  O428  1  0.15996390  0.00322534  0.80707885  1
  O  O429  1  0.16695275  0.50584261  0.12845254  1
  O  O430  1  0.14114039  0.49370055  0.47629952  1
  O  O431  1  0.16424693  0.50786819  0.80222348  1
  O  O432  1  0.66824496  0.00509412  0.13767416  1
  O  O433  1  0.66354659  0.00304776  0.46590193  1
  O  O434  1  0.67181107  0.00627492  0.80491022  1
  O  O435  1  0.67980364  0.52048134  0.13734448  1
  O  O436  1  0.66928335  0.51078741  0.47029439  1
  O  O437  1  0.67049502  0.50557486  0.80505563  1
  O  O438  1  0.00694395  0.16733794  0.30379697  1
  O  O439  1  0.00382775  0.17271744  0.63511468  1
  O  O440  1  0.00912276  0.16936687  0.97023124  1
  O  O441  1  0.00872151  0.65975638  0.31051598  1
  O  O442  1  0.00734210  0.67389699  0.63913686  1
  O  O443  1  0.00674663  0.66648341  0.96390861  1
  O  O444  1  0.50964469  0.16440959  0.30251164  1
  O  O445  1  0.50513375  0.15649417  0.63184542  1
  O  O446  1  0.49828882  0.15293161  0.97403989  1
  O  O447  1  0.51219290  0.67317068  0.30407190  1
  O  O448  1  0.50691176  0.66234813  0.63423606  1
  O  O449  1  0.51240858  0.66851094  0.97040464  1
  O  O450  1  0.33099909  0.49298839  0.19435551  1
  O  O451  1  0.32983620  0.48625427  0.53489283  1
  O  O452  1  0.32758202  0.49006334  0.86364701  1
  O  O453  1  0.33542862  0.99276459  0.19610965  1
  O  O454  1  0.32146309  0.98065359  0.52998497  1
  O  O455  1  0.33583059  0.99579646  0.86376119  1
  O  O456  1  0.83517464  0.48972459  0.19991011  1
  O  O457  1  0.83544796  0.49322649  0.52851764  1
  O  O458  1  0.84700198  0.50356047  0.85833880  1
  O  O459  1  0.83152916  0.99281276  0.19694853  1
  O  O460  1  0.82734550  0.99699817  0.53171749  1
  O  O461  1  0.83411195  0.99368422  0.86299125  1
