# generated using pymatgen
data_Na31Fe20(SO4)36
_symmetry_space_group_name_H-M   'P 1'
_cell_length_a   18.06933751
_cell_length_b   18.07331829
_cell_length_c   19.70598476
_cell_angle_alpha   107.61051947
_cell_angle_beta   107.58479392
_cell_angle_gamma   90.69298305
_symmetry_Int_Tables_number   1
_chemical_formula_structural   Na31Fe20(SO4)36
_chemical_formula_sum   'Na62 Fe40 S72 O288'
_cell_volume   5809.15586986
_cell_formula_units_Z   2
loop_
 _symmetry_equiv_pos_site_id
 _symmetry_equiv_pos_as_xyz
  1  'x, y, z'
loop_
 _atom_site_type_symbol
 _atom_site_label
 _atom_site_symmetry_multiplicity
 _atom_site_fract_x
 _atom_site_fract_y
 _atom_site_fract_z
 _atom_site_occupancy
  Na  Na0  1  0.14128047  0.37023498  0.09056706  1
  Na  Na1  1  0.12851053  0.37027445  0.41212815  1
  Na  Na2  1  0.15695183  0.37515864  0.76036720  1
  Na  Na3  1  0.13657680  0.86600010  0.08154812  1
  Na  Na4  1  0.14183564  0.85712986  0.41837772  1
  Na  Na5  1  0.13305631  0.85788595  0.74361214  1
  Na  Na6  1  0.63636962  0.36842229  0.08774771  1
  Na  Na7  1  0.63065221  0.36253734  0.41310232  1
  Na  Na8  1  0.62448374  0.36327191  0.74605220  1
  Na  Na9  1  0.62450289  0.86081657  0.07513113  1
  Na  Na10  1  0.63054577  0.86070665  0.41151281  1
  Na  Na11  1  0.63280750  0.86642595  0.75093718  1
  Na  Na12  1  0.37693365  0.12258024  0.23573250  1
  Na  Na13  1  0.37323252  0.13974438  0.59498812  1
  Na  Na14  1  0.36491986  0.13482083  0.91379867  1
  Na  Na15  1  0.35856100  0.62972149  0.24802518  1
  Na  Na16  1  0.36753386  0.63408112  0.58262124  1
  Na  Na17  1  0.36177909  0.62572647  0.90671854  1
  Na  Na18  1  0.86557741  0.13500350  0.25456904  1
  Na  Na19  1  0.86547696  0.13383830  0.58576846  1
  Na  Na20  1  0.86731590  0.13681255  0.91666348  1
  Na  Na21  1  0.86777747  0.64483693  0.25823584  1
  Na  Na22  1  0.86253535  0.63652300  0.58190630  1
  Na  Na23  1  0.85698686  0.63879003  0.91493248  1
  Na  Na24  1  1.00559010  0.00523361  0.72912693  1
  Na  Na25  1  0.46275361  0.51261917  0.07380326  1
  Na  Na26  1  0.48395131  0.53041262  0.75525257  1
  Na  Na27  1  1.01345887  -0.00147891  0.08006971  1
  Na  Na28  1  0.98499211  0.51518471  0.08195285  1
  Na  Na29  1  0.46376103  0.50465616  0.42912114  1
  Na  Na30  1  0.49581486  0.01328815  0.40647290  1
  Na  Na31  1  1.01678233  -0.04282807  0.47342635  1
  Na  Na32  1  1.01945515  0.49429858  0.73571284  1
  Na  Na33  1  0.00530228  0.48371117  0.26709459  1
  Na  Na34  1  0.50738917  0.98875745  0.59455912  1
  Na  Na35  1  0.48226844  0.49961815  0.26363365  1
  Na  Na36  1  0.00494481  0.99203730  0.25899401  1
  Na  Na37  1  0.04000226  0.49816663  0.57431928  1
  Na  Na38  1  0.50533194  0.47012082  0.90602219  1
  Na  Na39  1  0.03887282  0.99461992  0.92030223  1
  Na  Na40  1  0.49469892  0.98367708  0.93780498  1
  Na  Na41  1  0.02179001  0.49164473  0.91242488  1
  Na  Na42  1  0.26008464  0.25727278  0.32012793  1
  Na  Na43  1  0.74732713  0.25142461  0.00157857  1
  Na  Na44  1  0.72878149  0.73742595  0.01090555  1
  Na  Na45  1  0.26137169  0.25659348  -0.00698051  1
  Na  Na46  1  0.26579866  0.26133987  0.66026670  1
  Na  Na47  1  0.24560763  0.73909011  0.34664565  1
  Na  Na48  1  0.73145831  0.23302085  0.34061600  1
  Na  Na49  1  0.25408578  0.75106178  -0.00469350  1
  Na  Na50  1  0.76640244  0.76564234  0.32572798  1
  Na  Na51  1  0.25842054  0.75307009  0.65314432  1
  Na  Na52  1  0.73936773  0.24086373  0.51560919  1
  Na  Na53  1  0.75181830  0.74718776  0.50428988  1
  Na  Na54  1  0.27936161  0.27276336  0.82732042  1
  Na  Na55  1  0.75692912  0.25846406  0.82212917  1
  Na  Na56  1  0.25674205  0.25876643  0.49300195  1
  Na  Na57  1  0.24821727  0.74925916  0.16562710  1
  Na  Na58  1  0.73092480  0.23625797  0.17598110  1
  Na  Na59  1  0.25742757  0.25680045  0.16060527  1
  Na  Na60  1  0.75055184  0.75922282  0.82594457  1
  Na  Na61  1  0.24351953  0.74369884  0.82817238  1
  Fe  Fe62  1  0.46675838  0.80675413  0.12143363  1
  Fe  Fe63  1  0.96609271  0.30606875  0.78172047  1
  Fe  Fe64  1  0.96298393  0.30586646  0.45095502  1
  Fe  Fe65  1  0.47277769  0.29945936  0.12590128  1
  Fe  Fe66  1  0.46751418  0.79987020  0.79014889  1
  Fe  Fe67  1  0.46703672  0.30875171  0.45439164  1
  Fe  Fe68  1  0.46674592  0.80807496  0.45614543  1
  Fe  Fe69  1  0.96389368  0.30751943  0.11760128  1
  Fe  Fe70  1  0.96094754  0.80889166  0.11693438  1
  Fe  Fe71  1  0.95963276  0.80759370  0.77965164  1
  Fe  Fe72  1  0.19897621  0.53358121  0.37398294  1
  Fe  Fe73  1  0.21246169  0.52256001  0.04453182  1
  Fe  Fe74  1  0.69298463  0.03738933  0.05109938  1
  Fe  Fe75  1  0.68706300  0.53692276  0.71307038  1
  Fe  Fe76  1  0.19445809  0.03192676  0.71304519  1
  Fe  Fe77  1  0.69706111  0.03516343  0.71558922  1
  Fe  Fe78  1  0.68606995  0.03307846  0.37484674  1
  Fe  Fe79  1  0.69336877  0.53374931  0.38313990  1
  Fe  Fe80  1  0.68735929  0.53738012  0.04672200  1
  Fe  Fe81  1  0.19523335  0.03670067  0.38363835  1
  Fe  Fe82  1  0.53709277  0.69182243  0.21529260  1
  Fe  Fe83  1  0.02914713  0.69348737  0.87667502  1
  Fe  Fe84  1  0.53267272  0.19444299  0.87527773  1
  Fe  Fe85  1  0.03206395  0.69797259  0.53992814  1
  Fe  Fe86  1  0.53781306  0.69199303  0.55162836  1
  Fe  Fe87  1  0.03648763  0.19267746  0.88226389  1
  Fe  Fe88  1  0.03574974  0.19050522  0.54686801  1
  Fe  Fe89  1  0.53638773  0.19673200  0.55239065  1
  Fe  Fe90  1  0.03210021  0.69664213  0.21440471  1
  Fe  Fe91  1  0.03418394  0.19149715  0.21473520  1
  Fe  Fe92  1  0.80741499  0.46625556  0.94909775  1
  Fe  Fe93  1  0.29812988  0.47109623  0.62366561  1
  Fe  Fe94  1  0.80581555  0.96959447  0.95144407  1
  Fe  Fe95  1  0.31344575  0.96028192  0.62330961  1
  Fe  Fe96  1  0.80903509  0.96162180  0.28661853  1
  Fe  Fe97  1  0.80647450  0.46704288  0.61976744  1
  Fe  Fe98  1  0.80707934  0.96329620  0.61585642  1
  Fe  Fe99  1  0.30571224  0.96654414  0.28568388  1
  Fe  Fe100  1  0.80737455  0.46763215  0.28712289  1
  Fe  Fe101  1  0.29984660  0.97204082  0.96207781  1
  S  S102  1  0.36144368  0.14374942  0.08036801  1
  S  S103  1  0.36141996  0.14098032  0.41735666  1
  S  S104  1  0.35842741  0.13531326  0.74988140  1
  S  S105  1  0.36009899  0.64328682  0.08832176  1
  S  S106  1  0.36582805  0.64069602  0.41496220  1
  S  S107  1  0.35359117  0.64163915  0.74397917  1
  S  S108  1  0.85921282  0.14236365  0.08497768  1
  S  S109  1  0.85959503  0.14003085  0.41749352  1
  S  S110  1  0.86406410  0.13910834  0.74921614  1
  S  S111  1  0.85648953  0.64142884  0.08094305  1
  S  S112  1  0.85713777  0.63973043  0.41633902  1
  S  S113  1  0.85448238  0.64238460  0.75059921  1
  S  S114  1  0.13735915  0.35796946  0.24869996  1
  S  S115  1  0.13744409  0.35699072  0.58104506  1
  S  S116  1  0.14082281  0.35620980  0.91420406  1
  S  S117  1  0.13896953  0.86229171  0.24999267  1
  S  S118  1  0.14427878  0.86070434  0.58369736  1
  S  S119  1  0.13525414  0.85754650  0.91584985  1
  S  S120  1  0.64408993  0.36121963  0.25075388  1
  S  S121  1  0.64163539  0.36198771  0.58471743  1
  S  S122  1  0.64671368  0.35994405  0.91835542  1
  S  S123  1  0.64079501  0.85644712  0.25001015  1
  S  S124  1  0.64102561  0.85928482  0.58440319  1
  S  S125  1  0.64014435  0.86387431  0.91884485  1
  S  S126  1  0.06194865  0.16990501  0.04412745  1
  S  S127  1  0.06651835  0.16951751  0.37724079  1
  S  S128  1  0.07346677  0.17422996  0.71141972  1
  S  S129  1  0.05854382  0.66994872  0.04087620  1
  S  S130  1  0.07092764  0.66789217  0.37136625  1
  S  S131  1  0.05684444  0.67010724  0.70403130  1
  S  S132  1  0.56989568  0.17314996  0.04036843  1
  S  S133  1  0.56505050  0.16947187  0.38025671  1
  S  S134  1  0.57119992  0.16794884  0.70958408  1
  S  S135  1  0.55715327  0.66289610  0.03971278  1
  S  S136  1  0.56890649  0.66849110  0.37818865  1
  S  S137  1  0.56716990  0.67102073  0.71133081  1
  S  S138  1  0.33643064  0.42903157  0.12739390  1
  S  S139  1  0.32237486  0.42857395  0.45697818  1
  S  S140  1  0.33388443  0.44127943  0.78625627  1
  S  S141  1  0.32721608  0.92736798  0.12435567  1
  S  S142  1  0.33423715  0.93492516  0.45888928  1
  S  S143  1  0.32791206  0.92582305  0.79387319  1
  S  S144  1  0.83636239  0.43772212  0.12623910  1
  S  S145  1  0.83020526  0.42914456  0.45852466  1
  S  S146  1  0.83619293  0.43479299  0.79245839  1
  S  S147  1  0.83172765  0.93591765  0.12350175  1
  S  S148  1  0.82075715  0.93324678  0.45329674  1
  S  S149  1  0.83273318  0.93656297  0.79404998  1
  S  S150  1  0.43685991  0.33208362  0.29237781  1
  S  S151  1  0.42883014  0.33199293  0.62260737  1
  S  S152  1  0.44088883  0.32927997  0.96237179  1
  S  S153  1  0.43170787  0.82904198  0.29248869  1
  S  S154  1  0.43539017  0.82871125  0.62550752  1
  S  S155  1  0.42380722  0.82965710  0.95786594  1
  S  S156  1  0.92751447  0.32753421  0.28757152  1
  S  S157  1  0.93414936  0.33049633  0.62266481  1
  S  S158  1  0.93461214  0.33242490  0.95749688  1
  S  S159  1  0.93972815  0.83575095  0.29221883  1
  S  S160  1  0.93394065  0.83171932  0.62229520  1
  S  S161  1  0.93106288  0.83438556  0.95636092  1
  S  S162  1  0.16554217  0.06467053  0.21050404  1
  S  S163  1  0.17399687  0.06784854  0.54397143  1
  S  S164  1  0.16649442  0.06452685  0.87275095  1
  S  S165  1  0.16758663  0.57077968  0.20423101  1
  S  S166  1  0.17265880  0.56857571  0.53707996  1
  S  S167  1  0.15854613  0.56805073  0.87597535  1
  S  S168  1  0.67327075  0.06447437  0.21302987  1
  S  S169  1  0.66776360  0.06370535  0.54068795  1
  S  S170  1  0.67461094  0.07284161  0.87762475  1
  S  S171  1  0.67031191  0.56900533  0.21144798  1
  S  S172  1  0.66798539  0.56611110  0.54056606  1
  S  S173  1  0.66748044  0.56064312  0.87664778  1
  O  O174  1  0.37825083  0.22443552  0.07030076  1
  O  O175  1  0.36824674  0.21914539  0.40751338  1
  O  O176  1  0.36296858  0.21140224  0.73860035  1
  O  O177  1  0.36495013  0.72586770  0.08776419  1
  O  O178  1  0.37517145  0.72227581  0.41083392  1
  O  O179  1  0.37170148  0.71688432  0.73019378  1
  O  O180  1  0.86733913  0.22099030  0.07557564  1
  O  O181  1  0.86920422  0.21736247  0.40521753  1
  O  O182  1  0.87387578  0.21704280  0.74005748  1
  O  O183  1  0.86512484  0.71916589  0.07015305  1
  O  O184  1  0.85944769  0.71566884  0.40533262  1
  O  O185  1  0.86186971  0.72242987  0.74581818  1
  O  O186  1  0.28284075  0.14341144  0.08673510  1
  O  O187  1  0.28200875  0.13158311  0.42496489  1
  O  O188  1  0.28068419  0.12327578  0.76166778  1
  O  O189  1  0.28255245  0.62970706  0.09907719  1
  O  O190  1  0.28394911  0.62980518  0.41425929  1
  O  O191  1  0.27398315  0.63908160  0.74664575  1
  O  O192  1  0.78022679  0.13372707  0.09309457  1
  O  O193  1  0.77927454  0.13353990  0.42346567  1
  O  O194  1  0.78551221  0.13084214  0.75796569  1
  O  O195  1  0.77632936  0.63057605  0.08427654  1
  O  O196  1  0.78043078  0.62435149  0.42914536  1
  O  O197  1  0.77678362  0.63008550  0.76074699  1
  O  O198  1  0.12393871  0.28136066  0.26195192  1
  O  O199  1  0.13265503  0.27558364  0.58506580  1
  O  O200  1  0.12887380  0.27812507  0.92474313  1
  O  O201  1  0.13032132  0.78369971  0.25849811  1
  O  O202  1  0.13236822  0.78209168  0.59207900  1
  O  O203  1  0.12645443  0.77648528  0.92124891  1
  O  O204  1  0.64331858  0.28406059  0.25966666  1
  O  O205  1  0.63195555  0.28269065  0.59140308  1
  O  O206  1  0.63562343  0.27941776  0.92202515  1
  O  O207  1  0.63048588  0.77956366  0.26301396  1
  O  O208  1  0.63174157  0.78056264  0.59073027  1
  O  O209  1  0.63617107  0.79060208  0.93441315  1
  O  O210  1  0.21424620  0.36232449  0.23989856  1
  O  O211  1  0.21856021  0.36945314  0.57585992  1
  O  O212  1  0.21499496  0.36216627  0.90029432  1
  O  O213  1  0.21760582  0.87062646  0.24104325  1
  O  O214  1  0.22710185  0.86937563  0.58373137  1
  O  O215  1  0.21582168  0.86753745  0.91174951  1
  O  O216  1  0.71860517  0.37715007  0.23528057  1
  O  O217  1  0.72122705  0.37086864  0.57696806  1
  O  O218  1  0.72850736  0.36715775  0.91357104  1
  O  O219  1  0.72214509  0.86445045  0.24803229  1
  O  O220  1  0.71902184  0.86911035  0.57482358  1
  O  O221  1  0.71812592  0.87737713  0.90819849  1
  O  O222  1  0.42138484  0.13497031  0.14430381  1
  O  O223  1  0.41989758  0.13423510  0.48642874  1
  O  O224  1  0.41896995  0.12941743  0.81781284  1
  O  O225  1  0.42088569  0.63317537  0.15569282  1
  O  O226  1  0.42001605  0.63404645  0.48705409  1
  O  O227  1  0.41143800  0.63169176  0.80972305  1
  O  O228  1  0.91775790  0.13485733  0.15349567  1
  O  O229  1  0.91683334  0.13697378  0.48874056  1
  O  O230  1  0.92319167  0.13172939  0.81779108  1
  O  O231  1  0.91410056  0.63575761  0.15100578  1
  O  O232  1  0.91908540  0.63435621  0.48372466  1
  O  O233  1  0.91458785  0.63337666  0.81783985  1
  O  O234  1  0.36298412  0.08510950  0.00802440  1
  O  O235  1  0.37141529  0.08041829  0.35091354  1
  O  O236  1  0.36530056  0.07358259  0.68205398  1
  O  O237  1  0.36709007  0.58891683  0.01961689  1
  O  O238  1  0.38316176  0.58453689  0.35195044  1
  O  O239  1  0.36087634  0.57775180  0.67434331  1
  O  O240  1  0.86820439  0.08329614  0.01752668  1
  O  O241  1  0.87044477  0.07872355  0.35268452  1
  O  O242  1  0.87246741  0.07808371  0.68226365  1
  O  O243  1  0.87054832  0.58128127  0.01571194  1
  O  O244  1  0.86393938  0.57829579  0.34814797  1
  O  O245  1  0.86152617  0.58470487  0.68116370  1
  O  O246  1  0.07659066  0.36513285  0.18025226  1
  O  O247  1  0.08078125  0.36356446  0.51004663  1
  O  O248  1  0.07644135  0.36767395  0.85032801  1
  O  O249  1  0.07898843  0.87092137  0.18252408  1
  O  O250  1  0.09111841  0.86896014  0.51492150  1
  O  O251  1  0.07871238  0.86408587  0.84490647  1
  O  O252  1  0.57967069  0.36641636  0.18342980  1
  O  O253  1  0.58358169  0.37082690  0.51673198  1
  O  O254  1  0.59010521  0.37447398  0.85471999  1
  O  O255  1  0.58559645  0.85842185  0.17784201  1
  O  O256  1  0.58062908  0.86990950  0.51749707  1
  O  O257  1  0.57952781  0.86657701  0.84907813  1
  O  O258  1  0.12811035  0.42067019  0.31446339  1
  O  O259  1  0.12356177  0.41316887  0.64563016  1
  O  O260  1  0.13719851  0.41586474  0.98482474  1
  O  O261  1  0.13210111  0.92232144  0.31824577  1
  O  O262  1  0.13349130  0.91984343  0.65148527  1
  O  O263  1  0.12136253  0.91437323  0.98052271  1
  O  O264  1  0.63575539  0.42088913  0.31851216  1
  O  O265  1  0.63549657  0.42029738  0.65376241  1
  O  O266  1  0.64277475  0.41647525  0.99079094  1
  O  O267  1  0.62673690  0.91745190  0.31377174  1
  O  O268  1  0.63376773  0.91897012  0.65290302  1
  O  O269  1  0.62917937  0.92882368  0.98315921  1
  O  O270  1  0.02492092  0.20419786  0.10512740  1
  O  O271  1  0.02916249  0.19821915  0.43769889  1
  O  O272  1  0.03518472  0.20305286  0.77157284  1
  O  O273  1  0.02561486  0.70595260  0.10446038  1
  O  O274  1  0.03743049  0.68987872  0.43282597  1
  O  O275  1  0.01851560  0.70324799  0.76447169  1
  O  O276  1  0.53654636  0.20617721  0.10208866  1
  O  O277  1  0.53239701  0.20158439  0.44537770  1
  O  O278  1  0.53384087  0.18743586  0.76803186  1
  O  O279  1  0.52754743  0.69737088  0.10699454  1
  O  O280  1  0.53402728  0.69990548  0.44001324  1
  O  O281  1  0.53092157  0.70049774  0.77049951  1
  O  O282  1  0.31335346  0.46002723  0.06262219  1
  O  O283  1  0.29824205  0.47009014  0.40120167  1
  O  O284  1  0.29407692  0.47003365  0.72014780  1
  O  O285  1  0.30361666  0.96547286  0.06611180  1
  O  O286  1  0.30313793  0.97143061  0.39778335  1
  O  O287  1  0.30201393  0.96328869  0.73317017  1
  O  O288  1  0.80866555  0.47419731  0.06577972  1
  O  O289  1  0.80049752  0.46301554  0.39585468  1
  O  O290  1  0.80463981  0.46858195  0.73016645  1
  O  O291  1  0.80096449  0.97326223  0.06317150  1
  O  O292  1  0.78747570  0.97268215  0.39399531  1
  O  O293  1  0.80178925  0.96958035  0.73031612  1
  O  O294  1  0.47195522  0.30380317  0.23052649  1
  O  O295  1  0.46337327  0.30512986  0.55833074  1
  O  O296  1  0.47826912  0.29487132  0.90442001  1
  O  O297  1  0.47050268  0.80158082  0.23349307  1
  O  O298  1  0.47501575  0.79815957  0.56610670  1
  O  O299  1  0.45968520  0.80821079  0.89772293  1
  O  O300  1  0.96456334  0.29774385  0.22701498  1
  O  O301  1  0.97076240  0.30055250  0.56160966  1
  O  O302  1  0.96801201  0.30012877  0.89497318  1
  O  O303  1  0.96795469  0.80028611  0.22451904  1
  O  O304  1  0.97247698  0.80327342  0.56516579  1
  O  O305  1  0.96646904  0.80381989  0.89502507  1
  O  O306  1  0.20150430  0.03461556  0.27644123  1
  O  O307  1  0.20279030  0.03054389  0.60390714  1
  O  O308  1  0.19200167  0.02714515  0.93148687  1
  O  O309  1  0.18931902  0.53281968  0.26245103  1
  O  O310  1  0.19692038  0.52365423  0.59191159  1
  O  O311  1  0.18048315  0.54164177  0.94318496  1
  O  O312  1  0.71047443  0.02480991  0.27224172  1
  O  O313  1  0.70117819  0.02928395  0.60322666  1
  O  O314  1  0.70486034  0.03768548  0.94001542  1
  O  O315  1  0.69958932  0.53347419  0.27328598  1
  O  O316  1  0.69847843  0.53255981  0.60395253  1
  O  O317  1  0.70538990  0.52591100  0.93911997  1
  O  O318  1  0.07171448  0.08816744  0.03957733  1
  O  O319  1  0.08661701  0.08856684  0.37260323  1
  O  O320  1  0.09066429  0.09273027  0.70663832  1
  O  O321  1  0.06583168  0.58658870  0.03418525  1
  O  O322  1  0.09164201  0.58594901  0.35676189  1
  O  O323  1  0.06529866  0.58746934  0.69667946  1
  O  O324  1  0.58888891  0.09233351  0.03849572  1
  O  O325  1  0.58900883  0.09029625  0.38316527  1
  O  O326  1  0.59370653  0.08594784  0.69662517  1
  O  O327  1  0.57928198  0.58203571  0.04110261  1
  O  O328  1  0.58456822  0.58586362  0.37224546  1
  O  O329  1  0.58566593  0.58960016  0.70911709  1
  O  O330  1  0.41777179  0.40245900  0.13391599  1
  O  O331  1  0.40381899  0.40962325  0.46313700  1
  O  O332  1  0.41616456  0.43470238  0.78946571  1
  O  O333  1  0.40710756  0.90452747  0.13502033  1
  O  O334  1  0.41722460  0.91969621  0.46407895  1
  O  O335  1  0.40994722  0.90791229  0.80355331  1
  O  O336  1  0.91983001  0.42081998  0.13267567  1
  O  O337  1  0.91270233  0.41249418  0.46641780  1
  O  O338  1  0.91854231  0.41702001  0.79624678  1
  O  O339  1  0.91477963  0.92006948  0.12743639  1
  O  O340  1  0.89627567  0.91016856  0.44933447  1
  O  O341  1  0.91492074  0.91941703  0.79935127  1
  O  O342  1  0.42750065  0.41556747  0.30673921  1
  O  O343  1  0.39904662  0.40999927  0.62534544  1
  O  O344  1  0.43312047  0.41148393  0.96724048  1
  O  O345  1  0.41212086  0.91052895  0.29983566  1
  O  O346  1  0.41992415  0.91041243  0.62640405  1
  O  O347  1  0.40345037  0.91161031  0.96926932  1
  O  O348  1  0.91100876  0.40914885  0.29174249  1
  O  O349  1  0.91425241  0.41162518  0.62696324  1
  O  O350  1  0.91839704  0.41484407  0.96175344  1
  O  O351  1  0.91450724  0.91410569  0.28774724  1
  O  O352  1  0.91187347  0.91277189  0.62557441  1
  O  O353  1  0.91540571  0.91723297  0.96270568  1
  O  O354  1  0.08420370  0.08447509  0.21216045  1
  O  O355  1  0.09223070  0.08585648  0.53846886  1
  O  O356  1  0.08288237  0.08274716  0.86578099  1
  O  O357  1  0.08404873  0.58916727  0.19079652  1
  O  O358  1  0.09469340  0.59362891  0.53939171  1
  O  O359  1  0.07410549  0.58808960  0.86500950  1
  O  O360  1  0.59843402  0.08524412  0.21849906  1
  O  O361  1  0.58635761  0.08198880  0.53859191  1
  O  O362  1  0.59547863  0.09366925  0.87460239  1
  O  O363  1  0.58688607  0.58299330  0.20366175  1
  O  O364  1  0.58574165  0.58320328  0.53372236  1
  O  O365  1  0.58540112  0.56538850  0.87163994  1
  O  O366  1  0.13457103  0.21946140  0.06052566  1
  O  O367  1  0.13609106  0.22296045  0.39257805  1
  O  O368  1  0.14427022  0.22642315  0.72757056  1
  O  O369  1  0.13389168  0.71568780  0.05704939  1
  O  O370  1  0.13935579  0.72234520  0.38544021  1
  O  O371  1  0.13129584  0.71888256  0.72480530  1
  O  O372  1  0.64215712  0.22402221  0.05440405  1
  O  O373  1  0.63653811  0.22261626  0.39688962  1
  O  O374  1  0.63944671  0.22384527  0.72670882  1
  O  O375  1  0.62666973  0.71407539  0.05114278  1
  O  O376  1  0.64075807  0.71885012  0.39352555  1
  O  O377  1  0.63784837  0.72226767  0.72433234  1
  O  O378  1  0.27997972  0.36063286  0.11179349  1
  O  O379  1  0.26859220  0.35615355  0.43517041  1
  O  O380  1  0.28985247  0.36317027  0.76837411  1
  O  O381  1  0.27022367  0.85788218  0.10596659  1
  O  O382  1  0.28399939  0.86290332  0.44187813  1
  O  O383  1  0.27391967  0.85423262  0.77359890  1
  O  O384  1  0.78594578  0.36560165  0.10979726  1
  O  O385  1  0.77888146  0.35793736  0.44404453  1
  O  O386  1  0.78624288  0.36497305  0.78177057  1
  O  O387  1  0.78150170  0.86443692  0.10745860  1
  O  O388  1  0.76531362  0.86486668  0.43922104  1
  O  O389  1  0.78151468  0.86733193  0.78254334  1
  O  O390  1  0.36278161  0.28215235  0.27286522  1
  O  O391  1  0.36074738  0.27323361  0.60399391  1
  O  O392  1  0.36480535  0.28256398  0.94381562  1
  O  O393  1  0.36099812  0.77562723  0.27510011  1
  O  O394  1  0.36341050  0.77832488  0.60678231  1
  O  O395  1  0.35356635  0.77454476  0.94029759  1
  O  O396  1  0.85602131  0.27639057  0.27174034  1
  O  O397  1  0.86542907  0.27697149  0.60862419  1
  O  O398  1  0.86306069  0.28214277  0.94387325  1
  O  O399  1  0.87355173  0.78351813  0.28546269  1
  O  O400  1  0.86448464  0.77911807  0.60966118  1
  O  O401  1  0.85926934  0.78401597  0.94113645  1
  O  O402  1  0.21490131  0.13514064  0.22046810  1
  O  O403  1  0.22631182  0.13809486  0.55860135  1
  O  O404  1  0.21752210  0.13571697  0.88782816  1
  O  O405  1  0.22015895  0.64369739  0.22544440  1
  O  O406  1  0.23037393  0.63555064  0.55585806  1
  O  O407  1  0.21098674  0.63774536  0.88869616  1
  O  O408  1  0.73002618  0.13381532  0.22883208  1
  O  O409  1  0.71939290  0.13334903  0.55338615  1
  O  O410  1  0.72957083  0.14178974  0.89188613  1
  O  O411  1  0.72062591  0.64086163  0.22793663  1
  O  O412  1  0.71899234  0.63603619  0.55309043  1
  O  O413  1  0.71325410  0.63670258  0.89471427  1
  O  O414  1  0.49388129  0.32680451  0.03808313  1
  O  O415  1  0.49347064  0.32418416  0.36337460  1
  O  O416  1  0.49043571  0.33699488  0.69141286  1
  O  O417  1  0.48404972  0.82750039  0.02878949  1
  O  O418  1  0.49094736  0.83105346  0.36546676  1
  O  O419  1  0.49218128  0.83216628  0.69923659  1
  O  O420  1  0.99448479  0.33614312  0.03006832  1
  O  O421  1  0.98671951  0.32896846  0.35992582  1
  O  O422  1  0.99570855  0.33667810  0.69574572  1
  O  O423  1  0.99070939  0.83738244  0.02957326  1
  O  O424  1  1.00620576  0.84936322  0.36074710  1
  O  O425  1  0.99216317  0.84220586  0.69938322  1
  O  O426  1  0.15495549  0.00131828  0.14044654  1
  O  O427  1  0.17037996  0.00758465  0.47076500  1
  O  O428  1  0.16038188  0.00551221  0.79781760  1
  O  O429  1  0.17161835  0.51375201  0.13216490  1
  O  O430  1  0.16365226  0.51237615  0.46082837  1
  O  O431  1  0.15395738  0.50410743  0.80793000  1
  O  O432  1  0.66998057  0.00680498  0.13847868  1
  O  O433  1  0.66122712  0.00224473  0.46792256  1
  O  O434  1  0.67195376  0.01152715  0.80573705  1
  O  O435  1  0.67207170  0.50941168  0.14019449  1
  O  O436  1  0.66600383  0.50326211  0.46971030  1
  O  O437  1  0.67425136  0.50516578  0.80530518  1
  O  O438  1  0.00587627  0.16561742  0.30468840  1
  O  O439  1  0.01333809  0.17229406  0.63909325  1
  O  O440  1  0.00458374  0.17129806  0.97100133  1
  O  O441  1  0.00770868  0.66846615  0.30034528  1
  O  O442  1  0.00256061  0.67501677  0.63162458  1
  O  O443  1  0.00078558  0.67454588  0.97009878  1
  O  O444  1  0.50518595  0.16227759  0.31046180  1
  O  O445  1  0.51063487  0.16694380  0.63687374  1
  O  O446  1  0.51074672  0.16665591  0.96671982  1
  O  O447  1  0.50948482  0.66608069  0.30541853  1
  O  O448  1  0.50886269  0.66515628  0.63621770  1
  O  O449  1  0.49355624  0.65413875  0.97115010  1
  O  O450  1  0.34384566  0.49181184  0.19737057  1
  O  O451  1  0.32174539  0.48294812  0.53158758  1
  O  O452  1  0.32682853  0.49582470  0.85486407  1
  O  O453  1  0.32620097  0.98702476  0.19665057  1
  O  O454  1  0.33657467  0.99308151  0.53195915  1
  O  O455  1  0.32576951  0.98459666  0.86509000  1
  O  O456  1  0.83926677  0.49622785  0.19942796  1
  O  O457  1  0.83052063  0.49051492  0.52961381  1
  O  O458  1  0.84204335  0.49695234  0.86521517  1
  O  O459  1  0.83640371  0.99458715  0.19711844  1
  O  O460  1  0.82739658  0.99304768  0.52765865  1
  O  O461  1  0.83621275  0.99943413  0.86531596  1
