# generated using pymatgen
data_Na31Fe20(SO4)36
_symmetry_space_group_name_H-M   'P 1'
_cell_length_a   18.08353877
_cell_length_b   18.08440051
_cell_length_c   19.71073402
_cell_angle_alpha   107.57849201
_cell_angle_beta   107.55687115
_cell_angle_gamma   90.75441982
_symmetry_Int_Tables_number   1
_chemical_formula_structural   Na31Fe20(SO4)36
_chemical_formula_sum   'Na62 Fe40 S72 O288'
_cell_volume   5820.07169010
_cell_formula_units_Z   2
loop_
 _symmetry_equiv_pos_site_id
 _symmetry_equiv_pos_as_xyz
  1  'x, y, z'
loop_
 _atom_site_type_symbol
 _atom_site_label
 _atom_site_symmetry_multiplicity
 _atom_site_fract_x
 _atom_site_fract_y
 _atom_site_fract_z
 _atom_site_occupancy
  Na  Na0  1  0.12203011  0.35205676  0.06165101  1
  Na  Na1  1  0.13139654  0.36631612  0.41674854  1
  Na  Na2  1  0.12817008  0.35471882  0.74420426  1
  Na  Na3  1  0.13324358  0.87370435  0.08418849  1
  Na  Na4  1  0.13371861  0.85993685  0.40736901  1
  Na  Na5  1  0.13655523  0.87915039  0.74969874  1
  Na  Na6  1  0.63599104  0.33412574  0.04721720  1
  Na  Na7  1  0.63215449  0.37105161  0.41709600  1
  Na  Na8  1  0.63008494  0.36396667  0.74774907  1
  Na  Na9  1  0.63924033  0.86969253  0.08955135  1
  Na  Na10  1  0.64522574  0.87145473  0.42981137  1
  Na  Na11  1  0.63140882  0.86201974  0.75281366  1
  Na  Na12  1  0.36523377  0.13489444  0.24991073  1
  Na  Na13  1  0.36538415  0.13834778  0.59005864  1
  Na  Na14  1  0.36166562  0.13184056  0.90017297  1
  Na  Na15  1  0.36550375  0.64032206  0.25818085  1
  Na  Na16  1  0.36797824  0.64086724  0.59246378  1
  Na  Na17  1  0.37385990  0.62760493  0.91671730  1
  Na  Na18  1  0.86054857  0.11690383  0.24052484  1
  Na  Na19  1  0.86439706  0.12808528  0.59321741  1
  Na  Na20  1  0.86760388  0.13882097  0.92434511  1
  Na  Na21  1  0.85202461  0.62880309  0.23229979  1
  Na  Na22  1  0.86781282  0.64696802  0.58977489  1
  Na  Na23  1  0.86525780  0.62968319  0.90934932  1
  Na  Na24  1  0.95375501  0.00824933  0.39247349  1
  Na  Na25  1  0.98645267  0.51053086  0.42222574  1
  Na  Na26  1  0.48450777  0.01331395  0.07729588  1
  Na  Na27  1  0.48560168  0.00870505  0.41524337  1
  Na  Na28  1  0.49676648  0.49813483  0.77653911  1
  Na  Na29  1  0.54420810  0.48274455  0.03428263  1
  Na  Na30  1  0.48393791  0.02307225  0.76125811  1
  Na  Na31  1  0.99736096  0.51358234  0.07258359  1
  Na  Na32  1  1.00843766  0.08612357  0.79543728  1
  Na  Na33  1  -0.00403586  0.49278750  0.61128941  1
  Na  Na34  1  0.51818791  0.96695939  0.90617518  1
  Na  Na35  1  0.00965460  0.48949392  0.24510041  1
  Na  Na36  1  0.52908567  0.98798439  0.25144899  1
  Na  Na37  1  0.50672145  0.98784162  0.58840540  1
  Na  Na38  1  0.00245896  0.42054155  0.85755021  1
  Na  Na39  1  0.50966874  0.49774411  0.57005699  1
  Na  Na40  1  0.50693658  0.49133310  0.25212607  1
  Na  Na41  1  0.02218823  0.99050315  0.59748870  1
  Na  Na42  1  0.74310003  0.74731156  0.68131509  1
  Na  Na43  1  0.76066082  0.76132664  0.32474079  1
  Na  Na44  1  0.23805145  0.22471583  0.69062091  1
  Na  Na45  1  0.76437509  0.75861398  -0.01843621  1
  Na  Na46  1  0.23999335  0.24498914  0.33700128  1
  Na  Na47  1  0.75333772  0.25459380  0.32874215  1
  Na  Na48  1  0.75311640  0.25052307  0.67176664  1
  Na  Na49  1  0.26610577  0.76271212  0.66366702  1
  Na  Na50  1  0.25333315  0.75215333  -0.00002285  1
  Na  Na51  1  0.25804869  0.25183209  -0.01799504  1
  Na  Na52  1  0.23841673  0.24080275  0.50842844  1
  Na  Na53  1  0.75941940  0.76276495  0.15656494  1
  Na  Na54  1  0.76229977  0.76764597  0.50262936  1
  Na  Na55  1  0.25218303  0.25367307  0.16071453  1
  Na  Na56  1  0.26511922  0.75671393  0.82643306  1
  Na  Na57  1  0.75393490  0.25645897  0.15023832  1
  Na  Na58  1  0.24351194  0.74075963  0.17779558  1
  Na  Na59  1  0.73830293  0.23968486  0.85348056  1
  Na  Na60  1  0.75076764  0.24907765  0.50432532  1
  Na  Na61  1  0.25970436  0.76042632  0.48573336  1
  Fe  Fe62  1  0.45928930  0.80894328  0.45064069  1
  Fe  Fe63  1  0.96679730  0.81640707  0.78910741  1
  Fe  Fe64  1  0.47179194  0.29639691  0.78923158  1
  Fe  Fe65  1  0.46605329  0.80731897  0.12115472  1
  Fe  Fe66  1  0.96686789  0.80758812  0.45349270  1
  Fe  Fe67  1  0.46653164  0.30036623  0.11238824  1
  Fe  Fe68  1  0.46459321  0.30413806  0.44942324  1
  Fe  Fe69  1  0.96181875  0.30939598  0.45575651  1
  Fe  Fe70  1  0.96751331  0.81106451  0.11918836  1
  Fe  Fe71  1  0.95704472  0.30732755  0.11160095  1
  Fe  Fe72  1  0.16942882  0.04212640  0.03359337  1
  Fe  Fe73  1  0.69151400  0.54045558  0.38322940  1
  Fe  Fe74  1  0.70859645  0.02582321  0.38280819  1
  Fe  Fe75  1  0.18459251  0.03563216  0.37186393  1
  Fe  Fe76  1  0.19454980  0.53203993  0.04597350  1
  Fe  Fe77  1  0.19779916  0.53100732  0.71797746  1
  Fe  Fe78  1  0.69377572  0.03162779  0.04699733  1
  Fe  Fe79  1  0.70036919  0.02917226  0.71440836  1
  Fe  Fe80  1  0.68946511  0.54653510  0.71895205  1
  Fe  Fe81  1  0.19421332  0.53513700  0.38304918  1
  Fe  Fe82  1  0.03144178  0.19336179  0.55361072  1
  Fe  Fe83  1  0.04016829  0.69062243  0.21518750  1
  Fe  Fe84  1  0.04008318  0.69219033  0.55042085  1
  Fe  Fe85  1  0.53534305  0.19233151  0.54826624  1
  Fe  Fe86  1  0.53372686  0.19189982  0.21344194  1
  Fe  Fe87  1  0.03671318  0.68959572  0.87845488  1
  Fe  Fe88  1  0.03131266  0.19066537  0.21074081  1
  Fe  Fe89  1  0.53372421  0.70073630  0.88141368  1
  Fe  Fe90  1  0.53040776  0.69656242  0.54928255  1
  Fe  Fe91  1  0.53512433  0.68790670  0.21196990  1
  Fe  Fe92  1  0.81401882  0.96170091  0.95481282  1
  Fe  Fe93  1  0.30967456  0.46303434  0.28812664  1
  Fe  Fe94  1  0.31375453  0.46350580  0.95540557  1
  Fe  Fe95  1  0.79433526  0.47312024  0.95563215  1
  Fe  Fe96  1  0.80077849  0.46761753  0.28194174  1
  Fe  Fe97  1  0.30956812  0.46032597  0.62097148  1
  Fe  Fe98  1  0.30694255  0.96478601  0.94890862  1
  Fe  Fe99  1  0.30509521  0.96492334  0.28230730  1
  Fe  Fe100  1  0.29912883  0.97121117  0.62212864  1
  Fe  Fe101  1  0.80622285  0.46917001  0.62518011  1
  S  S102  1  0.35697998  0.13845823  0.08384486  1
  S  S103  1  0.35747807  0.14023392  0.41436715  1
  S  S104  1  0.36404655  0.13829424  0.74659704  1
  S  S105  1  0.35947956  0.64026715  0.08575326  1
  S  S106  1  0.35934535  0.63860243  0.41725459  1
  S  S107  1  0.36228379  0.63471308  0.75020034  1
  S  S108  1  0.85647506  0.14070800  0.08516192  1
  S  S109  1  0.85649143  0.14553453  0.41549210  1
  S  S110  1  0.84728835  0.14938369  0.76231809  1
  S  S111  1  0.86486566  0.64038992  0.08350198  1
  S  S112  1  0.86056797  0.64071200  0.41833419  1
  S  S113  1  0.86319857  0.64371593  0.74689360  1
  S  S114  1  0.13841696  0.36189493  0.25121279  1
  S  S115  1  0.13706608  0.36095715  0.58141655  1
  S  S116  1  0.15261883  0.35843033  0.92242198  1
  S  S117  1  0.14230720  0.85806676  0.24763100  1
  S  S118  1  0.14262926  0.85290724  0.57644713  1
  S  S119  1  0.14434670  0.85607881  0.91700233  1
  S  S120  1  0.63755934  0.36071938  0.25197453  1
  S  S121  1  0.63663173  0.36347271  0.58147548  1
  S  S122  1  0.63824394  0.36342571  0.91167378  1
  S  S123  1  0.64109052  0.85597905  0.25405968  1
  S  S124  1  0.63540529  0.86195718  0.58230762  1
  S  S125  1  0.64672474  0.85751063  0.92114024  1
  S  S126  1  0.06032553  0.17864341  0.04855655  1
  S  S127  1  0.06366781  0.17451193  0.37615467  1
  S  S128  1  0.05688226  0.16662766  0.70329036  1
  S  S129  1  0.07285775  0.67176840  0.04392330  1
  S  S130  1  0.06362033  0.66019823  0.37232309  1
  S  S131  1  0.07407104  0.66806551  0.71016713  1
  S  S132  1  0.56095333  0.16001601  0.04042644  1
  S  S133  1  0.56723345  0.16823458  0.37709865  1
  S  S134  1  0.57135184  0.16453930  0.70378224  1
  S  S135  1  0.56753985  0.67877573  0.04762395  1
  S  S136  1  0.56756371  0.67491430  0.37962146  1
  S  S137  1  0.56495608  0.66779582  0.70659069  1
  S  S138  1  0.33245773  0.43105857  0.12714720  1
  S  S139  1  0.32958739  0.42979249  0.45751044  1
  S  S140  1  0.33001760  0.42356467  0.78826726  1
  S  S141  1  0.33772342  0.93368320  0.12698901  1
  S  S142  1  0.32768533  0.93666682  0.45583355  1
  S  S143  1  0.33344758  0.93516642  0.78938882  1
  S  S144  1  0.82509952  0.43288606  0.12307670  1
  S  S145  1  0.82896910  0.43783042  0.45969376  1
  S  S146  1  0.81393642  0.43671841  0.78422919  1
  S  S147  1  0.83030676  0.92980252  0.12145019  1
  S  S148  1  0.83950341  0.93580299  0.46214933  1
  S  S149  1  0.82656892  0.93131065  0.79083425  1
  S  S150  1  0.43316275  0.32891636  0.28903098  1
  S  S151  1  0.43306027  0.32760820  0.62109570  1
  S  S152  1  0.43515074  0.32890394  0.95947595  1
  S  S153  1  0.43278673  0.83363334  0.29251348  1
  S  S154  1  0.43214243  0.83436024  0.62281969  1
  S  S155  1  0.43486872  0.83286954  0.96129783  1
  S  S156  1  0.92916191  0.33532076  0.29194781  1
  S  S157  1  0.93042572  0.33090034  0.62589529  1
  S  S158  1  0.92617379  0.34581385  0.96203575  1
  S  S159  1  0.93600143  0.82085337  0.28605744  1
  S  S160  1  0.94457191  0.83113673  0.62467919  1
  S  S161  1  0.93659567  0.82428921  0.95461747  1
  S  S162  1  0.17284403  0.07216359  0.20877246  1
  S  S163  1  0.16597081  0.06625550  0.53491043  1
  S  S164  1  0.17283267  0.06549743  0.88588669  1
  S  S165  1  0.17174303  0.56334514  0.20856049  1
  S  S166  1  0.17331172  0.56583537  0.54485481  1
  S  S167  1  0.17768945  0.56824257  0.87907360  1
  S  S168  1  0.66405283  0.06600948  0.21069143  1
  S  S169  1  0.66759763  0.06895259  0.54306232  1
  S  S170  1  0.67023031  0.05801657  0.87706246  1
  S  S171  1  0.66358048  0.56332178  0.21125761  1
  S  S172  1  0.67035451  0.57290975  0.54501611  1
  S  S173  1  0.66837008  0.57193129  0.87469745  1
  O  O174  1  0.36595139  0.21932483  0.07920637  1
  O  O175  1  0.36761398  0.21766077  0.40321503  1
  O  O176  1  0.37809881  0.21335515  0.72977756  1
  O  O177  1  0.36712376  0.71949635  0.07791120  1
  O  O178  1  0.36707228  0.71662494  0.40757701  1
  O  O179  1  0.36675323  0.71007996  0.73824126  1
  O  O180  1  0.86231138  0.22125467  0.08014201  1
  O  O181  1  0.86335873  0.22841752  0.41387211  1
  O  O182  1  0.84466461  0.23138936  0.76666401  1
  O  O183  1  0.87760375  0.71730234  0.07266169  1
  O  O184  1  0.87046543  0.72032244  0.41211126  1
  O  O185  1  0.87748938  0.71988817  0.73484329  1
  O  O186  1  0.27833292  0.12692632  0.09070438  1
  O  O187  1  0.27658832  0.13238669  0.41800338  1
  O  O188  1  0.28511714  0.13389271  0.75048446  1
  O  O189  1  0.27987807  0.62979636  0.09280543  1
  O  O190  1  0.28025442  0.62904705  0.42591803  1
  O  O191  1  0.28566686  0.62280259  0.76343998  1
  O  O192  1  0.77787134  0.12833853  0.09436856  1
  O  O193  1  0.77689818  0.13389321  0.42252155  1
  O  O194  1  0.76514128  0.12613187  0.76827893  1
  O  O195  1  0.79468234  0.63739267  0.10469346  1
  O  O196  1  0.78342770  0.63420217  0.43062223  1
  O  O197  1  0.78283263  0.63943279  0.75125163  1
  O  O198  1  0.12795083  0.28437097  0.26134956  1
  O  O199  1  0.12910780  0.28092970  0.58622005  1
  O  O200  1  0.13723065  0.28688150  0.93794852  1
  O  O201  1  0.13496570  0.77929979  0.25599951  1
  O  O202  1  0.13942074  0.77152517  0.58209664  1
  O  O203  1  0.13382452  0.77722996  0.92553626  1
  O  O204  1  0.62915407  0.28358003  0.26434040  1
  O  O205  1  0.62868763  0.28364941  0.58796947  1
  O  O206  1  0.63832918  0.28498502  0.91750836  1
  O  O207  1  0.62498547  0.77813988  0.26280953  1
  O  O208  1  0.62307021  0.78528362  0.59439963  1
  O  O209  1  0.63274186  0.77988310  0.93095388  1
  O  O210  1  0.21823705  0.36912621  0.24425906  1
  O  O211  1  0.21519372  0.37113181  0.57128723  1
  O  O212  1  0.23761998  0.36846707  0.92896004  1
  O  O213  1  0.22111855  0.86840696  0.23872903  1
  O  O214  1  0.22237476  0.86692213  0.57089400  1
  O  O215  1  0.22404824  0.86230979  0.90922750  1
  O  O216  1  0.71760707  0.36866214  0.24570636  1
  O  O217  1  0.71582032  0.37351683  0.57390321  1
  O  O218  1  0.71687673  0.38112671  0.90053316  1
  O  O219  1  0.71754800  0.85935884  0.24401869  1
  O  O220  1  0.70914294  0.86787266  0.56803995  1
  O  O221  1  0.72895305  0.86244836  0.92108588  1
  O  O222  1  0.41628554  0.13114016  0.15296565  1
  O  O223  1  0.41416423  0.13475555  0.48461053  1
  O  O224  1  0.42347048  0.13240053  0.81347761  1
  O  O225  1  0.41706505  0.63447674  0.15556547  1
  O  O226  1  0.41771624  0.63176976  0.48606969  1
  O  O227  1  0.42429860  0.62805520  0.81784122  1
  O  O228  1  0.91561489  0.13489729  0.15421631  1
  O  O229  1  0.91525814  0.13566555  0.48239865  1
  O  O230  1  0.90542103  0.13660113  0.82678721  1
  O  O231  1  0.93251864  0.62322683  0.14112103  1
  O  O232  1  0.92159168  0.62853627  0.48360777  1
  O  O233  1  0.91959545  0.63632701  0.81644453  1
  O  O234  1  0.37011695  0.08157445  0.01752528  1
  O  O235  1  0.36993140  0.07910306  0.34949981  1
  O  O236  1  0.37334280  0.07453223  0.67907639  1
  O  O237  1  0.36903455  0.58194922  0.01843471  1
  O  O238  1  0.36674133  0.57883843  0.34961749  1
  O  O239  1  0.36906073  0.57185237  0.68294064  1
  O  O240  1  0.86505851  0.08368345  0.01743640  1
  O  O241  1  0.86477128  0.09150657  0.34700737  1
  O  O242  1  0.85323500  0.09850629  0.69121915  1
  O  O243  1  0.86014222  0.57975180  0.00952728  1
  O  O244  1  0.86484847  0.58231681  0.34823067  1
  O  O245  1  0.87197696  0.58112506  0.68049062  1
  O  O246  1  0.07953743  0.37245974  0.18486259  1
  O  O247  1  0.07680508  0.37174739  0.51521200  1
  O  O248  1  0.10564145  0.36239014  0.84938420  1
  O  O249  1  0.08380587  0.86592825  0.17972321  1
  O  O250  1  0.08560574  0.85527178  0.50422392  1
  O  O251  1  0.08647359  0.86350757  0.84859293  1
  O  O252  1  0.57878920  0.36580879  0.18328099  1
  O  O253  1  0.57775627  0.37023120  0.51188394  1
  O  O254  1  0.57789334  0.36877227  0.84174080  1
  O  O255  1  0.58006364  0.86983252  0.18943275  1
  O  O256  1  0.57087386  0.87305696  0.51827994  1
  O  O257  1  0.59193384  0.86658841  0.85348117  1
  O  O258  1  0.13164848  0.42246509  0.32005512  1
  O  O259  1  0.13001704  0.41889945  0.65060926  1
  O  O260  1  0.13542359  0.42519413  0.98313404  1
  O  O261  1  0.13520165  0.91700311  0.31566690  1
  O  O262  1  0.12765581  0.90864327  0.64010658  1
  O  O263  1  0.13904349  0.91543090  0.98584893  1
  O  O264  1  0.62874110  0.42245370  0.31860865  1
  O  O265  1  0.62503477  0.42225848  0.64709852  1
  O  O266  1  0.62977069  0.42140160  0.97799335  1
  O  O267  1  0.63674204  0.91644452  0.32435580  1
  O  O268  1  0.63138112  0.92401119  0.65223601  1
  O  O269  1  0.63507922  0.91804407  0.98852192  1
  O  O270  1  0.02603567  0.21202780  0.11344737  1
  O  O271  1  0.02670697  0.20390920  0.43669888  1
  O  O272  1  0.02121199  0.19945598  0.76102889  1
  O  O273  1  0.03743388  0.70502637  0.10488213  1
  O  O274  1  0.02690713  0.68983404  0.43247055  1
  O  O275  1  0.03911452  0.69769660  0.77136021  1
  O  O276  1  0.53053468  0.19560487  0.10753497  1
  O  O277  1  0.52855905  0.19878494  0.43690016  1
  O  O278  1  0.53824258  0.19515877  0.76456326  1
  O  O279  1  0.52620936  0.70761338  0.10752901  1
  O  O280  1  0.52981053  0.70327056  0.43978745  1
  O  O281  1  0.53514104  0.69160951  0.77003195  1
  O  O282  1  0.30658127  0.47236168  0.07016368  1
  O  O283  1  0.30000936  0.46684551  0.39694395  1
  O  O284  1  0.29866884  0.46164648  0.72749953  1
  O  O285  1  0.31548101  0.96473302  0.06352000  1
  O  O286  1  0.29854916  0.97178241  0.39364929  1
  O  O287  1  0.29584031  0.96347246  0.72558446  1
  O  O288  1  0.80003797  0.46690896  0.06148186  1
  O  O289  1  0.79974446  0.47247005  0.39743576  1
  O  O290  1  0.78321904  0.48280157  0.72948362  1
  O  O291  1  0.80031693  0.96920402  0.06128922  1
  O  O292  1  0.81099433  0.96931317  0.39906997  1
  O  O293  1  0.79366228  0.96929753  0.73179669  1
  O  O294  1  0.46864688  0.29719701  0.22780200  1
  O  O295  1  0.46907679  0.29840306  0.55905914  1
  O  O296  1  0.46725864  0.30587100  0.89717869  1
  O  O297  1  0.46804947  0.80267631  0.23164407  1
  O  O298  1  0.46069291  0.79925484  0.55521819  1
  O  O299  1  0.47044288  0.80188959  0.90199005  1
  O  O300  1  0.96616440  0.30649123  0.23224776  1
  O  O301  1  0.96683473  0.29956970  0.56301608  1
  O  O302  1  0.96486756  0.33392769  0.90608339  1
  O  O303  1  0.97328210  0.78745815  0.22498389  1
  O  O304  1  0.97958094  0.79145228  0.56199155  1
  O  O305  1  0.97461140  0.79597450  0.89355863  1
  O  O306  1  0.20235046  0.03048389  0.26685308  1
  O  O307  1  0.19370042  0.02750651  0.59228728  1
  O  O308  1  0.20989041  0.02378776  0.94546408  1
  O  O309  1  0.20187282  0.52896194  0.27110879  1
  O  O310  1  0.20166993  0.53030448  0.60625558  1
  O  O311  1  0.20927535  0.53128668  0.93960698  1
  O  O312  1  0.68272671  0.03047608  0.27107344  1
  O  O313  1  0.68782352  0.03691509  0.60606750  1
  O  O314  1  0.70747009  0.01890574  0.93562003  1
  O  O315  1  0.69983629  0.53272173  0.27763795  1
  O  O316  1  0.70020315  0.53463862  0.60448417  1
  O  O317  1  0.70164636  0.53714089  0.93529240  1
  O  O318  1  0.07554553  0.09764388  0.04814480  1
  O  O319  1  0.08153644  0.09343288  0.37017726  1
  O  O320  1  0.08028544  0.08873389  0.70327300  1
  O  O321  1  0.09079016  0.59125839  0.04448732  1
  O  O322  1  0.08129991  0.57758632  0.36970405  1
  O  O323  1  0.09404514  0.58690363  0.70576721  1
  O  O324  1  0.57998105  0.07850036  0.04010659  1
  O  O325  1  0.58375032  0.08681032  0.37300456  1
  O  O326  1  0.59261812  0.08290811  0.70131611  1
  O  O327  1  0.58779032  0.60133556  0.04608958  1
  O  O328  1  0.58466505  0.59269480  0.37218403  1
  O  O329  1  0.58065021  0.58261426  0.69189631  1
  O  O330  1  0.41299096  0.40916361  0.13275995  1
  O  O331  1  0.41016884  0.40969521  0.46097647  1
  O  O332  1  0.40927976  0.40329706  0.78736045  1
  O  O333  1  0.42234927  0.91815851  0.14209349  1
  O  O334  1  0.41148882  0.92183419  0.46193629  1
  O  O335  1  0.41670741  0.92904898  0.79747455  1
  O  O336  1  0.90854413  0.41536162  0.13596669  1
  O  O337  1  0.91203495  0.42167999  0.46653171  1
  O  O338  1  0.89052102  0.41996247  0.77959937  1
  O  O339  1  0.90834352  0.90589094  0.11860671  1
  O  O340  1  0.92119998  0.91418969  0.46280016  1
  O  O341  1  0.90445515  0.90923718  0.78663910  1
  O  O342  1  0.41744822  0.41065400  0.29379527  1
  O  O343  1  0.42063471  0.41167187  0.63059335  1
  O  O344  1  0.41700875  0.41219180  0.97294726  1
  O  O345  1  0.41580709  0.91609448  0.29647943  1
  O  O346  1  0.41113403  0.91466319  0.62251874  1
  O  O347  1  0.41534948  0.91419253  0.96203163  1
  O  O348  1  0.91323302  0.41879330  0.29847125  1
  O  O349  1  0.90302206  0.40772091  0.61855661  1
  O  O350  1  0.89597886  0.42653004  0.97399575  1
  O  O351  1  0.92197647  0.90053367  0.29021542  1
  O  O352  1  0.93887333  0.91180411  0.62764084  1
  O  O353  1  0.91311094  0.90226125  0.95612966  1
  O  O354  1  0.09544139  0.09460874  0.21110924  1
  O  O355  1  0.08405474  0.08480388  0.52791302  1
  O  O356  1  0.10354907  0.09362971  0.90495537  1
  O  O357  1  0.08886463  0.57969109  0.20366991  1
  O  O358  1  0.09082140  0.58338432  0.53745214  1
  O  O359  1  0.09887374  0.58983202  0.87835831  1
  O  O360  1  0.57907787  0.08230500  0.19662537  1
  O  O361  1  0.58222134  0.08285340  0.52527790  1
  O  O362  1  0.58732643  0.05912900  0.87139065  1
  O  O363  1  0.58367739  0.58334450  0.21471530  1
  O  O364  1  0.58915176  0.59043430  0.54118686  1
  O  O365  1  0.59079276  0.59641756  0.87808404  1
  O  O366  1  0.13526875  0.22715998  0.06887413  1
  O  O367  1  0.13631866  0.22713519  0.39486412  1
  O  O368  1  0.12239719  0.22014892  0.70657381  1
  O  O369  1  0.14479502  0.72227936  0.05826201  1
  O  O370  1  0.13468216  0.71046975  0.38642365  1
  O  O371  1  0.14345489  0.72031174  0.72190203  1
  O  O372  1  0.63314566  0.20923326  0.05482820  1
  O  O373  1  0.63785684  0.22149649  0.39448932  1
  O  O374  1  0.63904864  0.21646988  0.71137781  1
  O  O375  1  0.63628484  0.73540576  0.06771632  1
  O  O376  1  0.63942491  0.72675339  0.39767816  1
  O  O377  1  0.63550980  0.71720826  0.71784646  1
  O  O378  1  0.27709778  0.36175325  0.10914803  1
  O  O379  1  0.27606137  0.35975150  0.44184551  1
  O  O380  1  0.27572276  0.35541969  0.77352084  1
  O  O381  1  0.28657668  0.86214799  0.11194743  1
  O  O382  1  0.27887595  0.86383597  0.43914959  1
  O  O383  1  0.28929533  0.85931805  0.77767567  1
  O  O384  1  0.77325252  0.36301032  0.10914520  1
  O  O385  1  0.77775414  0.36569960  0.44287124  1
  O  O386  1  0.75833387  0.36742982  0.76234222  1
  O  O387  1  0.77525529  0.85807385  0.10031526  1
  O  O388  1  0.78729846  0.86273082  0.44400577  1
  O  O389  1  0.77306603  0.86205144  0.77712643  1
  O  O390  1  0.36057808  0.27900463  0.27382111  1
  O  O391  1  0.35898101  0.27897011  0.60129051  1
  O  O392  1  0.36782515  0.27549873  0.94853430  1
  O  O393  1  0.36214063  0.78296638  0.27898613  1
  O  O394  1  0.36102922  0.78228554  0.60912736  1
  O  O395  1  0.36395905  0.78166845  0.94882575  1
  O  O396  1  0.85660624  0.28491394  0.27512659  1
  O  O397  1  0.86163841  0.27582075  0.61107480  1
  O  O398  1  0.86222897  0.28639347  0.94739774  1
  O  O399  1  0.86325345  0.76859541  0.26784836  1
  O  O400  1  0.86886935  0.78452406  0.60651857  1
  O  O401  1  0.87031882  0.76705375  0.93946306  1
  O  O402  1  0.22895551  0.14207307  0.22865477  1
  O  O403  1  0.21884714  0.13897558  0.55419489  1
  O  O404  1  0.23170546  0.12942333  0.89844734  1
  O  O405  1  0.22178111  0.63455192  0.22291870  1
  O  O406  1  0.22562592  0.63612954  0.56005410  1
  O  O407  1  0.23209449  0.63752025  0.89350149  1
  O  O408  1  0.71539913  0.13852096  0.22981567  1
  O  O409  1  0.71701796  0.14240942  0.56024329  1
  O  O410  1  0.71420377  0.13394418  0.89724616  1
  O  O411  1  0.71376873  0.63435169  0.22356096  1
  O  O412  1  0.72231305  0.64454062  0.56189678  1
  O  O413  1  0.72266035  0.63727360  0.88136655  1
  O  O414  1  0.49941750  0.33066692  0.03084494  1
  O  O415  1  0.49190761  0.32912218  0.36116417  1
  O  O416  1  0.49080037  0.32319828  0.69115429  1
  O  O417  1  0.49288665  0.84290242  0.03732188  1
  O  O418  1  0.49235845  0.83927804  0.36630844  1
  O  O419  1  0.49500313  0.83933991  0.69082270  1
  O  O420  1  0.98694876  0.35415778  0.03800660  1
  O  O421  1  0.98682398  0.33818668  0.36594984  1
  O  O422  1  0.99062865  0.34388820  0.69757287  1
  O  O423  1  0.99778604  0.82969617  0.02725098  1
  O  O424  1  0.99319654  0.81705505  0.35786609  1
  O  O425  1  0.99970463  0.82443071  0.69612586  1
  O  O426  1  0.16889779  0.01591846  0.13471051  1
  O  O427  1  0.16476984  0.01028356  0.46027268  1
  O  O428  1  0.15407093  0.00677652  0.81201961  1
  O  O429  1  0.16820618  0.50294673  0.13645941  1
  O  O430  1  0.17094600  0.50557759  0.47250638  1
  O  O431  1  0.17218018  0.50761775  0.80625237  1
  O  O432  1  0.66827212  0.00807586  0.14010425  1
  O  O433  1  0.67519995  0.00952976  0.47444105  1
  O  O434  1  0.67400070  0.00518626  0.80162865  1
  O  O435  1  0.65528052  0.50010587  0.14217684  1
  O  O436  1  0.66831813  0.51442709  0.47175774  1
  O  O437  1  0.65262874  0.50977952  0.79911836  1
  O  O438  1  0.00633814  0.17564710  0.30413215  1
  O  O439  1  -0.00429233  0.15490266  0.62539379  1
  O  O440  1  0.00240077  0.18225809  0.98109585  1
  O  O441  1  0.00494980  0.65299984  0.29773753  1
  O  O442  1  0.01237056  0.66068612  0.63658889  1
  O  O443  1  0.01403221  0.66607971  0.97043916  1
  O  O444  1  0.50882014  0.16610478  0.30383215  1
  O  O445  1  0.50867377  0.15393553  0.62893634  1
  O  O446  1  0.49881625  0.15592304  0.97240049  1
  O  O447  1  0.50837810  0.67460236  0.30761664  1
  O  O448  1  0.50232885  0.66758750  0.63566692  1
  O  O449  1  0.50906940  0.67886588  0.97511418  1
  O  O450  1  0.33677738  0.48999187  0.20139570  1
  O  O451  1  0.33460203  0.48911341  0.53081580  1
  O  O452  1  0.33679048  0.48434613  0.86154565  1
  O  O453  1  0.33400263  0.99484797  0.19660962  1
  O  O454  1  0.32870889  0.99564225  0.52760618  1
  O  O455  1  0.32804894  0.99271430  0.86089386  1
  O  O456  1  0.82586534  0.49448259  0.19481899  1
  O  O457  1  0.83015752  0.49694241  0.53153452  1
  O  O458  1  0.81796101  0.49006192  0.86120160  1
  O  O459  1  0.83516293  0.98516951  0.19370811  1
  O  O460  1  0.84482602  0.99320636  0.53364593  1
  O  O461  1  0.83667239  0.98911871  0.86623144  1
