# generated using pymatgen
data_Na31Fe20(SO4)36
_symmetry_space_group_name_H-M   'P 1'
_cell_length_a   18.07471326
_cell_length_b   18.08105461
_cell_length_c   19.71796904
_cell_angle_alpha   107.58917550
_cell_angle_beta   107.59189960
_cell_angle_gamma   90.71391484
_symmetry_Int_Tables_number   1
_chemical_formula_structural   Na31Fe20(SO4)36
_chemical_formula_sum   'Na62 Fe40 S72 O288'
_cell_volume   5817.15434103
_cell_formula_units_Z   2
loop_
 _symmetry_equiv_pos_site_id
 _symmetry_equiv_pos_as_xyz
  1  'x, y, z'
loop_
 _atom_site_type_symbol
 _atom_site_label
 _atom_site_symmetry_multiplicity
 _atom_site_fract_x
 _atom_site_fract_y
 _atom_site_fract_z
 _atom_site_occupancy
  Na  Na0  1  0.13255317  0.36995358  0.08784509  1
  Na  Na1  1  0.13716459  0.36073993  0.41037846  1
  Na  Na2  1  0.12720688  0.37114531  0.74909318  1
  Na  Na3  1  0.14604520  0.83429577  0.06141875  1
  Na  Na4  1  0.13095439  0.86615703  0.41350144  1
  Na  Na5  1  0.13608774  0.86268755  0.75560515  1
  Na  Na6  1  0.61740498  0.37374726  0.08273951  1
  Na  Na7  1  0.63313594  0.37023721  0.41889894  1
  Na  Na8  1  0.64861742  0.37122680  0.76886222  1
  Na  Na9  1  0.63766109  0.87210564  0.08347513  1
  Na  Na10  1  0.63984752  0.86128259  0.42339070  1
  Na  Na11  1  0.63824906  0.86124520  0.73910317  1
  Na  Na12  1  0.35552259  0.14773583  0.25255033  1
  Na  Na13  1  0.36583550  0.13357047  0.58073091  1
  Na  Na14  1  0.37036746  0.13608791  0.92496217  1
  Na  Na15  1  0.35725093  0.62368416  0.23717744  1
  Na  Na16  1  0.36768936  0.64460662  0.58411052  1
  Na  Na17  1  0.37285861  0.63717647  0.92579879  1
  Na  Na18  1  0.85927300  0.12926480  0.24006189  1
  Na  Na19  1  0.86544040  0.13059479  0.58281440  1
  Na  Na20  1  0.86251728  0.12499886  0.90690321  1
  Na  Na21  1  0.86915185  0.63245820  0.25448167  1
  Na  Na22  1  0.87667043  0.64436256  0.60135200  1
  Na  Na23  1  0.85639637  0.63257509  0.91458215  1
  Na  Na24  1  0.98866335  -0.00665426  0.75728823  1
  Na  Na25  1  0.98334179  0.50546167  0.43369437  1
  Na  Na26  1  0.96499928  0.51116500  0.05136533  1
  Na  Na27  1  0.98695282  0.00560999  0.08817423  1
  Na  Na28  1  0.47663498  0.53273326  0.38980425  1
  Na  Na29  1  0.51269581  0.00240141  0.74927210  1
  Na  Na30  1  0.49569120  0.01816607  0.08257177  1
  Na  Na31  1  0.48824879  0.00591750  0.41765505  1
  Na  Na32  1  0.49078748  0.50606472  0.75311562  1
  Na  Na33  1  0.54598568  0.99257980  0.92415861  1
  Na  Na34  1  0.01969807  0.49009310  0.24513987  1
  Na  Na35  1  0.54249776  0.98971268  0.59002270  1
  Na  Na36  1  0.00933900  0.99208759  0.57509542  1
  Na  Na37  1  0.00072405  0.94018123  0.90874143  1
  Na  Na38  1  -0.01785401  0.54912302  0.85273832  1
  Na  Na39  1  0.50750876  0.99393537  0.24804078  1
  Na  Na40  1  0.00501351  0.98783703  0.26736484  1
  Na  Na41  1  0.49553513  0.52826267  0.56647272  1
  Na  Na42  1  0.25281472  0.25399732  0.66085734  1
  Na  Na43  1  0.76096018  0.75902172  0.64803157  1
  Na  Na44  1  0.75268592  0.75267307  -0.00142314  1
  Na  Na45  1  0.74724319  0.24037865  0.67640991  1
  Na  Na46  1  0.25966266  0.75387959  0.31970798  1
  Na  Na47  1  0.24324610  0.74482721  0.67522123  1
  Na  Na48  1  0.75164400  0.25048690  0.33445848  1
  Na  Na49  1  0.74046169  0.73797180  0.34597875  1
  Na  Na50  1  0.27102070  0.26826288  0.00142160  1
  Na  Na51  1  0.74161917  0.24105651  0.00541604  1
  Na  Na52  1  0.25766910  0.75516847  0.49519930  1
  Na  Na53  1  0.74421556  0.23973805  0.84026806  1
  Na  Na54  1  0.76681828  0.76023427  0.82117143  1
  Na  Na55  1  0.25997591  0.25921361  0.48620116  1
  Na  Na56  1  0.74631063  0.74592736  0.17166560  1
  Na  Na57  1  0.74933771  0.24949551  0.50120215  1
  Na  Na58  1  0.27789525  0.28283818  0.17239230  1
  Na  Na59  1  0.25466313  0.25647865  0.82922762  1
  Na  Na60  1  0.73734330  0.23856998  0.16807292  1
  Na  Na61  1  0.22667395  0.73534817  0.85540421  1
  Fe  Fe62  1  0.96174790  0.80789486  0.45209539  1
  Fe  Fe63  1  0.96706009  0.30690981  0.45679057  1
  Fe  Fe64  1  0.46464135  0.31316820  0.79068581  1
  Fe  Fe65  1  0.47107388  0.79982414  0.45401456  1
  Fe  Fe66  1  0.96587344  0.30473237  0.11711929  1
  Fe  Fe67  1  0.46764601  0.80588904  0.78397588  1
  Fe  Fe68  1  0.46148298  0.80492501  0.11557468  1
  Fe  Fe69  1  0.96697532  0.80395902  0.11806743  1
  Fe  Fe70  1  0.96511666  0.31394905  0.79165460  1
  Fe  Fe71  1  0.46389044  0.31083334  0.45292916  1
  Fe  Fe72  1  0.68834922  0.53583258  0.37895368  1
  Fe  Fe73  1  0.69120227  0.03476727  0.38069510  1
  Fe  Fe74  1  0.18847561  0.53473165  0.71388026  1
  Fe  Fe75  1  0.20055680  0.53062075  0.37598412  1
  Fe  Fe76  1  0.19809303  0.03351577  0.71717211  1
  Fe  Fe77  1  0.68922637  0.53216947  0.71250247  1
  Fe  Fe78  1  0.69854115  0.52905543  0.04286267  1
  Fe  Fe79  1  0.19242326  0.03265601  0.05087232  1
  Fe  Fe80  1  0.18556743  0.53888454  0.04456083  1
  Fe  Fe81  1  0.19557577  0.03417848  0.38185395  1
  Fe  Fe82  1  0.53082895  0.20231949  0.21334120  1
  Fe  Fe83  1  0.03807252  0.19087199  0.88300166  1
  Fe  Fe84  1  0.03488461  0.69723898  0.54952469  1
  Fe  Fe85  1  0.03397692  0.69124155  0.21237812  1
  Fe  Fe86  1  0.53599691  0.69354239  0.88145804  1
  Fe  Fe87  1  0.53240849  0.68528342  0.20620406  1
  Fe  Fe88  1  0.53233914  0.19487779  0.88471277  1
  Fe  Fe89  1  0.03527540  0.18871620  0.54658156  1
  Fe  Fe90  1  0.53391384  0.19508866  0.54976294  1
  Fe  Fe91  1  0.03961394  0.18888008  0.21546556  1
  Fe  Fe92  1  0.30430770  0.46818199  0.61822961  1
  Fe  Fe93  1  0.30653650  0.96271707  0.27889849  1
  Fe  Fe94  1  0.80889964  0.46473888  0.62280535  1
  Fe  Fe95  1  0.80556194  0.96628302  0.28653781  1
  Fe  Fe96  1  0.79757890  0.97052744  0.95477717  1
  Fe  Fe97  1  0.30961021  0.96666469  0.95338827  1
  Fe  Fe98  1  0.80032855  0.96687929  0.62203656  1
  Fe  Fe99  1  0.80733695  0.46273732  0.28654282  1
  Fe  Fe100  1  0.30953902  0.96680884  0.61978255  1
  Fe  Fe101  1  0.31069109  0.46667629  0.95908365  1
  S  S102  1  0.35713542  0.13772270  0.08863470  1
  S  S103  1  0.36177831  0.13897328  0.41782225  1
  S  S104  1  0.35922588  0.14163646  0.74898165  1
  S  S105  1  0.35573388  0.64344487  0.08087351  1
  S  S106  1  0.35629511  0.64318995  0.41512265  1
  S  S107  1  0.35987230  0.64160158  0.75170265  1
  S  S108  1  0.86338276  0.14059578  0.08520085  1
  S  S109  1  0.85990267  0.13985896  0.41793977  1
  S  S110  1  0.86589527  0.14089294  0.74810704  1
  S  S111  1  0.85710373  0.64420558  0.08690382  1
  S  S112  1  0.86056242  0.63715451  0.41768845  1
  S  S113  1  0.85133115  0.63884659  0.74791355  1
  S  S114  1  0.13668340  0.35806638  0.25099307  1
  S  S115  1  0.14126817  0.35706859  0.58147248  1
  S  S116  1  0.14008664  0.35684857  0.91744256  1
  S  S117  1  0.13994312  0.86000176  0.25150334  1
  S  S118  1  0.14266082  0.86203978  0.58211542  1
  S  S119  1  0.14471032  0.86336383  0.91663501  1
  S  S120  1  0.64605023  0.35930099  0.25245545  1
  S  S121  1  0.64168651  0.35677381  0.58775739  1
  S  S122  1  0.64089621  0.35735163  0.91794573  1
  S  S123  1  0.63664674  0.85936569  0.24841511  1
  S  S124  1  0.64002196  0.85787644  0.58215994  1
  S  S125  1  0.64142916  0.85627582  0.91400899  1
  S  S126  1  0.07052044  0.16509623  0.04397393  1
  S  S127  1  0.06747160  0.16771258  0.37775490  1
  S  S128  1  0.07215973  0.16506475  0.70747291  1
  S  S129  1  0.05614063  0.66069325  0.03834630  1
  S  S130  1  0.06839638  0.67160893  0.37847657  1
  S  S131  1  0.07419150  0.67150268  0.70872385  1
  S  S132  1  0.56263321  0.16635240  0.04416212  1
  S  S133  1  0.56510046  0.16915386  0.37617280  1
  S  S134  1  0.55982791  0.17106064  0.70995368  1
  S  S135  1  0.57430640  0.67487362  0.04555618  1
  S  S136  1  0.56560082  0.66997443  0.36959571  1
  S  S137  1  0.56317620  0.66783283  0.70917508  1
  S  S138  1  0.32130249  0.43483636  0.11605721  1
  S  S139  1  0.33180131  0.43726664  0.46331446  1
  S  S140  1  0.32560003  0.43400014  0.78828312  1
  S  S141  1  0.33559895  0.93494043  0.12849205  1
  S  S142  1  0.33312910  0.93400186  0.45676133  1
  S  S143  1  0.33712104  0.93586608  0.79281810  1
  S  S144  1  0.83385644  0.43223279  0.12691694  1
  S  S145  1  0.83217827  0.43114303  0.45990927  1
  S  S146  1  0.83060875  0.43298524  0.79133454  1
  S  S147  1  0.83370094  0.93264302  0.12782058  1
  S  S148  1  0.82666925  0.93285023  0.45489155  1
  S  S149  1  0.82814909  0.93593942  0.78848805  1
  S  S150  1  0.44020434  0.33459961  0.29852380  1
  S  S151  1  0.43202980  0.33189028  0.62579723  1
  S  S152  1  0.42830395  0.32597508  0.95232146  1
  S  S153  1  0.43337340  0.83101692  0.29137317  1
  S  S154  1  0.43337369  0.83698628  0.62577035  1
  S  S155  1  0.43457026  0.83333027  0.95642906  1
  S  S156  1  0.93081297  0.32571956  0.29295722  1
  S  S157  1  0.93079149  0.32275892  0.62161712  1
  S  S158  1  0.93285453  0.32221591  0.95388397  1
  S  S159  1  0.93172994  0.83088070  0.29202543  1
  S  S160  1  0.93867013  0.84008698  0.62442984  1
  S  S161  1  0.92541072  0.83412500  0.96185972  1
  S  S162  1  0.16865319  0.06391320  0.21121598  1
  S  S163  1  0.17182340  0.06572520  0.54321257  1
  S  S164  1  0.17290679  0.06950634  0.87675671  1
  S  S165  1  0.15714152  0.56557631  0.20519190  1
  S  S166  1  0.17306066  0.56970337  0.54029460  1
  S  S167  1  0.17735183  0.56574184  0.87802826  1
  S  S168  1  0.66506344  0.06618373  0.21137751  1
  S  S169  1  0.66663976  0.06863010  0.53978049  1
  S  S170  1  0.66640999  0.06469710  0.87284287  1
  S  S171  1  0.67716481  0.56907583  0.21059056  1
  S  S172  1  0.67160545  0.56142935  0.54196182  1
  S  S173  1  0.66533986  0.56772172  0.87579341  1
  O  O174  1  0.35880772  0.21522455  0.08087058  1
  O  O175  1  0.37116330  0.21957119  0.41553257  1
  O  O176  1  0.36554690  0.22122142  0.74178539  1
  O  O177  1  0.36848836  0.72042571  0.06969613  1
  O  O178  1  0.36597098  0.72829035  0.41921068  1
  O  O179  1  0.37075211  0.71875164  0.73979343  1
  O  O180  1  0.87438579  0.21913064  0.07543315  1
  O  O181  1  0.86912643  0.22054799  0.41337544  1
  O  O182  1  0.88405507  0.21677923  0.73608801  1
  O  O183  1  0.86549706  0.72668932  0.08548567  1
  O  O184  1  0.86990633  0.71412379  0.40547448  1
  O  O185  1  0.85486017  0.71338076  0.73334090  1
  O  O186  1  0.28156909  0.12091412  0.10134481  1
  O  O187  1  0.28439503  0.12909542  0.42920722  1
  O  O188  1  0.28006481  0.13104276  0.75700211  1
  O  O189  1  0.27759965  0.63448218  0.08844000  1
  O  O190  1  0.27412274  0.63357182  0.41878520  1
  O  O191  1  0.27955765  0.63359943  0.75542052  1
  O  O192  1  0.78992465  0.13526999  0.10058482  1
  O  O193  1  0.78121907  0.13115808  0.42725520  1
  O  O194  1  0.79017999  0.14286917  0.76034695  1
  O  O195  1  0.77740697  0.63331389  0.09331632  1
  O  O196  1  0.78032762  0.62726394  0.42059812  1
  O  O197  1  0.76952340  0.62509394  0.75258491  1
  O  O198  1  0.12166188  0.28196810  0.26288638  1
  O  O199  1  0.13145184  0.27683882  0.58721310  1
  O  O200  1  0.13210957  0.27871746  0.92838727  1
  O  O201  1  0.12900923  0.78360020  0.26408398  1
  O  O202  1  0.13402650  0.78246094  0.58803416  1
  O  O203  1  0.14081761  0.78725990  0.92689049  1
  O  O204  1  0.63606688  0.27962344  0.26093389  1
  O  O205  1  0.63190486  0.27738987  0.59592971  1
  O  O206  1  0.62771959  0.27800668  0.92645485  1
  O  O207  1  0.62981459  0.77933815  0.25384201  1
  O  O208  1  0.63404575  0.78031259  0.58899972  1
  O  O209  1  0.63326232  0.77582020  0.91952460  1
  O  O210  1  0.21111688  0.36415760  0.23891101  1
  O  O211  1  0.22189133  0.36633261  0.57623035  1
  O  O212  1  0.21988867  0.36489602  0.91062019  1
  O  O213  1  0.22130986  0.86959024  0.25088554  1
  O  O214  1  0.22020920  0.87121686  0.57099253  1
  O  O215  1  0.22411286  0.87798706  0.90780834  1
  O  O216  1  0.72947018  0.36460819  0.25027683  1
  O  O217  1  0.72061135  0.36359886  0.57916913  1
  O  O218  1  0.71550250  0.36185918  0.90423621  1
  O  O219  1  0.71465127  0.87136686  0.23893576  1
  O  O220  1  0.71775271  0.87289147  0.57155899  1
  O  O221  1  0.72058881  0.86644390  0.90645184  1
  O  O222  1  0.42079587  0.12957974  0.15423527  1
  O  O223  1  0.42294619  0.12582395  0.48288296  1
  O  O224  1  0.41807568  0.13144794  0.81549070  1
  O  O225  1  0.41529180  0.63966766  0.15085587  1
  O  O226  1  0.41169486  0.62761982  0.47991876  1
  O  O227  1  0.41684737  0.63685004  0.82231735  1
  O  O228  1  0.92836217  0.12959495  0.14961002  1
  O  O229  1  0.91914173  0.12923970  0.48435853  1
  O  O230  1  0.92693174  0.12707447  0.81273210  1
  O  O231  1  0.91509351  0.63592230  0.15613909  1
  O  O232  1  0.91841292  0.63271191  0.48816784  1
  O  O233  1  0.90648245  0.63741650  0.81883813  1
  O  O234  1  0.36619207  0.07848346  0.01965611  1
  O  O235  1  0.36732610  0.08193960  0.34767279  1
  O  O236  1  0.36638315  0.08437931  0.67959443  1
  O  O237  1  0.36659651  0.58205255  0.01542154  1
  O  O238  1  0.36329878  0.59322421  0.34418527  1
  O  O239  1  0.37197200  0.57956493  0.68718177  1
  O  O240  1  0.86723987  0.08127394  0.01528399  1
  O  O241  1  0.86521818  0.08369097  0.34756431  1
  O  O242  1  0.86686560  0.07847612  0.67820777  1
  O  O243  1  0.86628745  0.58920444  0.01953229  1
  O  O244  1  0.87442446  0.57561136  0.35342262  1
  O  O245  1  0.86331117  0.57605156  0.68317100  1
  O  O246  1  0.07283646  0.36821745  0.18497058  1
  O  O247  1  0.08433945  0.36443432  0.51208509  1
  O  O248  1  0.08304934  0.35883928  0.84523006  1
  O  O249  1  0.08423431  0.86423925  0.18055025  1
  O  O250  1  0.08124589  0.87342864  0.51700586  1
  O  O251  1  0.08536168  0.87373198  0.85162063  1
  O  O252  1  0.59223276  0.36825753  0.18568361  1
  O  O253  1  0.58305088  0.36415592  0.51971320  1
  O  O254  1  0.57798241  0.36802067  0.85296611  1
  O  O255  1  0.57541986  0.86974967  0.18247578  1
  O  O256  1  0.57973822  0.86598314  0.51197239  1
  O  O257  1  0.58293768  0.86430591  0.84462569  1
  O  O258  1  0.13022595  0.42010169  0.31925292  1
  O  O259  1  0.13280069  0.41465204  0.64910975  1
  O  O260  1  0.12724987  0.41715791  0.98101372  1
  O  O261  1  0.12659710  0.92249443  0.31613717  1
  O  O262  1  0.13846764  0.91998329  0.65247736  1
  O  O263  1  0.13685482  0.92358798  0.98667915  1
  O  O264  1  0.64118217  0.41757556  0.32259461  1
  O  O265  1  0.63376325  0.41490378  0.65601345  1
  O  O266  1  0.63813179  0.41575935  0.98860430  1
  O  O267  1  0.62941489  0.91699831  0.31791954  1
  O  O268  1  0.62856241  0.91817474  0.64651288  1
  O  O269  1  0.63152061  0.91327203  0.98029865  1
  O  O270  1  0.03534504  0.19963667  0.10548813  1
  O  O271  1  0.02886019  0.19618778  0.43739841  1
  O  O272  1  0.04176121  0.19484769  0.77125725  1
  O  O273  1  0.02632447  0.69767685  0.10572321  1
  O  O274  1  0.03028086  0.70073206  0.43874210  1
  O  O275  1  0.04189259  0.68814098  0.76906027  1
  O  O276  1  0.53039934  0.20014366  0.10586432  1
  O  O277  1  0.53172721  0.19991085  0.43925880  1
  O  O278  1  0.52578527  0.20746881  0.77174857  1
  O  O279  1  0.53322012  0.70352655  0.10390315  1
  O  O280  1  0.52661015  0.69729650  0.42720644  1
  O  O281  1  0.52903929  0.69942158  0.77320160  1
  O  O282  1  0.28255270  0.47408340  0.05518366  1
  O  O283  1  0.30231093  0.47065775  0.40230143  1
  O  O284  1  0.29320377  0.47139776  0.72759317  1
  O  O285  1  0.30179905  0.96479361  0.06394694  1
  O  O286  1  0.30318465  0.97092703  0.39596056  1
  O  O287  1  0.30583677  0.97203693  0.73114912  1
  O  O288  1  0.80499507  0.47149831  0.07011036  1
  O  O289  1  0.80441052  0.46817052  0.39954087  1
  O  O290  1  0.79473522  0.46290719  0.72579947  1
  O  O291  1  0.80977199  0.96747453  0.06767184  1
  O  O292  1  0.79884283  0.97037590  0.39366323  1
  O  O293  1  0.79856195  0.97353158  0.72984685  1
  O  O294  1  0.47610111  0.30063689  0.23905275  1
  O  O295  1  0.46846577  0.30218751  0.56484566  1
  O  O296  1  0.46303693  0.29318041  0.88845941  1
  O  O297  1  0.46779609  0.80209387  0.22923191  1
  O  O298  1  0.46651542  0.81381198  0.56459622  1
  O  O299  1  0.47283288  0.80484445  0.89634051  1
  O  O300  1  0.96290721  0.29703905  0.22955510  1
  O  O301  1  0.97185263  0.29430402  0.56290814  1
  O  O302  1  0.97067592  0.28880082  0.89280312  1
  O  O303  1  0.97069466  0.80251393  0.23311628  1
  O  O304  1  0.96913334  0.80360200  0.55793997  1
  O  O305  1  0.95557463  0.81412171  0.89942249  1
  O  O306  1  0.20338756  0.02939356  0.27378148  1
  O  O307  1  0.20403453  0.03047920  0.60492216  1
  O  O308  1  0.20344164  0.03802991  0.94063710  1
  O  O309  1  0.17769738  0.52977610  0.26551715  1
  O  O310  1  0.20037938  0.53097357  0.60012314  1
  O  O311  1  0.20690344  0.52344640  0.93565510  1
  O  O312  1  0.69752606  0.03435504  0.27700436  1
  O  O313  1  0.69664694  0.03485005  0.60014303  1
  O  O314  1  0.69743377  0.03383487  0.93690296  1
  O  O315  1  0.70441313  0.52980175  0.27040306  1
  O  O316  1  0.69958778  0.51957639  0.60024049  1
  O  O317  1  0.68790807  0.53266028  0.93608969  1
  O  O318  1  0.08304791  0.08248154  0.04193670  1
  O  O319  1  0.08876455  0.08734769  0.37468139  1
  O  O320  1  0.08944011  0.08203591  0.69976380  1
  O  O321  1  0.07552400  0.57996325  0.03991753  1
  O  O322  1  0.08626983  0.59027396  0.37266350  1
  O  O323  1  0.09468783  0.58921709  0.68690668  1
  O  O324  1  0.57281533  0.08358759  0.03703115  1
  O  O325  1  0.57898691  0.08535942  0.36956680  1
  O  O326  1  0.56557088  0.08829565  0.70263209  1
  O  O327  1  0.60012764  0.59860995  0.04626685  1
  O  O328  1  0.58604082  0.58919211  0.36752776  1
  O  O329  1  0.58079729  0.58527588  0.70576050  1
  O  O330  1  0.39068313  0.40568317  0.10040682  1
  O  O331  1  0.41361750  0.41732486  0.46934625  1
  O  O332  1  0.40539356  0.41502775  0.78665902  1
  O  O333  1  0.41802859  0.91813184  0.13071263  1
  O  O334  1  0.41529703  0.91819187  0.46260229  1
  O  O335  1  0.41977545  0.92045005  0.79859206  1
  O  O336  1  0.91609552  0.41383111  0.13024299  1
  O  O337  1  0.91306731  0.41060535  0.46210052  1
  O  O338  1  0.91207993  0.41517564  0.79089394  1
  O  O339  1  0.91796369  0.91591322  0.14151466  1
  O  O340  1  0.90932523  0.91672648  0.46303139  1
  O  O341  1  0.91120180  0.92540148  0.79782616  1
  O  O342  1  0.42553330  0.41454820  0.30358582  1
  O  O343  1  0.41191625  0.41275004  0.63019934  1
  O  O344  1  0.39835712  0.40018246  0.94378097  1
  O  O345  1  0.41728620  0.91492388  0.29710298  1
  O  O346  1  0.41635585  0.92129068  0.63882251  1
  O  O347  1  0.41969122  0.91666847  0.96401153  1
  O  O348  1  0.91540077  0.40894896  0.30289290  1
  O  O349  1  0.90749831  0.40043760  0.62231250  1
  O  O350  1  0.91438285  0.40005140  0.95431309  1
  O  O351  1  0.91301097  0.91199203  0.29626504  1
  O  O352  1  0.91223140  0.91778508  0.61910282  1
  O  O353  1  0.90505580  0.91801229  0.97634210  1
  O  O354  1  0.08504234  0.07556816  0.20751254  1
  O  O355  1  0.09045745  0.08199846  0.54022395  1
  O  O356  1  0.08956953  0.08396617  0.86791563  1
  O  O357  1  0.07143464  0.57982083  0.19168821  1
  O  O358  1  0.09151374  0.58906856  0.53211578  1
  O  O359  1  0.10459283  0.59455127  0.88407882  1
  O  O360  1  0.58484334  0.08854366  0.21109111  1
  O  O361  1  0.58323352  0.08512969  0.53455414  1
  O  O362  1  0.58570498  0.08891582  0.87393319  1
  O  O363  1  0.59784569  0.59035722  0.20577724  1
  O  O364  1  0.58984755  0.57456244  0.53310715  1
  O  O365  1  0.58236634  0.58712308  0.86304109  1
  O  O366  1  0.14350978  0.21255124  0.05804212  1
  O  O367  1  0.13683227  0.22169293  0.39445001  1
  O  O368  1  0.14233357  0.21598638  0.71797840  1
  O  O369  1  0.12597574  0.70870513  0.04833797  1
  O  O370  1  0.13832074  0.72590385  0.39600536  1
  O  O371  1  0.14595729  0.72651390  0.72662473  1
  O  O372  1  0.63681199  0.21334508  0.05697632  1
  O  O373  1  0.63907135  0.21722151  0.39236537  1
  O  O374  1  0.63566160  0.21631827  0.72618152  1
  O  O375  1  0.64090024  0.73393821  0.06237236  1
  O  O376  1  0.63591018  0.72249877  0.38495753  1
  O  O377  1  0.63419763  0.71904638  0.72485754  1
  O  O378  1  0.26227837  0.36787668  0.10225782  1
  O  O379  1  0.28020059  0.36853919  0.45386977  1
  O  O380  1  0.27347179  0.36177020  0.77075489  1
  O  O381  1  0.28752633  0.86728588  0.12387218  1
  O  O382  1  0.28049298  0.86269768  0.43917790  1
  O  O383  1  0.28669226  0.86389448  0.77586303  1
  O  O384  1  0.78276422  0.36071697  0.11224685  1
  O  O385  1  0.77928554  0.35986339  0.44353898  1
  O  O386  1  0.78276831  0.35931544  0.77802833  1
  O  O387  1  0.78166164  0.86153175  0.11212041  1
  O  O388  1  0.77539079  0.86073272  0.43484069  1
  O  O389  1  0.77896120  0.86090011  0.76823685  1
  O  O390  1  0.36870782  0.28319456  0.28478634  1
  O  O391  1  0.36130969  0.27795033  0.60848032  1
  O  O392  1  0.36069107  0.26813665  0.93708900  1
  O  O393  1  0.36242738  0.78156289  0.27808067  1
  O  O394  1  0.36118018  0.78631379  0.61076735  1
  O  O395  1  0.36297312  0.78240267  0.93801240  1
  O  O396  1  0.85960687  0.27412540  0.27864630  1
  O  O397  1  0.86195113  0.26594374  0.60274454  1
  O  O398  1  0.86390601  0.26713907  0.93895629  1
  O  O399  1  0.86088713  0.77844601  0.27572083  1
  O  O400  1  0.87365749  0.78634512  0.61741335  1
  O  O401  1  0.85571203  0.78089245  0.94973050  1
  O  O402  1  0.21406761  0.13738943  0.22551887  1
  O  O403  1  0.22229448  0.13751522  0.55781788  1
  O  O404  1  0.22235305  0.14104971  0.88926692  1
  O  O405  1  0.20680535  0.63879449  0.22468973  1
  O  O406  1  0.22680678  0.64121937  0.56029017  1
  O  O407  1  0.23812037  0.62789318  0.89055910  1
  O  O408  1  0.71861503  0.13614229  0.22577443  1
  O  O409  1  0.71570698  0.14080699  0.55217899  1
  O  O410  1  0.71851880  0.13508714  0.88485373  1
  O  O411  1  0.73284714  0.63994272  0.23159220  1
  O  O412  1  0.72510887  0.63224299  0.56305232  1
  O  O413  1  0.71867557  0.63828736  0.89273242  1
  O  O414  1  0.48906302  0.33651250  0.02241071  1
  O  O415  1  0.49900025  0.33399833  0.37293210  1
  O  O416  1  0.49111584  0.33644043  0.69891107  1
  O  O417  1  0.49293535  0.83387420  0.02909952  1
  O  O418  1  0.49393216  0.83510217  0.36391909  1
  O  O419  1  0.49324178  0.83588184  0.69734041  1
  O  O420  1  0.99314437  0.32459735  0.02678596  1
  O  O421  1  0.99194008  0.32558082  0.36398330  1
  O  O422  1  0.98932411  0.32601732  0.69456043  1
  O  O423  1  0.98852457  0.83547154  0.03358933  1
  O  O424  1  0.98996898  0.83313862  0.36550854  1
  O  O425  1  1.00484725  0.85654213  0.69369463  1
  O  O426  1  0.16748262  0.00309611  0.14024180  1
  O  O427  1  0.17034025  0.00640324  0.47109299  1
  O  O428  1  0.17257297  0.00761560  0.80585843  1
  O  O429  1  0.16198421  0.50828353  0.13487632  1
  O  O430  1  0.17300732  0.51111928  0.46840065  1
  O  O431  1  0.16472018  0.50566983  0.80164955  1
  O  O432  1  0.65846795  0.00410819  0.14211493  1
  O  O433  1  0.66100403  0.00912626  0.46529624  1
  O  O434  1  0.65337636  0.00325963  0.80086538  1
  O  O435  1  0.67747858  0.51151239  0.13869496  1
  O  O436  1  0.67517439  0.50513860  0.46909941  1
  O  O437  1  0.66536950  0.50769464  0.80395511  1
  O  O438  1  0.00810139  0.16184929  0.30398693  1
  O  O439  1  0.00985022  0.16127077  0.63546417  1
  O  O440  1  0.01138468  0.16187837  0.97094751  1
  O  O441  1  0.00956306  0.67009186  0.30563721  1
  O  O442  1  0.01480822  0.67874669  0.63800987  1
  O  O443  1  -0.00918985  0.65219835  0.97012308  1
  O  O444  1  0.50629506  0.16927151  0.30514939  1
  O  O445  1  0.50361437  0.17571149  0.63753530  1
  O  O446  1  0.50448667  0.16853566  0.97139727  1
  O  O447  1  0.50746307  0.66438494  0.29491774  1
  O  O448  1  0.50178811  0.66289941  0.63905428  1
  O  O449  1  0.51466886  0.66944651  0.97203682  1
  O  O450  1  0.33289851  0.49308726  0.18884840  1
  O  O451  1  0.33964707  0.49963558  0.53766792  1
  O  O452  1  0.33006634  0.49098545  0.86131563  1
  O  O453  1  0.34378439  1.00016213  0.20056042  1
  O  O454  1  0.33346899  0.99250009  0.52921303  1
  O  O455  1  0.33731384  0.99514913  0.86446939  1
  O  O456  1  0.84142567  0.48926830  0.20344330  1
  O  O457  1  0.83638313  0.48919730  0.53267829  1
  O  O458  1  0.83611056  0.49435869  0.86074627  1
  O  O459  1  0.83219619  0.99234960  0.20003719  1
  O  O460  1  0.82399584  0.99152540  0.52550118  1
  O  O461  1  0.82326720  0.98962650  0.86200925  1
