# generated using pymatgen
data_Na31Fe20(SO4)36
_symmetry_space_group_name_H-M   'P 1'
_cell_length_a   18.08974754
_cell_length_b   18.09859104
_cell_length_c   19.71310649
_cell_angle_alpha   107.58859287
_cell_angle_beta   107.57871190
_cell_angle_gamma   90.75908642
_symmetry_Int_Tables_number   1
_chemical_formula_structural   Na31Fe20(SO4)36
_chemical_formula_sum   'Na62 Fe40 S72 O288'
_cell_volume   5826.11669889
_cell_formula_units_Z   2
loop_
 _symmetry_equiv_pos_site_id
 _symmetry_equiv_pos_as_xyz
  1  'x, y, z'
loop_
 _atom_site_type_symbol
 _atom_site_label
 _atom_site_symmetry_multiplicity
 _atom_site_fract_x
 _atom_site_fract_y
 _atom_site_fract_z
 _atom_site_occupancy
  Na  Na0  1  0.13058217  0.36841924  0.08273052  1
  Na  Na1  1  0.13258941  0.36898710  0.41663319  1
  Na  Na2  1  0.12855581  0.37266339  0.74977736  1
  Na  Na3  1  0.12240952  0.87134585  0.08025532  1
  Na  Na4  1  0.13075529  0.86486389  0.41214311  1
  Na  Na5  1  0.12871695  0.87010784  0.74894249  1
  Na  Na6  1  0.64350007  0.36834432  0.08915537  1
  Na  Na7  1  0.64042533  0.36524543  0.42085182  1
  Na  Na8  1  0.65869491  0.37361627  0.76575376  1
  Na  Na9  1  0.62886403  0.83412095  0.06879849  1
  Na  Na10  1  0.62474306  0.84612863  0.39469183  1
  Na  Na11  1  0.64213928  0.85760802  0.75894648  1
  Na  Na12  1  0.37049558  0.12753465  0.25142123  1
  Na  Na13  1  0.37241144  0.12765808  0.58520744  1
  Na  Na14  1  0.37269917  0.13273253  0.91796513  1
  Na  Na15  1  0.36774825  0.63842626  0.24745084  1
  Na  Na16  1  0.37927299  0.64079639  0.60467373  1
  Na  Na17  1  0.38544577  0.65877800  0.93732746  1
  Na  Na18  1  0.86644312  0.12855417  0.24371004  1
  Na  Na19  1  0.85925860  0.13989089  0.59168481  1
  Na  Na20  1  0.84198276  0.13368940  0.89977193  1
  Na  Na21  1  0.84842296  0.63333360  0.23948745  1
  Na  Na22  1  0.86815454  0.63777013  0.58899642  1
  Na  Na23  1  0.82329274  0.62217966  0.88143992  1
  Na  Na24  1  0.92726380  0.50094477  0.04870656  1
  Na  Na25  1  0.49896919  0.56476727  0.09658063  1
  Na  Na26  1  0.51380770  -0.00629299  0.40859295  1
  Na  Na27  1  0.54758010  -0.02342170  0.69811189  1
  Na  Na28  1  0.98946176  0.01008739  0.40643487  1
  Na  Na29  1  0.54840874  0.67353563  0.86170482  1
  Na  Na30  1  0.48856182  0.51464110  0.42035604  1
  Na  Na31  1  0.51469984  -0.05143384  0.12564619  1
  Na  Na32  1  0.95031520  0.50892206  0.40663512  1
  Na  Na33  1  -0.00798240  0.49854703  0.60856081  1
  Na  Na34  1  0.51054483  0.49405152  0.90367703  1
  Na  Na35  1  -0.01153445  0.99826928  0.93131851  1
  Na  Na36  1  -0.00475870  0.50179993  0.24897694  1
  Na  Na37  1  0.50467048  0.95329438  0.89146850  1
  Na  Na38  1  0.57847269  0.50152948  0.62340565  1
  Na  Na39  1  0.51832906  0.49654706  0.24441603  1
  Na  Na40  1  -0.01854869  1.00207060  0.60743099  1
  Na  Na41  1  -0.00660866  0.51456544  0.90567075  1
  Na  Na42  1  0.74450741  0.73153437  0.68540273  1
  Na  Na43  1  0.26123976  0.76585862  -0.00713802  1
  Na  Na44  1  0.25237512  0.25070215  0.66340529  1
  Na  Na45  1  0.26062726  0.76109536  0.65848123  1
  Na  Na46  1  0.25315119  0.25277667  -0.00008190  1
  Na  Na47  1  0.75964420  0.26223268  0.32383071  1
  Na  Na48  1  0.74552121  0.74760021  -0.00656758  1
  Na  Na49  1  0.25439966  0.75588929  0.32581249  1
  Na  Na50  1  0.25206848  0.25133580  0.33278833  1
  Na  Na51  1  0.74741503  0.75858664  0.31351309  1
  Na  Na52  1  0.75680351  0.25345751  0.82312048  1
  Na  Na53  1  0.27356629  0.76589612  0.82488540  1
  Na  Na54  1  0.25936547  0.75845904  0.49599948  1
  Na  Na55  1  0.25312254  0.25469514  0.49838422  1
  Na  Na56  1  0.74033859  0.74125129  0.49989440  1
  Na  Na57  1  0.74102198  0.23711985  0.50950216  1
  Na  Na58  1  0.25045216  0.25316130  0.16709889  1
  Na  Na59  1  0.26474427  0.76404522  0.15643124  1
  Na  Na60  1  0.76358537  0.26370975  0.15261858  1
  Na  Na61  1  0.25284524  0.25487572  0.83268977  1
  Fe  Fe62  1  0.46761048  0.80459134  0.45260800  1
  Fe  Fe63  1  0.96322067  0.81381862  0.45460795  1
  Fe  Fe64  1  0.96492773  0.30705887  0.45000306  1
  Fe  Fe65  1  0.46616641  0.30889918  0.45790634  1
  Fe  Fe66  1  0.96359259  0.80713627  0.78640094  1
  Fe  Fe67  1  0.46775289  0.30576463  0.78907455  1
  Fe  Fe68  1  0.96246865  0.30648175  0.11251007  1
  Fe  Fe69  1  0.46609691  0.30665414  0.11990840  1
  Fe  Fe70  1  0.96629376  0.30497833  0.78379127  1
  Fe  Fe71  1  0.95835125  0.81148495  0.11947626  1
  Fe  Fe72  1  0.19200412  0.03651729  0.71405858  1
  Fe  Fe73  1  0.18986076  0.03466622  0.37950653  1
  Fe  Fe74  1  0.70184160  0.52884167  0.37248137  1
  Fe  Fe75  1  0.69228646  0.03582071  0.04592235  1
  Fe  Fe76  1  0.68945252  0.03475840  0.37820457  1
  Fe  Fe77  1  0.70280156  0.52549118  0.04027495  1
  Fe  Fe78  1  0.18917409  0.53632900  0.38245912  1
  Fe  Fe79  1  0.19151784  0.03660817  0.04875110  1
  Fe  Fe80  1  0.19230136  0.53479459  0.71611251  1
  Fe  Fe81  1  0.18605410  0.53578339  0.04722449  1
  Fe  Fe82  1  0.53284528  0.18519524  0.21021898  1
  Fe  Fe83  1  0.53768182  0.18920593  0.55122583  1
  Fe  Fe84  1  0.03805065  0.18754404  0.87860243  1
  Fe  Fe85  1  0.03487198  0.69497763  0.88263698  1
  Fe  Fe86  1  0.03377487  0.19437485  0.54749083  1
  Fe  Fe87  1  0.03211289  0.18922106  0.21047863  1
  Fe  Fe88  1  0.03028665  0.69332454  0.21204606  1
  Fe  Fe89  1  0.54034484  0.17948279  0.87626457  1
  Fe  Fe90  1  0.03332424  0.69617400  0.54865032  1
  Fe  Fe91  1  0.54056983  0.69004963  0.55055128  1
  Fe  Fe92  1  0.30256797  0.46687545  0.28690564  1
  Fe  Fe93  1  0.31019640  0.96854213  0.95740528  1
  Fe  Fe94  1  0.80556320  0.46424611  0.62536055  1
  Fe  Fe95  1  0.31245352  0.46618193  0.62586284  1
  Fe  Fe96  1  0.80213900  0.96234914  0.28053219  1
  Fe  Fe97  1  0.30489441  0.96561969  0.28872128  1
  Fe  Fe98  1  0.31415293  0.96334963  0.62469917  1
  Fe  Fe99  1  0.80547337  0.96529397  0.95216754  1
  Fe  Fe100  1  0.79825981  0.96717942  0.62476371  1
  Fe  Fe101  1  0.30636590  0.46947668  0.95582074  1
  S  S102  1  0.35666100  0.14471636  0.08513316  1
  S  S103  1  0.35880994  0.14138258  0.42041254  1
  S  S104  1  0.35886984  0.14185584  0.75061218  1
  S  S105  1  0.35096839  0.64133514  0.08314612  1
  S  S106  1  0.35615126  0.63903837  0.41698405  1
  S  S107  1  0.35328541  0.64050557  0.75292881  1
  S  S108  1  0.85938905  0.14052539  0.07992130  1
  S  S109  1  0.85904754  0.13961788  0.41393042  1
  S  S110  1  0.86747869  0.13494199  0.74921721  1
  S  S111  1  0.85611668  0.64752188  0.08430885  1
  S  S112  1  0.86060116  0.64841652  0.41836391  1
  S  S113  1  0.86780674  0.63596844  0.74711584  1
  S  S114  1  0.13844802  0.35946278  0.24981837  1
  S  S115  1  0.13972607  0.36210032  0.58299175  1
  S  S116  1  0.14268188  0.35964019  0.91745957  1
  S  S117  1  0.13600177  0.85947964  0.24909800  1
  S  S118  1  0.13920917  0.86143357  0.58376696  1
  S  S119  1  0.13705214  0.86301705  0.91698581  1
  S  S120  1  0.63786563  0.35245531  0.25103627  1
  S  S121  1  0.64270956  0.34962413  0.57940983  1
  S  S122  1  0.63715501  0.35225812  0.91819762  1
  S  S123  1  0.63884478  0.86386370  0.25084337  1
  S  S124  1  0.64251626  0.85244839  0.57782682  1
  S  S125  1  0.64394503  0.86341482  0.92203012  1
  S  S126  1  0.06778874  0.17072570  0.04228033  1
  S  S127  1  0.06701860  0.17047104  0.37662661  1
  S  S128  1  0.07139544  0.17015220  0.70734143  1
  S  S129  1  0.06568359  0.67318577  0.04546267  1
  S  S130  1  0.06592137  0.67285727  0.37748518  1
  S  S131  1  0.07323469  0.67493312  0.71196860  1
  S  S132  1  0.56753860  0.17200825  0.04555281  1
  S  S133  1  0.56383108  0.17125576  0.37732245  1
  S  S134  1  0.56843846  0.17427531  0.71283206  1
  S  S135  1  0.57540340  0.65261871  0.03158442  1
  S  S136  1  0.56140216  0.65747059  0.37260432  1
  S  S137  1  0.56625011  0.67376868  0.70631425  1
  S  S138  1  0.32896465  0.43196795  0.12710908  1
  S  S139  1  0.32796006  0.43365783  0.45873452  1
  S  S140  1  0.32421170  0.42724775  0.79083523  1
  S  S141  1  0.32054717  0.93459841  0.12392540  1
  S  S142  1  0.32552800  0.93079218  0.45750132  1
  S  S143  1  0.32688955  0.93620157  0.78646694  1
  S  S144  1  0.83903640  0.43869280  0.12883823  1
  S  S145  1  0.83536259  0.43381560  0.46156523  1
  S  S146  1  0.84547677  0.43040404  0.79258360  1
  S  S147  1  0.82662238  0.93438659  0.12230533  1
  S  S148  1  0.82796365  0.93591677  0.45971684  1
  S  S149  1  0.83411572  0.92889152  0.79165568  1
  S  S150  1  0.42943974  0.33346722  0.29459180  1
  S  S151  1  0.43071532  0.32473506  0.62313683  1
  S  S152  1  0.42759566  0.33184645  0.96021607  1
  S  S153  1  0.42416556  0.83183814  0.29185514  1
  S  S154  1  0.43720881  0.82823823  0.62025535  1
  S  S155  1  0.43028753  0.84343730  0.95970727  1
  S  S156  1  0.93988086  0.33035436  0.28876826  1
  S  S157  1  0.93404729  0.32516425  0.61944452  1
  S  S158  1  0.94225154  0.32541532  0.95081491  1
  S  S159  1  0.93132517  0.83101777  0.29345772  1
  S  S160  1  0.92887079  0.83072681  0.62244060  1
  S  S161  1  0.92779906  0.82543817  0.95574266  1
  S  S162  1  0.17340982  0.07146539  0.21318488  1
  S  S163  1  0.16582822  0.06766471  0.54078752  1
  S  S164  1  0.17529517  0.06863983  0.87910796  1
  S  S165  1  0.16481889  0.56702438  0.21098142  1
  S  S166  1  0.16485096  0.56934406  0.54186963  1
  S  S167  1  0.16923762  0.56982862  0.87935400  1
  S  S168  1  0.67301186  0.07074961  0.21077850  1
  S  S169  1  0.66964113  0.06194725  0.53743924  1
  S  S170  1  0.66385411  0.05862693  0.87177318  1
  S  S171  1  0.67590530  0.55739652  0.20960477  1
  S  S172  1  0.67755702  0.56270238  0.53803074  1
  S  S173  1  0.66848223  0.55197512  0.87379134  1
  O  O174  1  0.36660869  0.22565726  0.08120388  1
  O  O175  1  0.36592712  0.22230362  0.41530688  1
  O  O176  1  0.36719448  0.22016547  0.74103786  1
  O  O177  1  0.35169381  0.71776359  0.07224533  1
  O  O178  1  0.36545463  0.71892259  0.41140446  1
  O  O179  1  0.35069819  0.71275602  0.73341485  1
  O  O180  1  0.86927246  0.22051409  0.07486719  1
  O  O181  1  0.86936875  0.21678471  0.40244487  1
  O  O182  1  0.88231356  0.20924274  0.73432785  1
  O  O183  1  0.85999644  0.73160762  0.08949337  1
  O  O184  1  0.86722194  0.73107362  0.41827140  1
  O  O185  1  0.88054176  0.71251584  0.73291168  1
  O  O186  1  0.27681063  0.13634980  0.09154370  1
  O  O187  1  0.27946668  0.13078331  0.42801935  1
  O  O188  1  0.27982447  0.13468179  0.75960487  1
  O  O189  1  0.27223968  0.62474496  0.09227100  1
  O  O190  1  0.27640609  0.63066937  0.42416097  1
  O  O191  1  0.27450176  0.62508853  0.76221703  1
  O  O192  1  0.78124950  0.13238320  0.09010766  1
  O  O193  1  0.77957091  0.13204318  0.42053035  1
  O  O194  1  0.79364944  0.13214219  0.76425097  1
  O  O195  1  0.77980849  0.62591097  0.09280228  1
  O  O196  1  0.78096206  0.63291673  0.42233457  1
  O  O197  1  0.78982376  0.62959244  0.75273216  1
  O  O198  1  0.13224220  0.28067706  0.25856075  1
  O  O199  1  0.13187024  0.28364632  0.59250184  1
  O  O200  1  0.13615011  0.28062252  0.92595598  1
  O  O201  1  0.12701917  0.78178015  0.26064572  1
  O  O202  1  0.12962878  0.78284683  0.59268249  1
  O  O203  1  0.12831756  0.78652994  0.93014930  1
  O  O204  1  0.61816150  0.27695430  0.26268972  1
  O  O205  1  0.63434116  0.26515186  0.57212388  1
  O  O206  1  0.61585593  0.27790386  0.92934039  1
  O  O207  1  0.62388070  0.79140191  0.26526189  1
  O  O208  1  0.63930265  0.76870437  0.57593421  1
  O  O209  1  0.62896042  0.78784456  0.93145585  1
  O  O210  1  0.21823867  0.37006741  0.24291644  1
  O  O211  1  0.21975970  0.37208997  0.57729493  1
  O  O212  1  0.22263856  0.37062687  0.91164472  1
  O  O213  1  0.21555601  0.86741749  0.24197623  1
  O  O214  1  0.22033770  0.86980330  0.57979127  1
  O  O215  1  0.21708764  0.87184886  0.91162571  1
  O  O216  1  0.71484776  0.35063674  0.24180423  1
  O  O217  1  0.71832526  0.36406129  0.56648578  1
  O  O218  1  0.70769756  0.34955937  0.89757469  1
  O  O219  1  0.72536395  0.87152399  0.25801928  1
  O  O220  1  0.72255688  0.86862953  0.57240035  1
  O  O221  1  0.72700421  0.87087453  0.92171775  1
  O  O222  1  0.41387663  0.13551425  0.15336942  1
  O  O223  1  0.41806720  0.13213626  0.48713584  1
  O  O224  1  0.41774440  0.13463777  0.81849572  1
  O  O225  1  0.41160991  0.63495723  0.14902811  1
  O  O226  1  0.41463450  0.62637964  0.48218082  1
  O  O227  1  0.41309607  0.64398923  0.82281736  1
  O  O228  1  0.91876807  0.13125880  0.14743762  1
  O  O229  1  0.91744180  0.13419384  0.48389347  1
  O  O230  1  0.93086078  0.12427846  0.81351571  1
  O  O231  1  0.91806653  0.63541542  0.15038810  1
  O  O232  1  0.91807014  0.63937918  0.48867903  1
  O  O233  1  0.92724203  0.63257588  0.81728325  1
  O  O234  1  0.36457972  0.08902607  0.01635519  1
  O  O235  1  0.36578472  0.08469269  0.35114731  1
  O  O236  1  0.36428849  0.08217157  0.68190784  1
  O  O237  1  0.36011319  0.58172151  0.01403731  1
  O  O238  1  0.36184969  0.58127056  0.34671326  1
  O  O239  1  0.36319770  0.57593174  0.68784776  1
  O  O240  1  0.86612521  0.08293334  0.01064616  1
  O  O241  1  0.86977044  0.07780032  0.34866510  1
  O  O242  1  0.86869843  0.07177023  0.67874384  1
  O  O243  1  0.86677579  0.59985205  0.01430616  1
  O  O244  1  0.87576042  0.59546003  0.35291656  1
  O  O245  1  0.87888451  0.57418272  0.68146340  1
  O  O246  1  0.08030666  0.36651963  0.18136630  1
  O  O247  1  0.08242026  0.36762123  0.51347579  1
  O  O248  1  0.08512719  0.36621346  0.84874935  1
  O  O249  1  0.07768606  0.86474721  0.18025438  1
  O  O250  1  0.08336471  0.86736864  0.51347752  1
  O  O251  1  0.07976067  0.86653247  0.84625289  1
  O  O252  1  0.57852536  0.36440911  0.18409358  1
  O  O253  1  0.57997829  0.36691330  0.51666543  1
  O  O254  1  0.57210122  0.37175087  0.85960551  1
  O  O255  1  0.59325866  0.86946618  0.17797855  1
  O  O256  1  0.58478543  0.86048971  0.50870819  1
  O  O257  1  0.59157838  0.87454494  0.85408045  1
  O  O258  1  0.12998147  0.41871509  0.31751378  1
  O  O259  1  0.12813805  0.42181280  0.64917177  1
  O  O260  1  0.13390680  0.41837221  0.98547650  1
  O  O261  1  0.12922747  0.92036769  0.31662672  1
  O  O262  1  0.12756993  0.92107480  0.64938429  1
  O  O263  1  0.12452707  0.92516036  0.98110271  1
  O  O264  1  0.63418690  0.41565388  0.31896614  1
  O  O265  1  0.63775937  0.39851158  0.65121363  1
  O  O266  1  0.64480042  0.41403539  0.99212851  1
  O  O267  1  0.62484587  0.92977317  0.31333077  1
  O  O268  1  0.63244903  0.90330521  0.64636079  1
  O  O269  1  0.63401627  0.92525263  0.98962631  1
  O  O270  1  0.03210514  0.20242362  0.10335186  1
  O  O271  1  0.03168585  0.20275995  0.43850854  1
  O  O272  1  0.04217906  0.20351846  0.77186065  1
  O  O273  1  0.02657600  0.70345893  0.10444791  1
  O  O274  1  0.02996397  0.70324296  0.43861098  1
  O  O275  1  0.04063421  0.70503252  0.77507122  1
  O  O276  1  0.52453796  0.19862582  0.10314637  1
  O  O277  1  0.52197816  0.19954898  0.43434362  1
  O  O278  1  0.52760854  0.20395225  0.77243236  1
  O  O279  1  0.54628689  0.68075382  0.09486708  1
  O  O280  1  0.52645109  0.68832194  0.43600284  1
  O  O281  1  0.52285874  0.71197988  0.75558716  1
  O  O282  1  0.29963348  0.46550066  0.06476617  1
  O  O283  1  0.29631810  0.46998026  0.39748316  1
  O  O284  1  0.29365882  0.46122502  0.72825222  1
  O  O285  1  0.29153614  0.97731108  0.06633410  1
  O  O286  1  0.29468002  0.96933272  0.39778645  1
  O  O287  1  0.29026813  0.97628288  0.72764397  1
  O  O288  1  0.80530123  0.46888561  0.06376142  1
  O  O289  1  0.81136397  0.47321472  0.40405673  1
  O  O290  1  0.80969297  0.45085529  0.72319321  1
  O  O291  1  0.80191559  0.97739981  0.06601721  1
  O  O292  1  0.80114660  0.97682148  0.40246750  1
  O  O293  1  0.81016630  0.96159167  0.72942610  1
  O  O294  1  0.46157161  0.30443445  0.23145572  1
  O  O295  1  0.47121022  0.29434238  0.56476949  1
  O  O296  1  0.45678384  0.29984196  0.89573369  1
  O  O297  1  0.45220567  0.81220356  0.22894441  1
  O  O298  1  0.47015139  0.79322396  0.55605587  1
  O  O299  1  0.44665093  0.83286742  0.88954651  1
  O  O300  1  0.97368920  0.29287321  0.22661731  1
  O  O301  1  0.97151493  0.29716849  0.55755321  1
  O  O302  1  0.97878547  0.28672478  0.89031291  1
  O  O303  1  0.96938507  0.80264812  0.23386160  1
  O  O304  1  0.97129627  0.80664620  0.56480211  1
  O  O305  1  0.96695692  0.79637497  0.89576091  1
  O  O306  1  0.20297370  0.03327062  0.27333712  1
  O  O307  1  0.19551910  0.03326505  0.60247772  1
  O  O308  1  0.20741768  0.03168217  0.93945625  1
  O  O309  1  0.19525350  0.52956132  0.27177745  1
  O  O310  1  0.19454692  0.53355475  0.60273450  1
  O  O311  1  0.19772301  0.52967235  0.93813534  1
  O  O312  1  0.70508873  0.03530318  0.27228108  1
  O  O313  1  0.69975361  0.02771411  0.59832804  1
  O  O314  1  0.70363356  0.03302637  0.93977351  1
  O  O315  1  0.70903683  0.51976594  0.26828263  1
  O  O316  1  0.70120205  0.52443383  0.59693032  1
  O  O317  1  0.70136363  0.52184556  0.94072534  1
  O  O318  1  0.08880836  0.09083573  0.04143641  1
  O  O319  1  0.08502695  0.09004349  0.37581483  1
  O  O320  1  0.08883474  0.08842932  0.70343486  1
  O  O321  1  0.08240081  0.59116647  0.04155364  1
  O  O322  1  0.08167073  0.59012550  0.37100024  1
  O  O323  1  0.08952836  0.59266131  0.70449842  1
  O  O324  1  0.58788122  0.09238806  0.04233087  1
  O  O325  1  0.58312698  0.09107584  0.37531489  1
  O  O326  1  0.59021112  0.09756599  0.71261225  1
  O  O327  1  0.60135066  0.57007926  0.03031995  1
  O  O328  1  0.58559109  0.57758954  0.37292184  1
  O  O329  1  0.59452326  0.60263394  0.72039467  1
  O  O330  1  0.41087863  0.41383082  0.13524447  1
  O  O331  1  0.40857106  0.41532518  0.46075773  1
  O  O332  1  0.40386194  0.40597204  0.79456349  1
  O  O333  1  0.39617506  0.91029990  0.12445593  1
  O  O334  1  0.40483805  0.91053170  0.46071334  1
  O  O335  1  0.40263304  0.91859999  0.77940889  1
  O  O336  1  0.91721646  0.41209821  0.12107044  1
  O  O337  1  0.91923598  0.41673147  0.46882507  1
  O  O338  1  0.92752930  0.40933279  0.79399119  1
  O  O339  1  0.90587809  0.91209641  0.12561768  1
  O  O340  1  0.91248115  0.92300143  0.46839616  1
  O  O341  1  0.91835646  0.91335342  0.80636830  1
  O  O342  1  0.41193336  0.41627333  0.30226761  1
  O  O343  1  0.40689073  0.40182952  0.61958550  1
  O  O344  1  0.41036551  0.41383287  0.96685812  1
  O  O345  1  0.40533553  0.91604769  0.31220916  1
  O  O346  1  0.41072788  0.90553014  0.61490008  1
  O  O347  1  0.41248813  0.92820623  0.98844031  1
  O  O348  1  0.93371766  0.41246562  0.29400437  1
  O  O349  1  0.91561062  0.40566047  0.62460212  1
  O  O350  1  0.93706318  0.40644459  0.95204283  1
  O  O351  1  0.90985311  0.91111376  0.29696010  1
  O  O352  1  0.90492063  0.90975294  0.62539954  1
  O  O353  1  0.90928586  0.90609107  0.95755345  1
  O  O354  1  0.09688449  0.09707727  0.21530310  1
  O  O355  1  0.08336436  0.08537349  0.53393709  1
  O  O356  1  0.09640250  0.08846424  0.88061887  1
  O  O357  1  0.08359394  0.58443640  0.20792228  1
  O  O358  1  0.08236435  0.58604298  0.53496767  1
  O  O359  1  0.08869718  0.58866060  0.87732463  1
  O  O360  1  0.59100466  0.08565258  0.20712062  1
  O  O361  1  0.58926410  0.08404623  0.53421653  1
  O  O362  1  0.58162189  0.07290605  0.87304943  1
  O  O363  1  0.59098135  0.55684794  0.19674229  1
  O  O364  1  0.59449508  0.57948226  0.52874407  1
  O  O365  1  0.58274730  0.54767446  0.85471864  1
  O  O366  1  0.13796365  0.22383837  0.05672683  1
  O  O367  1  0.13873355  0.22178863  0.39172665  1
  O  O368  1  0.14134910  0.21988472  0.71621095  1
  O  O369  1  0.13723215  0.72498947  0.06335126  1
  O  O370  1  0.13848396  0.72322909  0.39419938  1
  O  O371  1  0.14337026  0.72636692  0.72452711  1
  O  O372  1  0.63662983  0.22798697  0.06731893  1
  O  O373  1  0.63517447  0.22420799  0.39647938  1
  O  O374  1  0.63457614  0.23182357  0.72837276  1
  O  O375  1  0.64173730  0.70312681  0.03559105  1
  O  O376  1  0.63079268  0.71149798  0.38753869  1
  O  O377  1  0.63058773  0.72687180  0.70719172  1
  O  O378  1  0.27641445  0.36100590  0.11220997  1
  O  O379  1  0.27555097  0.36164300  0.44146311  1
  O  O380  1  0.26971648  0.35738093  0.77546734  1
  O  O381  1  0.26061937  0.86758067  0.10404917  1
  O  O382  1  0.27065056  0.86008797  0.43938802  1
  O  O383  1  0.27142352  0.86666513  0.76970466  1
  O  O384  1  0.78765608  0.37274164  0.12363439  1
  O  O385  1  0.78436679  0.36088748  0.44159441  1
  O  O386  1  0.79850486  0.36285362  0.79126244  1
  O  O387  1  0.76992493  0.86685478  0.10379281  1
  O  O388  1  0.77815040  0.86227332  0.43814652  1
  O  O389  1  0.78369566  0.85748479  0.77631412  1
  O  O390  1  0.35780849  0.28235531  0.28054106  1
  O  O391  1  0.36062944  0.26895945  0.60502678  1
  O  O392  1  0.35628676  0.28092158  0.94867827  1
  O  O393  1  0.35274227  0.77945060  0.27906178  1
  O  O394  1  0.36774153  0.77450815  0.60758006  1
  O  O395  1  0.35880430  0.78984016  0.94528342  1
  O  O396  1  0.86482183  0.28424588  0.27286501  1
  O  O397  1  0.86405441  0.27171909  0.60113481  1
  O  O398  1  0.86770844  0.27957055  0.93425899  1
  O  O399  1  0.86474391  0.77625953  0.28122204  1
  O  O400  1  0.86093185  0.77353473  0.60236717  1
  O  O401  1  0.85954988  0.77186623  0.94114934  1
  O  O402  1  0.23035602  0.13915714  0.22809024  1
  O  O403  1  0.21714153  0.13886674  0.55518504  1
  O  O404  1  0.22804773  0.13902759  0.89351849  1
  O  O405  1  0.21669292  0.63802970  0.22759254  1
  O  O406  1  0.21596880  0.64040306  0.55593776  1
  O  O407  1  0.22179067  0.64023469  0.89657318  1
  O  O408  1  0.72337560  0.14311714  0.22689096  1
  O  O409  1  0.72313551  0.12903692  0.54679210  1
  O  O410  1  0.70714211  0.13130496  0.87900881  1
  O  O411  1  0.71683192  0.63590153  0.23167801  1
  O  O412  1  0.72951972  0.63567672  0.55929600  1
  O  O413  1  0.70371974  0.63391205  0.89725692  1
  O  O414  1  0.48908974  0.33310168  0.03124223  1
  O  O415  1  0.48988264  0.33484846  0.36614257  1
  O  O416  1  0.48729075  0.33210885  0.69742630  1
  O  O417  1  0.49556690  0.83338699  0.02065358  1
  O  O418  1  0.48583765  0.82887934  0.36309989  1
  O  O419  1  0.49954615  0.84151389  0.69050754  1
  O  O420  1  0.99783371  0.32412774  0.02458213  1
  O  O421  1  0.99594758  0.32707295  0.36166421  1
  O  O422  1  0.99463462  0.32408585  0.68962315  1
  O  O423  1  0.98814051  0.83098119  0.02912524  1
  O  O424  1  0.99285758  0.83982258  0.36796651  1
  O  O425  1  0.98737448  0.83442735  0.69559572  1
  O  O426  1  0.16491626  0.01210296  0.13953508  1
  O  O427  1  0.16296660  0.00753177  0.46833259  1
  O  O428  1  0.16889149  0.01016669  0.80532428  1
  O  O429  1  0.16299527  0.50816389  0.13851912  1
  O  O430  1  0.16346276  0.50919437  0.46932158  1
  O  O431  1  0.16502856  0.51113337  0.80575330  1
  O  O432  1  0.67048745  0.01223468  0.13874442  1
  O  O433  1  0.65947406  0.00020354  0.46265109  1
  O  O434  1  0.65832455  -0.00573994  0.80372584  1
  O  O435  1  0.68838004  0.50753152  0.13774154  1
  O  O436  1  0.67975984  0.50669173  0.46545121  1
  O  O437  1  0.69172429  0.50236172  0.81202003  1
  O  O438  1  0.00779182  0.16682303  0.30435581  1
  O  O439  1  0.00798642  0.16324554  0.63539106  1
  O  O440  1  0.00809462  0.16217446  0.96873469  1
  O  O441  1  0.00745283  0.67175029  0.30520708  1
  O  O442  1  0.01114412  0.67236680  0.64028805  1
  O  O443  1  0.00863037  0.66873478  0.97152772  1
  O  O444  1  0.50734415  0.16825942  0.30305452  1
  O  O445  1  0.50795617  0.16955042  0.63892924  1
  O  O446  1  0.51039812  0.16977093  0.97199246  1
  O  O447  1  0.50056756  0.64748372  0.30099461  1
  O  O448  1  0.50957043  0.64937417  0.62387639  1
  O  O449  1  0.51093730  0.63572003  0.95886405  1
  O  O450  1  0.32953339  0.49244956  0.19850379  1
  O  O451  1  0.32945613  0.49162492  0.53090555  1
  O  O452  1  0.32807186  0.48829068  0.86224366  1
  O  O453  1  0.32438216  0.99199134  0.19855783  1
  O  O454  1  0.32578325  0.98928046  0.52978612  1
  O  O455  1  0.33351299  0.99203181  0.86237671  1
  O  O456  1  0.85937507  0.50303406  0.19998907  1
  O  O457  1  0.83861074  0.48896854  0.53671010  1
  O  O458  1  0.85856034  0.49919165  0.85951377  1
  O  O459  1  0.83202043  0.99257329  0.19707762  1
  O  O460  1  0.82798495  0.99071450  0.53400202  1
  O  O461  1  0.83256832  0.99058074  0.86231586  1
