# generated using pymatgen
data_Na31Fe20(SO4)36
_symmetry_space_group_name_H-M   'P 1'
_cell_length_a   18.08177089
_cell_length_b   18.08839197
_cell_length_c   19.72642515
_cell_angle_alpha   107.58146506
_cell_angle_beta   107.61000589
_cell_angle_gamma   90.75059371
_symmetry_Int_Tables_number   1
_chemical_formula_structural   Na31Fe20(SO4)36
_chemical_formula_sum   'Na62 Fe40 S72 O288'
_cell_volume   5823.42874278
_cell_formula_units_Z   2
loop_
 _symmetry_equiv_pos_site_id
 _symmetry_equiv_pos_as_xyz
  1  'x, y, z'
loop_
 _atom_site_type_symbol
 _atom_site_label
 _atom_site_symmetry_multiplicity
 _atom_site_fract_x
 _atom_site_fract_y
 _atom_site_fract_z
 _atom_site_occupancy
  Na  Na0  1  0.14206600  0.36727928  0.09229437  1
  Na  Na1  1  0.12963308  0.37012952  0.41563557  1
  Na  Na2  1  0.13422137  0.35768495  0.75361498  1
  Na  Na3  1  0.15013708  0.86828456  0.09363016  1
  Na  Na4  1  0.13116110  0.86786891  0.41495616  1
  Na  Na5  1  0.13679974  0.86911876  0.74864785  1
  Na  Na6  1  0.62982337  0.35926053  0.06838726  1
  Na  Na7  1  0.63281272  0.35928705  0.40761652  1
  Na  Na8  1  0.64336546  0.37416769  0.75946971  1
  Na  Na9  1  0.63137939  0.85951104  0.08568287  1
  Na  Na10  1  0.62658018  0.85982238  0.40678705  1
  Na  Na11  1  0.63072626  0.86831532  0.75063638  1
  Na  Na12  1  0.35784683  0.12796838  0.23142760  1
  Na  Na13  1  0.37116015  0.13201453  0.58766373  1
  Na  Na14  1  0.36228805  0.14638467  0.91916855  1
  Na  Na15  1  0.35560117  0.64641179  0.24291623  1
  Na  Na16  1  0.36120201  0.63672046  0.57917316  1
  Na  Na17  1  0.37596148  0.64941596  0.93731349  1
  Na  Na18  1  0.86713289  0.13133715  0.25284499  1
  Na  Na19  1  0.87007866  0.13544423  0.59012054  1
  Na  Na20  1  0.86298343  0.13528122  0.91643599  1
  Na  Na21  1  0.87320634  0.62582520  0.25103617  1
  Na  Na22  1  0.86575373  0.63650067  0.58176401  1
  Na  Na23  1  0.86601964  0.63103585  0.92074352  1
  Na  Na24  1  0.96375310  0.50252682  0.08430844  1
  Na  Na25  1  1.00370256  0.01849375  0.74405993  1
  Na  Na26  1  1.00967549  0.48665693  0.75056646  1
  Na  Na27  1  0.49701069  0.54493241  0.08695631  1
  Na  Na28  1  0.44224805  0.50716020  0.39747571  1
  Na  Na29  1  1.00377062  0.00215011  0.09564772  1
  Na  Na30  1  0.48913448  0.00053690  0.08526362  1
  Na  Na31  1  0.48259064  0.00800491  0.43210049  1
  Na  Na32  1  0.49272630  0.04322403  0.74900083  1
  Na  Na33  1  0.52309363  0.48996608  0.89557936  1
  Na  Na34  1  0.01192143  0.49214669  0.56819286  1
  Na  Na35  1  0.48744763  1.01809689  0.91361231  1
  Na  Na36  1  0.50311289  0.48455973  0.59958656  1
  Na  Na37  1  -0.00198993  0.46060800  0.90868951  1
  Na  Na38  1  0.03901466  0.99092583  0.57479283  1
  Na  Na39  1  0.06528351  1.00070812  0.93906646  1
  Na  Na40  1  0.49745708  0.93094433  0.23370086  1
  Na  Na41  1  0.48460466  0.52503861  0.24253444  1
  Na  Na42  1  0.73974043  0.73889883  0.33739679  1
  Na  Na43  1  0.23812882  0.23027687  0.67726366  1
  Na  Na44  1  0.74450058  0.24916528  -0.00496616  1
  Na  Na45  1  0.76569224  0.26218330  0.66124599  1
  Na  Na46  1  0.25809125  0.76192550  0.65213474  1
  Na  Na47  1  0.25856159  0.26001062  0.32310494  1
  Na  Na48  1  0.25046603  0.74255920  0.01807900  1
  Na  Na49  1  0.74433078  0.74103526  0.00578053  1
  Na  Na50  1  0.24638936  0.74940347  0.33782964  1
  Na  Na51  1  0.74649135  0.74900889  0.66994327  1
  Na  Na52  1  0.74529622  0.74861853  0.50120817  1
  Na  Na53  1  0.77639021  0.27831132  0.83176894  1
  Na  Na54  1  0.24625019  0.24626963  0.50292485  1
  Na  Na55  1  0.74874451  0.74795009  0.83724569  1
  Na  Na56  1  0.25771811  0.25872062  0.15253403  1
  Na  Na57  1  0.25401684  0.75103973  0.83533354  1
  Na  Na58  1  0.73520207  0.73554387  0.17506033  1
  Na  Na59  1  0.23593470  0.23638893  0.84557288  1
  Na  Na60  1  0.74059374  0.24014520  0.17438080  1
  Na  Na61  1  0.76095757  0.25821525  0.48581172  1
  Fe  Fe62  1  0.96562032  0.80329030  0.45025236  1
  Fe  Fe63  1  0.96826584  0.80722538  0.78671508  1
  Fe  Fe64  1  0.96599089  0.80758487  0.12121015  1
  Fe  Fe65  1  0.46045177  0.81764897  0.46022100  1
  Fe  Fe66  1  0.47138296  0.29942434  0.78958255  1
  Fe  Fe67  1  0.46900426  0.31129242  0.11905612  1
  Fe  Fe68  1  0.95935254  0.30466391  0.44718550  1
  Fe  Fe69  1  0.46249002  0.81257951  0.78831754  1
  Fe  Fe70  1  0.96511346  0.31228378  0.12544961  1
  Fe  Fe71  1  0.46686281  0.30504767  0.44951161  1
  Fe  Fe72  1  0.69232663  0.03507350  0.71732769  1
  Fe  Fe73  1  0.68680157  0.53609399  0.37552215  1
  Fe  Fe74  1  0.69119487  0.03298877  0.37954662  1
  Fe  Fe75  1  0.19648464  0.53284398  0.71550724  1
  Fe  Fe76  1  0.19659047  0.53304586  0.37668642  1
  Fe  Fe77  1  0.70226788  0.53059627  0.04053240  1
  Fe  Fe78  1  0.18735208  0.03697250  0.37642694  1
  Fe  Fe79  1  0.69165001  0.03265122  0.04851023  1
  Fe  Fe80  1  0.69405023  0.53750617  0.71184383  1
  Fe  Fe81  1  0.19501168  0.53193372  0.05015378  1
  Fe  Fe82  1  0.03087302  0.19272990  0.54652480  1
  Fe  Fe83  1  0.53144025  0.69558534  0.54579128  1
  Fe  Fe84  1  0.03834309  0.69172950  0.21470538  1
  Fe  Fe85  1  0.03833517  0.68344251  0.54001683  1
  Fe  Fe86  1  0.53793368  0.19420121  0.54764435  1
  Fe  Fe87  1  0.53143210  0.69522499  0.87953959  1
  Fe  Fe88  1  0.03437061  0.69020199  0.88065409  1
  Fe  Fe89  1  0.53965406  0.19076596  0.21598169  1
  Fe  Fe90  1  0.03265536  0.19979588  0.88165068  1
  Fe  Fe91  1  0.03398563  0.19469263  0.21601095  1
  Fe  Fe92  1  0.31003676  0.45973771  0.95471537  1
  Fe  Fe93  1  0.80866428  0.46255025  0.28746879  1
  Fe  Fe94  1  0.29821107  0.96910618  0.62278758  1
  Fe  Fe95  1  0.31150187  0.46278869  0.62424282  1
  Fe  Fe96  1  0.80884469  0.96458344  0.95370641  1
  Fe  Fe97  1  0.80709349  0.96487914  0.62093794  1
  Fe  Fe98  1  0.81019205  0.46796528  0.61765311  1
  Fe  Fe99  1  0.81142538  0.96436311  0.28792170  1
  Fe  Fe100  1  0.30265952  0.96776516  0.28205293  1
  Fe  Fe101  1  0.29583009  0.97309742  0.95561229  1
  S  S102  1  0.36840822  0.14180746  0.08226839  1
  S  S103  1  0.35836697  0.14232508  0.41546220  1
  S  S104  1  0.35943795  0.14236695  0.75099815  1
  S  S105  1  0.35922358  0.63430704  0.08130508  1
  S  S106  1  0.35763927  0.64772957  0.41899292  1
  S  S107  1  0.35904634  0.64109633  0.74999388  1
  S  S108  1  0.85825216  0.13971711  0.08505653  1
  S  S109  1  0.85680851  0.13764296  0.41757785  1
  S  S110  1  0.85853042  0.13816163  0.75422861  1
  S  S111  1  0.86327022  0.64126061  0.08448052  1
  S  S112  1  0.85917424  0.63926511  0.41677061  1
  S  S113  1  0.86012553  0.64436236  0.74757665  1
  S  S114  1  0.14317793  0.35729315  0.25353492  1
  S  S115  1  0.14015380  0.35988865  0.58416908  1
  S  S116  1  0.13925101  0.36123149  0.91498313  1
  S  S117  1  0.13877156  0.86101974  0.24865824  1
  S  S118  1  0.13625465  0.85573368  0.58217103  1
  S  S119  1  0.14122467  0.85073058  0.91429335  1
  S  S120  1  0.64204622  0.35837884  0.25104408  1
  S  S121  1  0.64124620  0.36045291  0.58087456  1
  S  S122  1  0.64206610  0.36042384  0.91220208  1
  S  S123  1  0.64607428  0.85862297  0.25146130  1
  S  S124  1  0.64038613  0.86143357  0.58524863  1
  S  S125  1  0.64171076  0.85837234  0.91814932  1
  S  S126  1  0.05899304  0.17237503  0.04675883  1
  S  S127  1  0.06608699  0.17573108  0.37952371  1
  S  S128  1  0.06069501  0.16808212  0.70786537  1
  S  S129  1  0.06780416  0.66764768  0.03895602  1
  S  S130  1  0.07205632  0.67136804  0.37722633  1
  S  S131  1  0.06674725  0.66409996  0.70629347  1
  S  S132  1  0.56853174  0.16513138  0.04269775  1
  S  S133  1  0.56626294  0.16544171  0.37642632  1
  S  S134  1  0.57472419  0.17386775  0.70950065  1
  S  S135  1  0.57449429  0.66283645  0.03817700  1
  S  S136  1  0.56266183  0.67153180  0.37726701  1
  S  S137  1  0.56706253  0.67350233  0.70828121  1
  S  S138  1  0.33389327  0.43590438  0.12755062  1
  S  S139  1  0.33558582  0.43353402  0.46283497  1
  S  S140  1  0.32969637  0.42501286  0.78857433  1
  S  S141  1  0.32933534  0.93842616  0.11956306  1
  S  S142  1  0.32342110  0.93834540  0.45896853  1
  S  S143  1  0.32550050  0.93175667  0.79061431  1
  S  S144  1  0.82628245  0.43101307  0.12522136  1
  S  S145  1  0.82715085  0.43441974  0.45700513  1
  S  S146  1  0.83477973  0.44433933  0.78561147  1
  S  S147  1  0.83037105  0.93128059  0.12220143  1
  S  S148  1  0.83158571  0.92931223  0.46046205  1
  S  S149  1  0.83270503  0.92959527  0.79264706  1
  S  S150  1  0.43694184  0.32815223  0.28689141  1
  S  S151  1  0.43477002  0.32554754  0.62435483  1
  S  S152  1  0.43420885  0.33528988  0.95711449  1
  S  S153  1  0.42560667  0.83764985  0.30208159  1
  S  S154  1  0.43111202  0.83500574  0.62852886  1
  S  S155  1  0.43538802  0.83735291  0.95747494  1
  S  S156  1  0.92900766  0.32618041  0.29009535  1
  S  S157  1  0.93737939  0.33623530  0.62096362  1
  S  S158  1  0.93697591  0.33070310  0.96293496  1
  S  S159  1  0.92881362  0.82239323  0.28676489  1
  S  S160  1  0.93154511  0.82880092  0.62345437  1
  S  S161  1  0.93491780  0.82966531  0.95838681  1
  S  S162  1  0.16656058  0.06791866  0.20999051  1
  S  S163  1  0.16979604  0.06942067  0.53983913  1
  S  S164  1  0.16263387  0.06579141  0.87087147  1
  S  S165  1  0.16338369  0.56682976  0.20733967  1
  S  S166  1  0.17528118  0.56450956  0.54517976  1
  S  S167  1  0.17095020  0.56603956  0.87553959  1
  S  S168  1  0.67137806  0.06478240  0.20906598  1
  S  S169  1  0.67384243  0.06847657  0.54423125  1
  S  S170  1  0.66689973  0.05875851  0.87790301  1
  S  S171  1  0.66910411  0.55983614  0.20775804  1
  S  S172  1  0.66813220  0.56963244  0.54096221  1
  S  S173  1  0.66981766  0.57403878  0.87108832  1
  O  O174  1  0.38487005  0.21866079  0.07269087  1
  O  O175  1  0.36940829  0.22239887  0.40955076  1
  O  O176  1  0.37808855  0.21860151  0.73783625  1
  O  O177  1  0.37134002  0.70860097  0.06906349  1
  O  O178  1  0.36682906  0.73174166  0.42402100  1
  O  O179  1  0.36696550  0.71945772  0.74036415  1
  O  O180  1  0.86436100  0.21927674  0.07865008  1
  O  O181  1  0.86292456  0.21703273  0.41065908  1
  O  O182  1  0.85883434  0.21475573  0.74386484  1
  O  O183  1  0.87162029  0.72163472  0.07736758  1
  O  O184  1  0.86684991  0.71839413  0.40841028  1
  O  O185  1  0.87134230  0.72348171  0.73976618  1
  O  O186  1  0.29606913  0.14035219  0.10006899  1
  O  O187  1  0.27992503  0.13542858  0.42439690  1
  O  O188  1  0.27960253  0.14290727  0.75376364  1
  O  O189  1  0.27717845  0.62522517  0.08472749  1
  O  O190  1  0.27930562  0.63218022  0.42501925  1
  O  O191  1  0.27888006  0.63033453  0.75578069  1
  O  O192  1  0.78046135  0.12771171  0.09498412  1
  O  O193  1  0.77773626  0.12587874  0.42547756  1
  O  O194  1  0.78349762  0.12175536  0.76812508  1
  O  O195  1  0.78348487  0.63305608  0.09200517  1
  O  O196  1  0.77986527  0.63066236  0.42540427  1
  O  O197  1  0.77884132  0.63785252  0.75096772  1
  O  O198  1  0.12674202  0.28017008  0.26499345  1
  O  O199  1  0.12957714  0.28066121  0.59076392  1
  O  O200  1  0.12978404  0.27933851  0.91682561  1
  O  O201  1  0.13135080  0.78207001  0.25726617  1
  O  O202  1  0.12668703  0.77436046  0.58662609  1
  O  O203  1  0.13480649  0.76737770  0.91293617  1
  O  O204  1  0.63204913  0.28169526  0.26278238  1
  O  O205  1  0.63470487  0.28240484  0.59116442  1
  O  O206  1  0.63250043  0.28685559  0.92644200  1
  O  O207  1  0.64128365  0.78376940  0.26483946  1
  O  O208  1  0.63181342  0.78239505  0.59393825  1
  O  O209  1  0.63138809  0.77853057  0.92414089  1
  O  O210  1  0.21939140  0.35753114  0.24216354  1
  O  O211  1  0.21896006  0.36779910  0.57542441  1
  O  O212  1  0.21840807  0.36985385  0.90594431  1
  O  O213  1  0.21577081  0.87304227  0.23874310  1
  O  O214  1  0.21740825  0.86717425  0.58094557  1
  O  O215  1  0.21978903  0.86631634  0.90813780  1
  O  O216  1  0.72164233  0.36554540  0.24447185  1
  O  O217  1  0.72084677  0.37100932  0.57481524  1
  O  O218  1  0.71448431  0.37127453  0.89592190  1
  O  O219  1  0.72622557  0.87176067  0.24451810  1
  O  O220  1  0.71980977  0.86931256  0.57698886  1
  O  O221  1  0.72147585  0.86620565  0.91089801  1
  O  O222  1  0.43271982  0.12566476  0.14412555  1
  O  O223  1  0.41821907  0.13235011  0.48276540  1
  O  O224  1  0.41596320  0.13234491  0.81797498  1
  O  O225  1  0.41474651  0.62336724  0.14834485  1
  O  O226  1  0.41744377  0.63380746  0.48545247  1
  O  O227  1  0.41595044  0.63663553  0.82047440  1
  O  O228  1  0.91931756  0.12964895  0.15108800  1
  O  O229  1  0.91546671  0.13077400  0.48613722  1
  O  O230  1  0.92236884  0.13288550  0.82130922  1
  O  O231  1  0.92102702  0.63477120  0.15445873  1
  O  O232  1  0.91841903  0.63359314  0.48568685  1
  O  O233  1  0.91558881  0.63717831  0.81735598  1
  O  O234  1  0.36720027  0.08100445  0.01054955  1
  O  O235  1  0.36559065  0.08438815  0.34696596  1
  O  O236  1  0.36687980  0.07988183  0.68292776  1
  O  O237  1  0.36719160  0.57106930  0.01276022  1
  O  O238  1  0.36841176  0.59742007  0.34978418  1
  O  O239  1  0.36902094  0.58142188  0.68369384  1
  O  O240  1  0.86494610  0.08200028  0.01546702  1
  O  O241  1  0.86528036  0.07961224  0.34949857  1
  O  O242  1  0.86749895  0.07748311  0.68659653  1
  O  O243  1  0.87322337  0.58294138  0.01936087  1
  O  O244  1  0.86659069  0.58039996  0.34948113  1
  O  O245  1  0.87003601  0.58571109  0.68064112  1
  O  O246  1  0.08200730  0.36786860  0.18830835  1
  O  O247  1  0.08043100  0.37135156  0.51800004  1
  O  O248  1  0.08036748  0.37636210  0.85227282  1
  O  O249  1  0.07779038  0.86632062  0.18021885  1
  O  O250  1  0.08080981  0.86245753  0.51050600  1
  O  O251  1  0.08254175  0.86050984  0.84545158  1
  O  O252  1  0.58504738  0.36488208  0.18110852  1
  O  O253  1  0.58280510  0.36494697  0.51087690  1
  O  O254  1  0.57587336  0.36822609  0.84513634  1
  O  O255  1  0.58718577  0.86401078  0.18405782  1
  O  O256  1  0.58185972  0.86883516  0.51758775  1
  O  O257  1  0.58381905  0.86704578  0.85013138  1
  O  O258  1  0.14232423  0.41797606  0.32412534  1
  O  O259  1  0.13387923  0.41871625  0.65344418  1
  O  O260  1  0.13502345  0.41598928  0.98748455  1
  O  O261  1  0.13050322  0.91926358  0.31657773  1
  O  O262  1  0.12003239  0.91192764  0.64534940  1
  O  O263  1  0.12821333  0.90268700  0.98129596  1
  O  O264  1  0.63280470  0.41983216  0.31718301  1
  O  O265  1  0.62880989  0.42086775  0.64609522  1
  O  O266  1  0.63430642  0.42517274  0.97832317  1
  O  O267  1  0.63639631  0.92143971  0.31889622  1
  O  O268  1  0.63487873  0.92020623  0.65413599  1
  O  O269  1  0.63454578  0.91589186  0.98681949  1
  O  O270  1  0.02204383  0.20963762  0.10712150  1
  O  O271  1  0.02595158  0.20314847  0.43882499  1
  O  O272  1  0.02659700  0.19299023  0.76976714  1
  O  O273  1  0.03241055  0.69783065  0.10068193  1
  O  O274  1  0.02931484  0.69990198  0.43507234  1
  O  O275  1  0.02774341  0.69267899  0.76519030  1
  O  O276  1  0.54657544  0.20234725  0.11212459  1
  O  O277  1  0.52864237  0.19756258  0.43715422  1
  O  O278  1  0.53614361  0.20259719  0.76751956  1
  O  O279  1  0.54461552  0.67609568  0.10039948  1
  O  O280  1  0.53208004  0.70351283  0.44297680  1
  O  O281  1  0.53011046  0.70060361  0.76849717  1
  O  O282  1  0.29703477  0.46251340  0.05961924  1
  O  O283  1  0.31049168  0.47292338  0.40563868  1
  O  O284  1  0.30255259  0.46605932  0.72984835  1
  O  O285  1  0.29387271  0.97374902  0.06019454  1
  O  O286  1  0.29690182  0.97752903  0.39934784  1
  O  O287  1  0.30088446  0.96557122  0.72953493  1
  O  O288  1  0.80128127  0.46947161  0.06692618  1
  O  O289  1  0.79665143  0.46974406  0.39576609  1
  O  O290  1  0.79523836  0.47661486  0.72046555  1
  O  O291  1  0.79858055  0.96862267  0.06167105  1
  O  O292  1  0.80351223  0.96533956  0.39951051  1
  O  O293  1  0.80026027  0.96222705  0.72950827  1
  O  O294  1  0.47331593  0.29201741  0.22659392  1
  O  O295  1  0.47418049  0.29989918  0.56457109  1
  O  O296  1  0.46740862  0.31119466  0.89500075  1
  O  O297  1  0.45644029  0.81180401  0.24034680  1
  O  O298  1  0.47176791  0.80784985  0.57005232  1
  O  O299  1  0.46754754  0.80246822  0.89171776  1
  O  O300  1  0.96781180  0.29726574  0.23081551  1
  O  O301  1  0.96603329  0.29960687  0.55464860  1
  O  O302  1  0.97385063  0.29585415  0.90363890  1
  O  O303  1  0.96976035  0.79442267  0.22875195  1
  O  O304  1  0.96511039  0.80021906  0.56100419  1
  O  O305  1  0.97127277  0.79958123  0.89715784  1
  O  O306  1  0.20122454  0.03630638  0.27542492  1
  O  O307  1  0.19564239  0.02939880  0.59676100  1
  O  O308  1  0.19106678  0.03315419  0.93421711  1
  O  O309  1  0.18257301  0.53168392  0.26766749  1
  O  O310  1  0.20329073  0.52535747  0.60493654  1
  O  O311  1  0.19672452  0.52906875  0.93537383  1
  O  O312  1  0.70335146  0.03134604  0.27184967  1
  O  O313  1  0.70113336  0.03250550  0.60596938  1
  O  O314  1  0.70363731  0.02322103  0.93956251  1
  O  O315  1  0.70593078  0.52408084  0.26949284  1
  O  O316  1  0.70024890  0.53344566  0.60202610  1
  O  O317  1  0.69951278  0.54204983  0.93271030  1
  O  O318  1  0.06394068  0.09061343  0.04489231  1
  O  O319  1  0.08867122  0.09741664  0.37677215  1
  O  O320  1  0.07017227  0.08439664  0.69033806  1
  O  O321  1  0.08636874  0.58621345  0.03298033  1
  O  O322  1  0.09748602  0.59562581  0.38163245  1
  O  O323  1  0.08351365  0.58124386  0.70065236  1
  O  O324  1  0.58592999  0.08223975  0.04097882  1
  O  O325  1  0.58231404  0.08417981  0.37430793  1
  O  O326  1  0.59248926  0.09281347  0.70844018  1
  O  O327  1  0.59424032  0.57942695  0.01628377  1
  O  O328  1  0.58303571  0.58982690  0.37391044  1
  O  O329  1  0.58675810  0.59207014  0.69959953  1
  O  O330  1  0.41443764  0.41451201  0.12648935  1
  O  O331  1  0.41874380  0.41497389  0.46904811  1
  O  O332  1  0.40978365  0.40351687  0.79188939  1
  O  O333  1  0.41226028  0.93108900  0.12596231  1
  O  O334  1  0.40619512  0.92266940  0.46679767  1
  O  O335  1  0.41029399  0.91751611  0.80437266  1
  O  O336  1  0.90740610  0.41082753  0.12944561  1
  O  O337  1  0.90749307  0.41347436  0.46053398  1
  O  O338  1  0.91422257  0.43038428  0.78292730  1
  O  O339  1  0.91098033  0.91348132  0.12306538  1
  O  O340  1  0.91292618  0.90983326  0.46748493  1
  O  O341  1  0.91419210  0.91260173  0.79694133  1
  O  O342  1  0.42633789  0.40901187  0.29007717  1
  O  O343  1  0.41693465  0.40733043  0.63048877  1
  O  O344  1  0.42160008  0.42009813  0.97196311  1
  O  O345  1  0.40790592  0.92246475  0.31178931  1
  O  O346  1  0.40845058  0.91426969  0.63259000  1
  O  O347  1  0.41178446  0.91641864  0.95611722  1
  O  O348  1  0.90708559  0.40466369  0.29181103  1
  O  O349  1  0.91724561  0.41687693  0.61910638  1
  O  O350  1  0.92072284  0.40992586  0.96162398  1
  O  O351  1  0.90657084  0.90063005  0.28795114  1
  O  O352  1  0.91503304  0.91167957  0.63351585  1
  O  O353  1  0.91690212  0.91147251  0.96397159  1
  O  O354  1  0.08836436  0.09269912  0.21333398  1
  O  O355  1  0.08997616  0.09212589  0.53840777  1
  O  O356  1  0.08614036  0.09950223  0.87726464  1
  O  O357  1  0.07910555  0.58354665  0.18878569  1
  O  O358  1  0.09249333  0.57947379  0.53979598  1
  O  O359  1  0.08839962  0.58469634  0.86678644  1
  O  O360  1  0.58969825  0.08213028  0.20489264  1
  O  O361  1  0.59236585  0.08805188  0.53630606  1
  O  O362  1  0.58430369  0.06492569  0.87143223  1
  O  O363  1  0.58846750  0.56997694  0.20686475  1
  O  O364  1  0.58718611  0.58722793  0.53801087  1
  O  O365  1  0.58718208  0.59134585  0.86241277  1
  O  O366  1  0.13406563  0.21779015  0.06425095  1
  O  O367  1  0.13500803  0.23244505  0.39872028  1
  O  O368  1  0.13516422  0.21826203  0.72807701  1
  O  O369  1  0.13602779  0.72090181  0.05112220  1
  O  O370  1  0.13671843  0.72994271  0.39157146  1
  O  O371  1  0.13848539  0.71565251  0.72436838  1
  O  O372  1  0.64003973  0.21158140  0.04932462  1
  O  O373  1  0.63773196  0.21696584  0.39375802  1
  O  O374  1  0.64581398  0.22518578  0.72387270  1
  O  O375  1  0.64496514  0.71819270  0.05564897  1
  O  O376  1  0.63531323  0.72263001  0.39296171  1
  O  O377  1  0.63813464  0.72717968  0.72609557  1
  O  O378  1  0.28384534  0.36759128  0.12036553  1
  O  O379  1  0.28358210  0.36201867  0.44559479  1
  O  O380  1  0.27380515  0.35564505  0.76858067  1
  O  O381  1  0.28389837  0.86361015  0.10466713  1
  O  O382  1  0.27136629  0.86672929  0.43871019  1
  O  O383  1  0.27631783  0.85714081  0.77208795  1
  O  O384  1  0.77304211  0.36018572  0.10846184  1
  O  O385  1  0.77406354  0.36645269  0.44564045  1
  O  O386  1  0.78561211  0.37022296  0.76892941  1
  O  O387  1  0.77864248  0.85998940  0.10606635  1
  O  O388  1  0.77789222  0.85897972  0.44486143  1
  O  O389  1  0.78149292  0.85835992  0.77950144  1
  O  O390  1  0.36373629  0.27839306  0.27070233  1
  O  O391  1  0.36299575  0.27275802  0.60338849  1
  O  O392  1  0.36095313  0.28618317  0.93941171  1
  O  O393  1  0.35658882  0.78857723  0.29547055  1
  O  O394  1  0.36448750  0.77777731  0.61213714  1
  O  O395  1  0.36635925  0.78345017  0.94434016  1
  O  O396  1  0.86169969  0.27003879  0.27488955  1
  O  O397  1  0.86619930  0.28648053  0.61030109  1
  O  O398  1  0.86469073  0.27987464  0.94838790  1
  O  O399  1  0.86045813  0.76587862  0.27002611  1
  O  O400  1  0.85909169  0.77774455  0.60738736  1
  O  O401  1  0.86359332  0.77751375  0.94182534  1
  O  O402  1  0.22030796  0.13577323  0.22077550  1
  O  O403  1  0.22453962  0.13982279  0.55731718  1
  O  O404  1  0.21976774  0.12776796  0.87741324  1
  O  O405  1  0.21540954  0.63886698  0.22719712  1
  O  O406  1  0.22569973  0.63736259  0.56598859  1
  O  O407  1  0.22474641  0.63577040  0.89158402  1
  O  O408  1  0.72208381  0.13459939  0.22089868  1
  O  O409  1  0.72755823  0.13881541  0.56103666  1
  O  O410  1  0.71376528  0.13322192  0.89511576  1
  O  O411  1  0.71850058  0.63415784  0.22644348  1
  O  O412  1  0.72027560  0.64174703  0.55781950  1
  O  O413  1  0.72098251  0.64569008  0.88398276  1
  O  O414  1  0.49376615  0.32896389  0.02635363  1
  O  O415  1  0.49360121  0.32735845  0.36063031  1
  O  O416  1  0.49177938  0.32505016  0.69656019  1
  O  O417  1  0.49842055  0.84592789  0.02695768  1
  O  O418  1  0.48955566  0.84426558  0.37575703  1
  O  O419  1  0.49132727  0.83980445  0.70248162  1
  O  O420  1  0.99440483  0.33703507  0.03824916  1
  O  O421  1  0.98923094  0.33248651  0.36408510  1
  O  O422  1  1.00070486  0.34581847  0.69040796  1
  O  O423  1  0.99402814  0.83215953  0.03070936  1
  O  O424  1  0.98745004  0.82735172  0.36055775  1
  O  O425  1  0.99139465  0.82713743  0.69420609  1
  O  O426  1  0.15370884  0.00387835  0.14004897  1
  O  O427  1  0.16342197  0.01265377  0.46467530  1
  O  O428  1  0.13910427  0.00183947  0.79893501  1
  O  O429  1  0.16961903  0.50719643  0.13787954  1
  O  O430  1  0.17678347  0.50859499  0.47311960  1
  O  O431  1  0.16729414  0.50603792  0.80204402  1
  O  O432  1  0.66706510  0.00253379  0.13719276  1
  O  O433  1  0.67228528  0.00789313  0.47278265  1
  O  O434  1  0.67111443  0.00250736  0.80560822  1
  O  O435  1  0.66945275  0.50578023  0.13384767  1
  O  O436  1  0.66695896  0.51112010  0.46891109  1
  O  O437  1  0.66863540  0.51370432  0.79871826  1
  O  O438  1  0.00696550  0.17298086  0.30707299  1
  O  O439  1  0.00416219  0.17949482  0.63852062  1
  O  O440  1  0.00475755  0.17417736  0.97250191  1
  O  O441  1  0.01201689  0.66166112  0.30259647  1
  O  O442  1  0.00957191  0.66103393  0.63209809  1
  O  O443  1  0.00543941  0.66381326  0.96641980  1
  O  O444  1  0.50830723  0.16337147  0.30366312  1
  O  O445  1  0.51606417  0.16723073  0.63446169  1
  O  O446  1  0.50274083  0.15777440  0.97526848  1
  O  O447  1  0.50176277  0.66731339  0.30792638  1
  O  O448  1  0.50784219  0.67307220  0.63625238  1
  O  O449  1  0.51310975  0.66970131  0.96918443  1
  O  O450  1  0.34455145  0.50233250  0.19564652  1
  O  O451  1  0.34112672  0.49025803  0.53865480  1
  O  O452  1  0.33285133  0.48328246  0.86121885  1
  O  O453  1  0.32697208  0.99358193  0.19391734  1
  O  O454  1  0.32301657  0.99483959  0.53174401  1
  O  O455  1  0.32022038  0.98960882  0.86090821  1
  O  O456  1  0.83087427  0.48891899  0.19931155  1
  O  O457  1  0.83342274  0.49730804  0.52954140  1
  O  O458  1  0.83708807  0.50183247  0.85623847  1
  O  O459  1  0.83392563  0.98967930  0.19519006  1
  O  O460  1  0.83363486  0.98951074  0.53283053  1
  O  O461  1  0.83471053  0.99009537  0.86424817  1
