# generated using pymatgen
data_Na31Fe20(SO4)36
_symmetry_space_group_name_H-M   'P 1'
_cell_length_a   18.07199623
_cell_length_b   18.07306478
_cell_length_c   19.70749145
_cell_angle_alpha   107.57736187
_cell_angle_beta   107.56195950
_cell_angle_gamma   90.71864152
_symmetry_Int_Tables_number   1
_chemical_formula_structural   Na31Fe20(SO4)36
_chemical_formula_sum   'Na62 Fe40 S72 O288'
_cell_volume   5812.07406800
_cell_formula_units_Z   2
loop_
 _symmetry_equiv_pos_site_id
 _symmetry_equiv_pos_as_xyz
  1  'x, y, z'
loop_
 _atom_site_type_symbol
 _atom_site_label
 _atom_site_symmetry_multiplicity
 _atom_site_fract_x
 _atom_site_fract_y
 _atom_site_fract_z
 _atom_site_occupancy
  Na  Na0  1  0.14274416  0.37082840  0.09961395  1
  Na  Na1  1  0.13704010  0.36596301  0.41896544  1
  Na  Na2  1  0.13626076  0.36597523  0.75348568  1
  Na  Na3  1  0.13715788  0.86923251  0.08205837  1
  Na  Na4  1  0.13156973  0.87970774  0.41471087  1
  Na  Na5  1  0.13315617  0.86360427  0.74435074  1
  Na  Na6  1  0.63163145  0.35472881  0.07703802  1
  Na  Na7  1  0.63139102  0.35902794  0.39987046  1
  Na  Na8  1  0.63542256  0.36393090  0.75321119  1
  Na  Na9  1  0.63459817  0.86291747  0.08505260  1
  Na  Na10  1  0.62872199  0.86227543  0.41298869  1
  Na  Na11  1  0.56956738  0.95083856  0.74203459  1
  Na  Na12  1  0.37847277  0.13830032  0.25319733  1
  Na  Na13  1  0.37391996  0.12555580  0.58265150  1
  Na  Na14  1  0.37118222  0.13309146  0.91606121  1
  Na  Na15  1  0.35870377  0.63144628  0.25072478  1
  Na  Na16  1  0.36464011  0.63657223  0.58750672  1
  Na  Na17  1  0.36934817  0.67373963  0.95060770  1
  Na  Na18  1  0.86292673  0.12442789  0.24735853  1
  Na  Na19  1  0.86862662  0.12291764  0.58180999  1
  Na  Na20  1  0.85879092  0.13157715  0.91191856  1
  Na  Na21  1  0.86442080  0.63406153  0.24622329  1
  Na  Na22  1  0.86388296  0.63679734  0.58400165  1
  Na  Na23  1  0.86185150  0.64042240  0.92112956  1
  Na  Na24  1  0.47533025  0.00282223  0.42897635  1
  Na  Na25  1  0.49128447  0.52302271  0.08832026  1
  Na  Na26  1  0.48937846  0.03592054  0.08967258  1
  Na  Na27  1  0.98837151  0.01179473  0.74017809  1
  Na  Na28  1  0.99139509  0.51306951  0.75002735  1
  Na  Na29  1  0.45385561  0.51095213  0.40855715  1
  Na  Na30  1  0.99299837  0.51260839  0.41433842  1
  Na  Na31  1  0.98590529  0.51335090  0.08122676  1
  Na  Na32  1  0.48786864  0.52285443  0.75175752  1
  Na  Na33  1  0.01165304  0.49152650  0.91564806  1
  Na  Na34  1  0.00182113  0.98973600  0.93937587  1
  Na  Na35  1  0.49817710  0.48264035  0.24971327  1
  Na  Na36  1  0.51088300  0.48062672  0.57810398  1
  Na  Na37  1  0.01337880  0.48765162  0.58090389  1
  Na  Na38  1  0.01830956  0.49150466  0.24920282  1
  Na  Na39  1  0.50755826  0.98708701  0.89657378  1
  Na  Na40  1  0.50790502  0.47774138  0.91367969  1
  Na  Na41  1  0.51588273  0.96216707  0.23125375  1
  Na  Na42  1  0.26654682  0.76448268  0.65568270  1
  Na  Na43  1  0.24190313  0.23793316  0.66753941  1
  Na  Na44  1  0.76549278  0.76780715  0.32479527  1
  Na  Na45  1  0.73344521  0.23522504  0.01367385  1
  Na  Na46  1  0.24282741  0.23804775  0.33817539  1
  Na  Na47  1  0.24751480  0.25049719  0.00276094  1
  Na  Na48  1  0.24583535  0.74926848  0.34071257  1
  Na  Na49  1  0.73988374  0.23439385  0.67482110  1
  Na  Na50  1  0.74447825  0.24639011  0.32375774  1
  Na  Na51  1  0.74090868  0.75709824  0.67841341  1
  Na  Na52  1  0.74815884  0.24129075  0.50101179  1
  Na  Na53  1  0.71679286  0.21747716  0.83683914  1
  Na  Na54  1  0.26778491  0.76581256  0.14944336  1
  Na  Na55  1  0.76447864  0.76856322  0.15661193  1
  Na  Na56  1  0.23886114  0.22828239  0.50168201  1
  Na  Na57  1  0.25517530  0.25464377  0.17314133  1
  Na  Na58  1  0.24993686  0.24757465  0.83449925  1
  Na  Na59  1  0.73551356  0.74665642  0.84629056  1
  Na  Na60  1  0.74750934  0.75494214  0.49925124  1
  Na  Na61  1  0.26536677  0.76071936  0.83254608  1
  Fe  Fe62  1  0.47346521  0.29363791  0.11984942  1
  Fe  Fe63  1  0.95904643  0.30764300  0.44672024  1
  Fe  Fe64  1  0.47274131  0.30192247  0.44634815  1
  Fe  Fe65  1  0.95902170  0.30684356  0.11778667  1
  Fe  Fe66  1  0.96763894  0.81229285  0.45359947  1
  Fe  Fe67  1  0.96568572  0.81443534  0.12508651  1
  Fe  Fe68  1  0.96275446  0.30871493  0.78135567  1
  Fe  Fe69  1  0.96744176  0.80605992  0.78680855  1
  Fe  Fe70  1  0.46929605  0.29591620  0.78557665  1
  Fe  Fe71  1  0.46249901  0.81325155  0.46147615  1
  Fe  Fe72  1  0.19491518  0.53100820  0.71850892  1
  Fe  Fe73  1  0.70272155  0.02591588  0.37297397  1
  Fe  Fe74  1  0.69296125  0.53450731  0.71477664  1
  Fe  Fe75  1  0.20071095  0.53073554  0.38301962  1
  Fe  Fe76  1  0.69874043  0.02978463  0.05215578  1
  Fe  Fe77  1  0.68971274  0.54182928  0.37895046  1
  Fe  Fe78  1  0.69174974  0.53977637  0.04691338  1
  Fe  Fe79  1  0.18675127  0.03583618  0.70752160  1
  Fe  Fe80  1  0.19114813  0.03866323  0.04438351  1
  Fe  Fe81  1  0.19635204  0.53182132  0.05355142  1
  Fe  Fe82  1  0.52760225  0.71028334  0.88248447  1
  Fe  Fe83  1  0.53079079  0.69452632  0.55068420  1
  Fe  Fe84  1  0.52715192  0.70276785  0.21472117  1
  Fe  Fe85  1  0.03998678  0.69323170  0.88731274  1
  Fe  Fe86  1  0.03795482  0.69355393  0.54943884  1
  Fe  Fe87  1  0.54024698  0.18833914  0.54427568  1
  Fe  Fe88  1  0.03327785  0.18410972  0.53822835  1
  Fe  Fe89  1  0.03252044  0.18848348  0.21445217  1
  Fe  Fe90  1  0.03213151  0.19786833  0.88081872  1
  Fe  Fe91  1  0.03874194  0.69366504  0.21792298  1
  Fe  Fe92  1  0.30887368  0.46408308  0.95558449  1
  Fe  Fe93  1  0.80495245  0.46826265  0.94844329  1
  Fe  Fe94  1  0.81296442  0.96380045  0.95511512  1
  Fe  Fe95  1  0.31018905  0.96365555  0.62103302  1
  Fe  Fe96  1  0.30882755  0.46027662  0.62086429  1
  Fe  Fe97  1  0.79878498  0.96632589  0.62542948  1
  Fe  Fe98  1  0.31223021  0.96177593  0.95424167  1
  Fe  Fe99  1  0.80606914  0.46608279  0.61487965  1
  Fe  Fe100  1  0.29874535  0.97032338  0.28597488  1
  Fe  Fe101  1  0.80570342  0.46995789  0.28233807  1
  S  S102  1  0.35211187  0.14201842  0.07638736  1
  S  S103  1  0.36357213  0.14193778  0.41305295  1
  S  S104  1  0.35566575  0.14087909  0.74830258  1
  S  S105  1  0.35881474  0.63763658  0.08727416  1
  S  S106  1  0.35720353  0.64279455  0.41953473  1
  S  S107  1  0.35708094  0.63776849  0.75304785  1
  S  S108  1  0.85960849  0.14070448  0.08460146  1
  S  S109  1  0.85821790  0.14432975  0.41843969  1
  S  S110  1  0.85990885  0.14328129  0.75029054  1
  S  S111  1  0.86247520  0.63963586  0.08376409  1
  S  S112  1  0.86240432  0.64170904  0.41828234  1
  S  S113  1  0.86284782  0.63807825  0.75008646  1
  S  S114  1  0.13389844  0.35877579  0.25102561  1
  S  S115  1  0.13918835  0.35931633  0.58293446  1
  S  S116  1  0.13699089  0.36283077  0.91627778  1
  S  S117  1  0.14328152  0.85408161  0.24393749  1
  S  S118  1  0.14022258  0.85827533  0.58392151  1
  S  S119  1  0.14085055  0.85834518  0.91546892  1
  S  S120  1  0.64113163  0.36811547  0.24788560  1
  S  S121  1  0.64375117  0.35887299  0.58208792  1
  S  S122  1  0.64291333  0.36304597  0.91577196  1
  S  S123  1  0.64253398  0.85297668  0.25328276  1
  S  S124  1  0.63896381  0.85517473  0.58635999  1
  S  S125  1  0.64305901  0.86642760  0.91524686  1
  S  S126  1  0.06567091  0.17723943  0.04272812  1
  S  S127  1  0.06509732  0.17659130  0.38054339  1
  S  S128  1  0.06604244  0.17619162  0.70942313  1
  S  S129  1  0.06730192  0.66148379  0.04183469  1
  S  S130  1  0.06745269  0.66368079  0.37462857  1
  S  S131  1  0.06837484  0.66367209  0.70986786  1
  S  S132  1  0.56501643  0.15810102  0.03801760  1
  S  S133  1  0.57670651  0.16670163  0.37373084  1
  S  S134  1  0.56984287  0.16898153  0.70640789  1
  S  S135  1  0.56682690  0.66643494  0.04175057  1
  S  S136  1  0.56176944  0.66712940  0.37597759  1
  S  S137  1  0.56670285  0.65739978  0.70754080  1
  S  S138  1  0.33383585  0.43073404  0.12482509  1
  S  S139  1  0.33247512  0.42880353  0.45982621  1
  S  S140  1  0.33058403  0.42546105  0.79094619  1
  S  S141  1  0.32909181  0.94269799  0.12294115  1
  S  S142  1  0.32853032  0.93508832  0.45685352  1
  S  S143  1  0.32237304  0.93598539  0.78753904  1
  S  S144  1  0.83046415  0.43597747  0.12128646  1
  S  S145  1  0.82985518  0.43762165  0.45571113  1
  S  S146  1  0.83226451  0.43551546  0.78801210  1
  S  S147  1  0.83229466  0.93361879  0.12438167  1
  S  S148  1  0.82562061  0.92811917  0.46121868  1
  S  S149  1  0.85074555  0.93418062  0.79864243  1
  S  S150  1  0.43697103  0.33224241  0.28901798  1
  S  S151  1  0.43590715  0.32967729  0.62372622  1
  S  S152  1  0.43187892  0.33318618  0.95898068  1
  S  S153  1  0.42639973  0.83075629  0.29448368  1
  S  S154  1  0.43155620  0.82481617  0.62485700  1
  S  S155  1  0.44110472  0.84525784  0.96188761  1
  S  S156  1  0.93012804  0.33807887  0.29417888  1
  S  S157  1  0.93532262  0.33784070  0.62388693  1
  S  S158  1  0.93046716  0.33457716  0.95672434  1
  S  S159  1  0.93454029  0.82442168  0.28728034  1
  S  S160  1  0.93120065  0.82583584  0.62285909  1
  S  S161  1  0.93437354  0.82284926  0.95499011  1
  S  S162  1  0.17249589  0.07220192  0.20555187  1
  S  S163  1  0.17341175  0.06711826  0.54452843  1
  S  S164  1  0.16160609  0.06912862  0.87099441  1
  S  S165  1  0.16542204  0.56473593  0.21176381  1
  S  S166  1  0.17006345  0.56455078  0.54584203  1
  S  S167  1  0.17089548  0.56628079  0.87801439  1
  S  S168  1  0.67139910  0.05632254  0.21134409  1
  S  S169  1  0.67410700  0.06491598  0.53638412  1
  S  S170  1  0.67941947  0.05873911  0.88397457  1
  S  S171  1  0.66902777  0.57619738  0.20981638  1
  S  S172  1  0.66885220  0.56714392  0.54195838  1
  S  S173  1  0.66737134  0.56819886  0.87384083  1
  O  O174  1  0.36853224  0.21965553  0.06748084  1
  O  O175  1  0.38073035  0.21847780  0.40121635  1
  O  O176  1  0.36614592  0.21928651  0.73706677  1
  O  O177  1  0.36344346  0.71434800  0.07865347  1
  O  O178  1  0.36577604  0.72393161  0.41667185  1
  O  O179  1  0.35884612  0.71179255  0.73831309  1
  O  O180  1  0.86620540  0.21953273  0.07403273  1
  O  O181  1  0.85872971  0.22862271  0.41997735  1
  O  O182  1  0.87292828  0.21979776  0.73659002  1
  O  O183  1  0.87389462  0.71845764  0.07854514  1
  O  O184  1  0.87091938  0.71992726  0.40990563  1
  O  O185  1  0.87208433  0.71549351  0.73966744  1
  O  O186  1  0.26894347  0.14110843  0.07726721  1
  O  O187  1  0.28539000  0.14080408  0.41934192  1
  O  O188  1  0.27171146  0.13576031  0.74920557  1
  O  O189  1  0.28230568  0.62312043  0.09980901  1
  O  O190  1  0.27900224  0.63008807  0.42785667  1
  O  O191  1  0.27970452  0.62270886  0.76364678  1
  O  O192  1  0.78003094  0.13005116  0.09148765  1
  O  O193  1  0.77774986  0.12577403  0.42359080  1
  O  O194  1  0.78313141  0.13827555  0.75904500  1
  O  O195  1  0.78430495  0.63062607  0.09336192  1
  O  O196  1  0.78482372  0.63223620  0.42926136  1
  O  O197  1  0.78418348  0.62904223  0.75831323  1
  O  O198  1  0.12174399  0.28105349  0.26125887  1
  O  O199  1  0.12902175  0.27915639  0.58719802  1
  O  O200  1  0.12895977  0.28285599  0.92257588  1
  O  O201  1  0.13807079  0.77153579  0.24724577  1
  O  O202  1  0.12937703  0.78070914  0.59665055  1
  O  O203  1  0.13274882  0.78196463  0.92786833  1
  O  O204  1  0.63753702  0.29597466  0.26528310  1
  O  O205  1  0.63637681  0.27982772  0.58939370  1
  O  O206  1  0.64009521  0.28526302  0.92301540  1
  O  O207  1  0.62365730  0.78132763  0.27242705  1
  O  O208  1  0.63053862  0.77188008  0.58769056  1
  O  O209  1  0.62816168  0.78470563  0.91563494  1
  O  O210  1  0.20681734  0.36440563  0.23502327  1
  O  O211  1  0.21788062  0.36780018  0.57379566  1
  O  O212  1  0.21365837  0.37133838  0.90386290  1
  O  O213  1  0.22129051  0.86667979  0.23313231  1
  O  O214  1  0.22119740  0.86630547  0.58248401  1
  O  O215  1  0.22061420  0.87072972  0.91083745  1
  O  O216  1  0.71766047  0.38279673  0.23690963  1
  O  O217  1  0.72197556  0.36943099  0.57280947  1
  O  O218  1  0.71759803  0.37798935  0.90032510  1
  O  O219  1  0.72269633  0.85174622  0.25136100  1
  O  O220  1  0.72111216  0.86477675  0.58286674  1
  O  O221  1  0.72483539  0.87131139  0.91172857  1
  O  O222  1  0.40462186  0.13061054  0.14375203  1
  O  O223  1  0.42229667  0.13410618  0.48223808  1
  O  O224  1  0.40865465  0.13695275  0.81829591  1
  O  O225  1  0.42078023  0.62869903  0.15416595  1
  O  O226  1  0.41720233  0.63154424  0.48728746  1
  O  O227  1  0.41871894  0.63593458  0.82286927  1
  O  O228  1  0.91743694  0.13846793  0.15522082  1
  O  O229  1  0.91496180  0.13966782  0.48989711  1
  O  O230  1  0.92110475  0.13806733  0.81925658  1
  O  O231  1  0.92211302  0.62510789  0.14847681  1
  O  O232  1  0.92329444  0.63181305  0.48493806  1
  O  O233  1  0.92265141  0.62930317  0.81752727  1
  O  O234  1  0.35827338  0.08144053  0.00794379  1
  O  O235  1  0.37221475  0.07934686  0.34736053  1
  O  O236  1  0.36448647  0.08075425  0.68144817  1
  O  O237  1  0.36735467  0.57717546  0.01909895  1
  O  O238  1  0.36631091  0.58695463  0.35181072  1
  O  O239  1  0.36810727  0.57327574  0.68824945  1
  O  O240  1  0.87204754  0.08217241  0.01886761  1
  O  O241  1  0.87143098  0.09377378  0.35248438  1
  O  O242  1  0.86934270  0.08036323  0.68470260  1
  O  O243  1  0.86827502  0.58072549  0.01336622  1
  O  O244  1  0.86961085  0.58191220  0.34982213  1
  O  O245  1  0.87122181  0.57762162  0.68213217  1
  O  O246  1  0.06835419  0.37052326  0.18722161  1
  O  O247  1  0.07962984  0.37414062  0.51873785  1
  O  O248  1  0.07515488  0.37399054  0.85097031  1
  O  O249  1  0.08350083  0.85834993  0.17372972  1
  O  O250  1  0.08510387  0.85900884  0.51116134  1
  O  O251  1  0.08456381  0.85958239  0.84273837  1
  O  O252  1  0.57931758  0.36934068  0.17760581  1
  O  O253  1  0.58350372  0.36861172  0.51529661  1
  O  O254  1  0.57808773  0.37259340  0.85124909  1
  O  O255  1  0.58643998  0.85862863  0.18461155  1
  O  O256  1  0.58438434  0.86029869  0.51419286  1
  O  O257  1  0.58783703  0.88539385  0.85396657  1
  O  O258  1  0.13112874  0.41914897  0.32158833  1
  O  O259  1  0.13361375  0.41632306  0.65391257  1
  O  O260  1  0.13074151  0.42017075  0.98607361  1
  O  O261  1  0.13572152  0.90911921  0.31102331  1
  O  O262  1  0.12512149  0.91905901  0.64709537  1
  O  O263  1  0.12566107  0.92070204  0.97805294  1
  O  O264  1  0.62856567  0.43358548  0.31130649  1
  O  O265  1  0.63574991  0.41717910  0.65081638  1
  O  O266  1  0.63732170  0.42245670  0.98588618  1
  O  O267  1  0.63473060  0.92043315  0.31928906  1
  O  O268  1  0.62935754  0.91051630  0.65206812  1
  O  O269  1  0.63958914  0.92058604  0.98997349  1
  O  O270  1  0.02974388  0.20456995  0.10416928  1
  O  O271  1  0.02357722  0.21258685  0.43943819  1
  O  O272  1  0.03153660  0.20880706  0.77204085  1
  O  O273  1  0.03023698  0.69000436  0.10125378  1
  O  O274  1  0.03313215  0.69599662  0.43696983  1
  O  O275  1  0.03239968  0.69343761  0.77088635  1
  O  O276  1  0.53252473  0.18990256  0.10081245  1
  O  O277  1  0.54504438  0.19633093  0.44021172  1
  O  O278  1  0.52921007  0.20234417  0.76252526  1
  O  O279  1  0.53054953  0.68225135  0.10168719  1
  O  O280  1  0.52538327  0.69392372  0.43673437  1
  O  O281  1  0.53345138  0.68043894  0.76905479  1
  O  O282  1  0.29664348  0.45939099  0.05734377  1
  O  O283  1  0.30260998  0.46603416  0.40127042  1
  O  O284  1  0.29839735  0.46114696  0.72952411  1
  O  O285  1  0.29210265  0.97883541  0.06073496  1
  O  O286  1  0.31048618  0.97390090  0.39867214  1
  O  O287  1  0.28764392  0.97349524  0.72718008  1
  O  O288  1  0.80141547  0.47167100  0.05981297  1
  O  O289  1  0.79965244  0.47288364  0.39446650  1
  O  O290  1  0.80053154  0.47018640  0.72603725  1
  O  O291  1  0.79795193  0.97144711  0.06160287  1
  O  O292  1  0.79767880  0.96834065  0.40373278  1
  O  O293  1  0.82110156  0.96818719  0.73799412  1
  O  O294  1  0.46622289  0.29849326  0.22514335  1
  O  O295  1  0.47282108  0.30259175  0.56284413  1
  O  O296  1  0.46323607  0.31269871  0.89588451  1
  O  O297  1  0.46347482  0.80332843  0.23521918  1
  O  O298  1  0.46864200  0.79571010  0.56147833  1
  O  O299  1  0.46811191  0.81024418  0.89575527  1
  O  O300  1  0.95903863  0.30225001  0.22963446  1
  O  O301  1  0.97056977  0.30808587  0.56311425  1
  O  O302  1  0.96729703  0.30459664  0.89583713  1
  O  O303  1  0.97628181  0.79074014  0.22858892  1
  O  O304  1  0.96760339  0.79850867  0.56129653  1
  O  O305  1  0.97306399  0.79456406  0.89406916  1
  O  O306  1  0.20237950  0.03473263  0.26355803  1
  O  O307  1  0.20413483  0.02847565  0.60529322  1
  O  O308  1  0.18929601  0.03188835  0.93059046  1
  O  O309  1  0.18321496  0.52912127  0.27177428  1
  O  O310  1  0.19785899  0.52695956  0.60635042  1
  O  O311  1  0.20083585  0.53238590  0.94061585  1
  O  O312  1  0.70658784  0.02054378  0.27199660  1
  O  O313  1  0.69962159  0.02756594  0.59496506  1
  O  O314  1  0.71277625  0.02969793  0.95304391  1
  O  O315  1  0.70469815  0.54367175  0.27302559  1
  O  O316  1  0.70014251  0.52946242  0.60259685  1
  O  O317  1  0.70211802  0.53652409  0.93795535  1
  O  O318  1  0.08570371  0.09612473  0.03477261  1
  O  O319  1  0.08540167  0.10156385  0.38524285  1
  O  O320  1  0.08237974  0.09528438  0.70696228  1
  O  O321  1  0.08385574  0.57793322  0.03652634  1
  O  O322  1  0.08533794  0.58192180  0.37410014  1
  O  O323  1  0.08279702  0.57980359  0.70414711  1
  O  O324  1  0.60360538  0.08557524  0.05051316  1
  O  O325  1  0.60556800  0.08834412  0.37277988  1
  O  O326  1  0.59390639  0.09402955  0.71032531  1
  O  O327  1  0.58080067  0.58012981  0.02311102  1
  O  O328  1  0.57706753  0.58312310  0.36670046  1
  O  O329  1  0.58019943  0.57107428  0.69408832  1
  O  O330  1  0.41332178  0.40896935  0.12339730  1
  O  O331  1  0.41515210  0.41175938  0.46351620  1
  O  O332  1  0.41170182  0.40828983  0.79304244  1
  O  O333  1  0.41049412  0.93597390  0.12541183  1
  O  O334  1  0.41142867  0.91517119  0.46856293  1
  O  O335  1  0.40230441  0.92326259  0.79104773  1
  O  O336  1  0.91415125  0.42109102  0.12860232  1
  O  O337  1  0.91287143  0.42132137  0.46138319  1
  O  O338  1  0.91603106  0.42213680  0.79372408  1
  O  O339  1  0.90583154  0.90492921  0.11199656  1
  O  O340  1  0.90386286  0.90511587  0.46092720  1
  O  O341  1  0.93591130  0.92057218  0.80589627  1
  O  O342  1  0.42827120  0.41565181  0.29913363  1
  O  O343  1  0.42158100  0.41408942  0.63269239  1
  O  O344  1  0.42073274  0.41970658  0.97691996  1
  O  O345  1  0.40676126  0.91230578  0.29905013  1
  O  O346  1  0.40617536  0.90273114  0.62299398  1
  O  O347  1  0.42462255  0.92888865  0.96398796  1
  O  O348  1  0.91600882  0.42129399  0.29595856  1
  O  O349  1  0.91940346  0.42144312  0.62876067  1
  O  O350  1  0.91581300  0.41795623  0.96069754  1
  O  O351  1  0.91337490  0.89989865  0.28542024  1
  O  O352  1  0.91184326  0.90686183  0.63257182  1
  O  O353  1  0.91865248  0.90471477  0.96125517  1
  O  O354  1  0.09403866  0.09531250  0.20526120  1
  O  O355  1  0.09989329  0.09851713  0.55538567  1
  O  O356  1  0.07963872  0.08880659  0.86590548  1
  O  O357  1  0.08081510  0.58214481  0.19638011  1
  O  O358  1  0.08577304  0.57877878  0.53772744  1
  O  O359  1  0.08684269  0.58071879  0.87119469  1
  O  O360  1  0.58721694  0.05657050  0.19989582  1
  O  O361  1  0.59115294  0.08159658  0.52478969  1
  O  O362  1  0.59637033  0.06489445  0.87270165  1
  O  O363  1  0.58765287  0.59157932  0.20821955  1
  O  O364  1  0.58626314  0.58090763  0.53652356  1
  O  O365  1  0.58568547  0.58310436  0.87002814  1
  O  O366  1  0.13563977  0.23152799  0.05928258  1
  O  O367  1  0.13466241  0.23353423  0.39838061  1
  O  O368  1  0.13838993  0.22756602  0.72610386  1
  O  O369  1  0.13801646  0.71117122  0.05477318  1
  O  O370  1  0.13593818  0.71378345  0.38343657  1
  O  O371  1  0.14058502  0.71269736  0.72510401  1
  O  O372  1  0.62447875  0.21620396  0.04091777  1
  O  O373  1  0.64407867  0.22410040  0.38854810  1
  O  O374  1  0.63823097  0.22747643  0.72200558  1
  O  O375  1  0.64031028  0.71606536  0.06314555  1
  O  O376  1  0.63565018  0.71608167  0.39479186  1
  O  O377  1  0.64101148  0.70372195  0.72313847  1
  O  O378  1  0.28137559  0.36118351  0.11391945  1
  O  O379  1  0.28255558  0.35689080  0.44593164  1
  O  O380  1  0.27811749  0.35473641  0.77581492  1
  O  O381  1  0.28130138  0.86857725  0.10474890  1
  O  O382  1  0.27350870  0.86520550  0.43634459  1
  O  O383  1  0.27105749  0.86223660  0.76903832  1
  O  O384  1  0.78082192  0.36441609  0.10582487  1
  O  O385  1  0.77931279  0.36674392  0.44175931  1
  O  O386  1  0.78452599  0.36285447  0.77321347  1
  O  O387  1  0.77556827  0.86722347  0.11051462  1
  O  O388  1  0.77017160  0.85783788  0.44332286  1
  O  O389  1  0.80540508  0.86053944  0.78616260  1
  O  O390  1  0.36341598  0.28631883  0.27866881  1
  O  O391  1  0.36230648  0.28061695  0.60542252  1
  O  O392  1  0.35635150  0.28630127  0.94086920  1
  O  O393  1  0.35611716  0.77706020  0.27862334  1
  O  O394  1  0.36352163  0.76800206  0.60632199  1
  O  O395  1  0.36568097  0.80046825  0.94923315  1
  O  O396  1  0.86021453  0.29264977  0.28964574  1
  O  O397  1  0.86364072  0.28914542  0.61128432  1
  O  O398  1  0.85829562  0.28527551  0.94082422  1
  O  O399  1  0.86615096  0.76567753  0.26844835  1
  O  O400  1  0.86084071  0.77151191  0.60532548  1
  O  O401  1  0.86234795  0.77108198  0.93425572  1
  O  O402  1  0.22663698  0.14227323  0.21898431  1
  O  O403  1  0.23179766  0.13490991  0.56090673  1
  O  O404  1  0.21428109  0.14037490  0.88724586  1
  O  O405  1  0.21840126  0.63515280  0.23019822  1
  O  O406  1  0.21939854  0.63702432  0.56424169  1
  O  O407  1  0.21908612  0.63702579  0.88940675  1
  O  O408  1  0.71482447  0.13266870  0.22973487  1
  O  O409  1  0.72596246  0.13851775  0.55659801  1
  O  O410  1  0.72572141  0.13648165  0.90584487  1
  O  O411  1  0.71905522  0.64670186  0.22105913  1
  O  O412  1  0.71991924  0.63999413  0.56118356  1
  O  O413  1  0.71759438  0.63763055  0.88376618  1
  O  O414  1  0.49023281  0.32210897  0.02596101  1
  O  O415  1  0.49768448  0.32803014  0.36013668  1
  O  O416  1  0.49337153  0.32897346  0.69582219  1
  O  O417  1  0.50067865  0.84869329  0.03197977  1
  O  O418  1  0.48541415  0.83571073  0.36905230  1
  O  O419  1  0.49222550  0.83100936  0.69469685  1
  O  O420  1  0.98933217  0.33829410  0.03008939  1
  O  O421  1  0.99438032  0.34576544  0.36647277  1
  O  O422  1  0.99503728  0.34280986  0.69766167  1
  O  O423  1  0.99261036  0.81963848  0.02533359  1
  O  O424  1  0.99227544  0.82452310  0.36076288  1
  O  O425  1  0.99184835  0.82344442  0.69328787  1
  O  O426  1  0.16370790  0.01377950  0.12969673  1
  O  O427  1  0.15994558  0.00966579  0.47199161  1
  O  O428  1  0.15648810  0.01068744  0.79696368  1
  O  O429  1  0.16797361  0.50488933  0.14074496  1
  O  O430  1  0.17061361  0.50629118  0.47373516  1
  O  O431  1  0.16714831  0.50346996  0.80609841  1
  O  O432  1  0.68207792  0.00249321  0.13958814  1
  O  O433  1  0.67660623  0.00847735  0.46314624  1
  O  O434  1  0.69482038  0.00266665  0.82073012  1
  O  O435  1  0.66423464  0.51461518  0.13725544  1
  O  O436  1  0.67001822  0.51024918  0.46958192  1
  O  O437  1  0.66515541  0.50488521  0.80253763  1
  O  O438  1  0.00710928  0.17547800  0.30742045  1
  O  O439  1  0.00730596  0.17647315  0.63829300  1
  O  O440  1  0.00517138  0.17562116  0.97095560  1
  O  O441  1  0.00520551  0.65454878  0.30096862  1
  O  O442  1  0.00931404  0.66067063  0.63661944  1
  O  O443  1  0.00730741  0.65546253  0.96730102  1
  O  O444  1  0.51332172  0.15804428  0.30515820  1
  O  O445  1  0.51376439  0.16302233  0.62925875  1
  O  O446  1  0.50165049  0.12920522  0.96607012  1
  O  O447  1  0.50420224  0.66902319  0.30442713  1
  O  O448  1  0.50741649  0.65941805  0.63641687  1
  O  O449  1  0.50915853  0.67493343  0.97243637  1
  O  O450  1  0.34160518  0.49496264  0.19338293  1
  O  O451  1  0.33787628  0.48731373  0.53497479  1
  O  O452  1  0.33492484  0.48466190  0.86405018  1
  O  O453  1  0.32678988  0.99844029  0.19583285  1
  O  O454  1  0.32752682  0.99217999  0.52943015  1
  O  O455  1  0.31827104  0.99196074  0.85991820  1
  O  O456  1  0.83173345  0.49636261  0.19314183  1
  O  O457  1  0.83379344  0.49768445  0.52877812  1
  O  O458  1  0.83426206  0.49564790  0.86005862  1
  O  O459  1  0.84757479  0.99433286  0.19558714  1
  O  O460  1  0.83189436  0.98440324  0.53643322  1
  O  O461  1  0.85546758  0.99320293  0.87283526  1
