# generated using pymatgen
data_Na31Fe20(SO4)36
_symmetry_space_group_name_H-M   'P 1'
_cell_length_a   18.08203525
_cell_length_b   18.08097919
_cell_length_c   19.70271388
_cell_angle_alpha   107.58185188
_cell_angle_beta   107.61624686
_cell_angle_gamma   90.69826035
_symmetry_Int_Tables_number   1
_chemical_formula_structural   Na31Fe20(SO4)36
_chemical_formula_sum   'Na62 Fe40 S72 O288'
_cell_volume   5814.56741353
_cell_formula_units_Z   2
loop_
 _symmetry_equiv_pos_site_id
 _symmetry_equiv_pos_as_xyz
  1  'x, y, z'
loop_
 _atom_site_type_symbol
 _atom_site_label
 _atom_site_symmetry_multiplicity
 _atom_site_fract_x
 _atom_site_fract_y
 _atom_site_fract_z
 _atom_site_occupancy
  Na  Na0  1  0.12696600  0.36458592  0.08039911  1
  Na  Na1  1  0.12743691  0.36157044  0.41556644  1
  Na  Na2  1  0.12904559  0.35074689  0.74030463  1
  Na  Na3  1  0.13526105  0.86753023  0.08629397  1
  Na  Na4  1  0.12918482  0.86421936  0.41217969  1
  Na  Na5  1  0.12634909  0.85816203  0.73438584  1
  Na  Na6  1  0.64092324  0.37519740  0.07671009  1
  Na  Na7  1  0.63395667  0.36464362  0.41688244  1
  Na  Na8  1  0.65914249  0.37377348  0.76823555  1
  Na  Na9  1  0.64959763  0.87054726  0.10169664  1
  Na  Na10  1  0.63434729  0.86770100  0.41835313  1
  Na  Na11  1  0.63885932  0.86394342  0.75168557  1
  Na  Na12  1  0.37411810  0.13257932  0.25401198  1
  Na  Na13  1  0.38059242  0.13852128  0.58533753  1
  Na  Na14  1  0.36539365  0.12997483  0.91072441  1
  Na  Na15  1  0.36263431  0.63915736  0.25568772  1
  Na  Na16  1  0.35927316  0.63288465  0.58059560  1
  Na  Na17  1  0.37251947  0.62840536  0.92051175  1
  Na  Na18  1  0.86051531  0.13581158  0.25198101  1
  Na  Na19  1  0.87323913  0.15150916  0.59994460  1
  Na  Na20  1  0.85391319  0.13120029  0.90447556  1
  Na  Na21  1  0.85746586  0.63046186  0.24023853  1
  Na  Na22  1  0.87083816  0.63556510  0.57823155  1
  Na  Na23  1  0.86290308  0.63114863  0.91622040  1
  Na  Na24  1  0.50233408  0.05054097  0.43336432  1
  Na  Na25  1  0.51943527  0.47430521  0.79922555  1
  Na  Na26  1  1.00347287  0.49747561  0.74345376  1
  Na  Na27  1  0.49782472  -0.00483370  0.09796698  1
  Na  Na28  1  0.93689806  0.50245360  0.06346864  1
  Na  Na29  1  0.98786429  0.01006164  0.09512348  1
  Na  Na30  1  0.99117658  0.02432679  0.73817146  1
  Na  Na31  1  0.54021639  -0.00947103  0.68761634  1
  Na  Na32  1  0.49129970  0.50739090  0.41674082  1
  Na  Na33  1  0.00852678  0.99955498  0.54821279  1
  Na  Na34  1  0.00861516  0.45729931  0.54462576  1
  Na  Na35  1  -0.00769125  0.42513143  0.88714341  1
  Na  Na36  1  0.50925262  0.47656644  0.59207592  1
  Na  Na37  1  0.51243364  0.99367110  0.90807895  1
  Na  Na38  1  -0.04433252  1.01775241  0.31161527  1
  Na  Na39  1  -0.01623419  0.50529720  0.27897959  1
  Na  Na40  1  0.00485446  0.99466659  0.91436051  1
  Na  Na41  1  0.51862164  0.49435909  0.23233546  1
  Na  Na42  1  0.24124284  0.74288545  0.00608078  1
  Na  Na43  1  0.24277830  0.24079800  0.35157778  1
  Na  Na44  1  0.73616154  0.72710052  0.00975623  1
  Na  Na45  1  0.75921285  0.75683788  0.64878548  1
  Na  Na46  1  0.25556801  0.25210107  -0.00126295  1
  Na  Na47  1  0.76157555  0.25944361  0.33310559  1
  Na  Na48  1  0.26365301  0.25817596  0.65031782  1
  Na  Na49  1  0.73989764  0.73944117  0.34882197  1
  Na  Na50  1  0.74412750  0.24163972  0.67934256  1
  Na  Na51  1  0.23202361  0.73850043  0.66185956  1
  Na  Na52  1  0.74938960  0.75048860  0.83267890  1
  Na  Na53  1  0.24470528  0.24390323  0.17219459  1
  Na  Na54  1  0.73390753  0.23674816  0.84870122  1
  Na  Na55  1  0.26007314  0.25597114  0.82700521  1
  Na  Na56  1  0.75971450  0.26032794  0.15504496  1
  Na  Na57  1  0.25256295  0.75981545  0.48498992  1
  Na  Na58  1  0.74143618  0.73979085  0.17770357  1
  Na  Na59  1  0.23797407  0.73916965  0.18310100  1
  Na  Na60  1  0.24639989  0.74578965  0.83688480  1
  Na  Na61  1  0.75553329  0.25098778  0.50418155  1
  Fe  Fe62  1  0.46258937  0.80426055  0.78339876  1
  Fe  Fe63  1  0.96238656  0.31080543  0.12326499  1
  Fe  Fe64  1  0.96601303  0.80079513  0.45378777  1
  Fe  Fe65  1  0.46314655  0.81018753  0.12181124  1
  Fe  Fe66  1  0.46679500  0.30439566  0.11834477  1
  Fe  Fe67  1  0.46391117  0.81130078  0.45211703  1
  Fe  Fe68  1  0.96745446  0.80596526  0.78299297  1
  Fe  Fe69  1  0.96624707  0.81397317  0.12519368  1
  Fe  Fe70  1  0.46974398  0.30434686  0.78749749  1
  Fe  Fe71  1  0.47398595  0.29535636  0.45655865  1
  Fe  Fe72  1  0.70052061  0.02851213  0.37707695  1
  Fe  Fe73  1  0.69489786  0.03557790  0.05118719  1
  Fe  Fe74  1  0.19410344  0.03650400  0.71066761  1
  Fe  Fe75  1  0.19106613  0.53226596  0.71088230  1
  Fe  Fe76  1  0.69000924  0.54346689  0.38455994  1
  Fe  Fe77  1  0.19161384  0.03572206  0.04613567  1
  Fe  Fe78  1  0.19196362  0.53524805  0.38416975  1
  Fe  Fe79  1  0.19198870  0.03583722  0.37985471  1
  Fe  Fe80  1  0.69253086  0.53688361  0.71403075  1
  Fe  Fe81  1  0.19128649  0.53260487  0.04778285  1
  Fe  Fe82  1  0.53728092  0.19290099  0.21434360  1
  Fe  Fe83  1  0.03199283  0.19684064  0.21886515  1
  Fe  Fe84  1  0.02760804  0.20069593  0.54116251  1
  Fe  Fe85  1  0.53096413  0.69482884  0.88329740  1
  Fe  Fe86  1  0.53407992  0.69401128  0.54795016  1
  Fe  Fe87  1  0.53281844  0.69054298  0.21080619  1
  Fe  Fe88  1  0.03260558  0.19694180  0.87769838  1
  Fe  Fe89  1  0.54192528  0.19315926  0.88168374  1
  Fe  Fe90  1  0.03321591  0.69229526  0.87949385  1
  Fe  Fe91  1  0.03725278  0.69131805  0.21600822  1
  Fe  Fe92  1  0.31221326  0.46168591  0.62109078  1
  Fe  Fe93  1  0.30902044  0.96352776  0.28598375  1
  Fe  Fe94  1  0.30646337  0.46468874  0.28797997  1
  Fe  Fe95  1  0.30660830  0.96727724  0.61488400  1
  Fe  Fe96  1  0.81219754  0.46567333  0.61741045  1
  Fe  Fe97  1  0.80549233  0.46956628  0.28978875  1
  Fe  Fe98  1  0.30602651  0.96625435  0.95067409  1
  Fe  Fe99  1  0.80018703  0.96729824  0.62331693  1
  Fe  Fe100  1  0.80393842  0.96540487  0.95132917  1
  Fe  Fe101  1  0.31300003  0.46513769  0.95868502  1
  S  S102  1  0.35897742  0.13917108  0.08309820  1
  S  S103  1  0.35843618  0.13853826  0.41278945  1
  S  S104  1  0.36372294  0.13750532  0.75153964  1
  S  S105  1  0.35579852  0.64185917  0.08481979  1
  S  S106  1  0.36019287  0.64028799  0.41872553  1
  S  S107  1  0.35650252  0.64170526  0.74931229  1
  S  S108  1  0.86123979  0.13932691  0.08253584  1
  S  S109  1  0.85600520  0.14265234  0.42036359  1
  S  S110  1  0.86277618  0.13852540  0.75063031  1
  S  S111  1  0.86273356  0.64819849  0.08404849  1
  S  S112  1  0.85912192  0.64193092  0.41644656  1
  S  S113  1  0.85891638  0.64372700  0.74646615  1
  S  S114  1  0.14231433  0.35821177  0.25177412  1
  S  S115  1  0.14738758  0.35728371  0.58718126  1
  S  S116  1  0.14772417  0.35663967  0.91791656  1
  S  S117  1  0.14165786  0.85997346  0.24855233  1
  S  S118  1  0.14057958  0.86343044  0.58096034  1
  S  S119  1  0.14052907  0.86074817  0.91607114  1
  S  S120  1  0.63827308  0.36217638  0.25005127  1
  S  S121  1  0.64420891  0.36024084  0.58238065  1
  S  S122  1  0.63980526  0.36477540  0.91648796  1
  S  S123  1  0.63717678  0.86053290  0.24983459  1
  S  S124  1  0.63827466  0.85659860  0.58330749  1
  S  S125  1  0.63686778  0.86046720  0.91890895  1
  S  S126  1  0.06602322  0.16805246  0.04184843  1
  S  S127  1  0.06600472  0.16641747  0.37276321  1
  S  S128  1  0.07294653  0.16380122  0.70480555  1
  S  S129  1  0.07057509  0.67072410  0.04216872  1
  S  S130  1  0.06848423  0.67025656  0.37610848  1
  S  S131  1  0.06586559  0.66870585  0.71037720  1
  S  S132  1  0.56563879  0.16665780  0.04347064  1
  S  S133  1  0.57463570  0.16829810  0.37367107  1
  S  S134  1  0.57191711  0.17889745  0.71486747  1
  S  S135  1  0.56383990  0.67456065  0.04743701  1
  S  S136  1  0.56008106  0.66804516  0.37313381  1
  S  S137  1  0.56313092  0.67143337  0.70770252  1
  S  S138  1  0.32999073  0.43150083  0.12698198  1
  S  S139  1  0.33664939  0.43237171  0.45862372  1
  S  S140  1  0.32726200  0.43043910  0.79156518  1
  S  S141  1  0.32644625  0.93346879  0.12038004  1
  S  S142  1  0.32879628  0.93363278  0.45536689  1
  S  S143  1  0.32675969  0.92875279  0.78786754  1
  S  S144  1  0.83621910  0.43430641  0.13186190  1
  S  S145  1  0.82097153  0.43705258  0.45213958  1
  S  S146  1  0.83395053  0.44539859  0.78392814  1
  S  S147  1  0.83439836  0.93705427  0.12345120  1
  S  S148  1  0.82548773  0.92737425  0.45890550  1
  S  S149  1  0.82925526  0.92825003  0.78956149  1
  S  S150  1  0.43297661  0.32708477  0.29079805  1
  S  S151  1  0.43992581  0.33713443  0.63076819  1
  S  S152  1  0.42951270  0.32320021  0.95738571  1
  S  S153  1  0.42991320  0.82908816  0.28971168  1
  S  S154  1  0.42964642  0.82929309  0.62171503  1
  S  S155  1  0.43239484  0.83520129  0.95923960  1
  S  S156  1  0.93212576  0.32812464  0.29323284  1
  S  S157  1  0.93984607  0.33869349  0.62332772  1
  S  S158  1  0.93312738  0.32391020  0.95693306  1
  S  S159  1  0.93266010  0.82153577  0.28807062  1
  S  S160  1  0.92836465  0.83483702  0.62579952  1
  S  S161  1  0.93657784  0.83447367  0.95791185  1
  S  S162  1  0.17128063  0.06951548  0.20889361  1
  S  S163  1  0.17428794  0.07289979  0.54168145  1
  S  S164  1  0.16694461  0.06621625  0.87403771  1
  S  S165  1  0.17047765  0.56409486  0.20903732  1
  S  S166  1  0.17086348  0.55619601  0.54398061  1
  S  S167  1  0.17183225  0.56647943  0.87670204  1
  S  S168  1  0.67054846  0.06990582  0.21202566  1
  S  S169  1  0.67893319  0.06808497  0.54342104  1
  S  S170  1  0.66491990  0.06019158  0.87663714  1
  S  S171  1  0.66770782  0.56737097  0.21073722  1
  S  S172  1  0.66364946  0.56741440  0.54059692  1
  S  S173  1  0.66795946  0.58060045  0.87222871  1
  O  O174  1  0.36872616  0.21965767  0.07898236  1
  O  O175  1  0.37311157  0.21658971  0.40341760  1
  O  O176  1  0.36698472  0.21744231  0.74415145  1
  O  O177  1  0.36413356  0.72062671  0.07605612  1
  O  O178  1  0.36876642  0.71925892  0.41239093  1
  O  O179  1  0.36408857  0.72098191  0.74017709  1
  O  O180  1  0.87069454  0.21896195  0.07853173  1
  O  O181  1  0.85632441  0.22300334  0.41925913  1
  O  O182  1  0.87761140  0.20957598  0.73399485  1
  O  O183  1  0.87778786  0.72871400  0.07776874  1
  O  O184  1  0.86915195  0.71999330  0.40544993  1
  O  O185  1  0.87043516  0.72302528  0.73918634  1
  O  O186  1  0.27970511  0.13070493  0.09107698  1
  O  O187  1  0.27574197  0.13290762  0.41162260  1
  O  O188  1  0.28676768  0.12542431  0.76440737  1
  O  O189  1  0.27585799  0.63222782  0.09161973  1
  O  O190  1  0.28250061  0.62963491  0.42878536  1
  O  O191  1  0.27580118  0.63195695  0.75402498  1
  O  O192  1  0.78414725  0.12983795  0.09445515  1
  O  O193  1  0.77581159  0.12288591  0.42727089  1
  O  O194  1  0.78882643  0.13371571  0.76545343  1
  O  O195  1  0.78728458  0.64645752  0.09708203  1
  O  O196  1  0.77644188  0.63581359  0.41830106  1
  O  O197  1  0.77840585  0.63661032  0.75083502  1
  O  O198  1  0.13421149  0.27900044  0.26019683  1
  O  O199  1  0.13228809  0.27968296  0.59619359  1
  O  O200  1  0.13688750  0.27827221  0.92702911  1
  O  O201  1  0.13514865  0.77933669  0.25213860  1
  O  O202  1  0.13278538  0.78797434  0.59178662  1
  O  O203  1  0.13238230  0.78198346  0.92446394  1
  O  O204  1  0.62978130  0.28354804  0.25891854  1
  O  O205  1  0.64228651  0.28415462  0.59243513  1
  O  O206  1  0.62708824  0.28384103  0.92384156  1
  O  O207  1  0.62344613  0.78368374  0.26166493  1
  O  O208  1  0.63044518  0.77445694  0.58625446  1
  O  O209  1  0.62808021  0.78221727  0.92761811  1
  O  O210  1  0.22214377  0.36723868  0.24472609  1
  O  O211  1  0.23095936  0.36301139  0.58994025  1
  O  O212  1  0.23056967  0.36560998  0.91807975  1
  O  O213  1  0.21892076  0.87179813  0.23697705  1
  O  O214  1  0.21807521  0.87436420  0.56867351  1
  O  O215  1  0.22036084  0.87010482  0.90986174  1
  O  O216  1  0.71797981  0.37117137  0.24423948  1
  O  O217  1  0.71949745  0.37670894  0.56906645  1
  O  O218  1  0.70833525  0.36518805  0.89129161  1
  O  O219  1  0.71064443  0.86417854  0.23414644  1
  O  O220  1  0.72044737  0.86870020  0.58197754  1
  O  O221  1  0.71375020  0.86842172  0.90648899  1
  O  O222  1  0.41808568  0.12699424  0.14873758  1
  O  O223  1  0.41273081  0.12969325  0.48065658  1
  O  O224  1  0.42535346  0.13000447  0.81778880  1
  O  O225  1  0.41362259  0.63417972  0.15306860  1
  O  O226  1  0.42088026  0.62967018  0.48521031  1
  O  O227  1  0.41274140  0.63809643  0.82045426  1
  O  O228  1  0.92275790  0.12639339  0.14740232  1
  O  O229  1  0.91504226  0.13421975  0.48944982  1
  O  O230  1  0.92693228  0.12660811  0.81582320  1
  O  O231  1  0.92411529  0.63492448  0.14991245  1
  O  O232  1  0.91462296  0.63518183  0.48392984  1
  O  O233  1  0.91548745  0.63740929  0.81677769  1
  O  O234  1  0.36455690  0.08260121  0.01249623  1
  O  O235  1  0.36904639  0.07793443  0.34528414  1
  O  O236  1  0.36821366  0.08002830  0.68147384  1
  O  O237  1  0.36253855  0.58283416  0.01637682  1
  O  O238  1  0.36765651  0.58087190  0.35004479  1
  O  O239  1  0.36818884  0.58320623  0.68368221  1
  O  O240  1  0.86652259  0.08171022  0.01211777  1
  O  O241  1  0.86554704  0.08818266  0.35234166  1
  O  O242  1  0.86716984  0.07026465  0.68286577  1
  O  O243  1  0.86734221  0.59079018  0.01536183  1
  O  O244  1  0.86703251  0.58223791  0.34737063  1
  O  O245  1  0.86939517  0.58509347  0.67983671  1
  O  O246  1  0.08427274  0.36370298  0.18272798  1
  O  O247  1  0.09579397  0.36665418  0.51820092  1
  O  O248  1  0.09385913  0.36372491  0.84868781  1
  O  O249  1  0.08108682  0.87014495  0.18189842  1
  O  O250  1  0.07888225  0.87321936  0.51475400  1
  O  O251  1  0.08282422  0.86931779  0.84757388  1
  O  O252  1  0.58007486  0.36829945  0.17997169  1
  O  O253  1  0.58099458  0.36499860  0.51317770  1
  O  O254  1  0.57056437  0.37601760  0.85383207  1
  O  O255  1  0.57307802  0.87313252  0.18680620  1
  O  O256  1  0.58288828  0.86262378  0.51235823  1
  O  O257  1  0.57498349  0.86916425  0.85202700  1
  O  O258  1  0.13442734  0.41756823  0.31936896  1
  O  O259  1  0.13535510  0.41803765  0.65383679  1
  O  O260  1  0.13607871  0.41637326  0.98468629  1
  O  O261  1  0.13617794  0.91683386  0.31831212  1
  O  O262  1  0.13616505  0.92578944  0.64979841  1
  O  O263  1  0.13034471  0.92001265  0.98322592  1
  O  O264  1  0.62539289  0.42172361  0.31521080  1
  O  O265  1  0.63205131  0.42206396  0.64771467  1
  O  O266  1  0.64415929  0.42333931  0.98656188  1
  O  O267  1  0.63734017  0.92185386  0.32164598  1
  O  O268  1  0.62569153  0.91046280  0.64957461  1
  O  O269  1  0.63064987  0.92021661  0.98749717  1
  O  O270  1  0.03232965  0.19827801  0.10413773  1
  O  O271  1  0.03233467  0.18970217  0.43393873  1
  O  O272  1  0.04441581  0.18270171  0.76970656  1
  O  O273  1  0.03628692  0.69984049  0.10387186  1
  O  O274  1  0.03259259  0.70186761  0.43472404  1
  O  O275  1  0.03463263  0.70256140  0.77672582  1
  O  O276  1  0.52797187  0.19767374  0.10433585  1
  O  O277  1  0.53537331  0.19219541  0.43168662  1
  O  O278  1  0.53207245  0.20901325  0.77680605  1
  O  O279  1  0.52381835  0.71034550  0.10702052  1
  O  O280  1  0.52437890  0.69905249  0.43439273  1
  O  O281  1  0.52657418  0.70092561  0.76899700  1
  O  O282  1  0.30134899  0.47049937  0.06786288  1
  O  O283  1  0.30462592  0.47033197  0.39850021  1
  O  O284  1  0.30082264  0.47208665  0.73443181  1
  O  O285  1  0.29660795  0.97158021  0.05995153  1
  O  O286  1  0.29749052  0.97135446  0.39480938  1
  O  O287  1  0.30074309  0.96390368  0.72615458  1
  O  O288  1  0.81723219  0.46688659  0.07125605  1
  O  O289  1  0.78554695  0.47573256  0.39255708  1
  O  O290  1  0.79242752  0.47725355  0.71878399  1
  O  O291  1  0.79946850  0.96905369  0.05801934  1
  O  O292  1  0.79745193  0.96956779  0.40321887  1
  O  O293  1  0.80220633  0.96267222  0.72866004  1
  O  O294  1  0.46892641  0.29913326  0.22885884  1
  O  O295  1  0.47112961  0.31584787  0.56749201  1
  O  O296  1  0.46352503  0.29249026  0.89563513  1
  O  O297  1  0.46405779  0.79679604  0.22744615  1
  O  O298  1  0.46768279  0.79979264  0.56172743  1
  O  O299  1  0.46601204  0.80195796  0.89684516  1
  O  O300  1  0.96721771  0.29724279  0.22854622  1
  O  O301  1  0.97315842  0.30510373  0.56165668  1
  O  O302  1  0.97766179  0.29599403  0.90244384  1
  O  O303  1  0.97728177  0.79372995  0.23147497  1
  O  O304  1  0.96412321  0.82224600  0.56647257  1
  O  O305  1  0.97279516  0.80387486  0.89654879  1
  O  O306  1  0.19844628  0.03056664  0.26758439  1
  O  O307  1  0.20450351  0.03601006  0.60324043  1
  O  O308  1  0.19820734  0.02882257  0.93464417  1
  O  O309  1  0.20048663  0.52837798  0.27119354  1
  O  O310  1  0.21229427  0.52142738  0.60599457  1
  O  O311  1  0.20056902  0.52981145  0.93760888  1
  O  O312  1  0.69284745  0.03484452  0.27304593  1
  O  O313  1  0.70801973  0.02278250  0.59735635  1
  O  O314  1  0.69986331  0.02866734  0.94247683  1
  O  O315  1  0.69623600  0.53341583  0.27525346  1
  O  O316  1  0.69608163  0.53410953  0.60253607  1
  O  O317  1  0.69556820  0.55833342  0.93852550  1
  O  O318  1  0.08203667  0.08457615  0.03589800  1
  O  O319  1  0.08688524  0.08413381  0.36195795  1
  O  O320  1  0.08188418  0.07672328  0.68311196  1
  O  O321  1  0.08936151  0.58943324  0.03540928  1
  O  O322  1  0.09172703  0.59024919  0.37644194  1
  O  O323  1  0.08742709  0.58882172  0.71181594  1
  O  O324  1  0.58082614  0.08384663  0.03910474  1
  O  O325  1  0.59824507  0.08815976  0.36951891  1
  O  O326  1  0.60134598  0.10621473  0.72325194  1
  O  O327  1  0.57947076  0.59711863  0.04702829  1
  O  O328  1  0.57525031  0.58482243  0.36879662  1
  O  O329  1  0.58188289  0.59002902  0.70008365  1
  O  O330  1  0.41046920  0.41083580  0.13113650  1
  O  O331  1  0.41802055  0.41489841  0.46033354  1
  O  O332  1  0.40575430  0.40625572  0.79306610  1
  O  O333  1  0.40684629  0.91455750  0.12198584  1
  O  O334  1  0.40830822  0.91324018  0.45589589  1
  O  O335  1  0.40873384  0.90972656  0.79750464  1
  O  O336  1  0.92210419  0.41801238  0.14955801  1
  O  O337  1  0.89812045  0.41913382  0.44984374  1
  O  O338  1  0.91491663  0.43995972  0.78216487  1
  O  O339  1  0.91465867  0.91753939  0.12126661  1
  O  O340  1  0.90547988  0.90709106  0.46022477  1
  O  O341  1  0.91307432  0.91266012  0.80137710  1
  O  O342  1  0.41596433  0.40977748  0.29840421  1
  O  O343  1  0.41930623  0.42070300  0.64197644  1
  O  O344  1  0.40703888  0.40194963  0.96025911  1
  O  O345  1  0.41217657  0.91013043  0.29350323  1
  O  O346  1  0.41240429  0.91081201  0.62645953  1
  O  O347  1  0.41622064  0.91759193  0.96204760  1
  O  O348  1  0.90859126  0.40704579  0.29333128  1
  O  O349  1  0.91915715  0.41971107  0.61959304  1
  O  O350  1  0.91642563  0.40323122  0.95672007  1
  O  O351  1  0.90972411  0.89784491  0.28725898  1
  O  O352  1  0.90213638  0.91603856  0.64274470  1
  O  O353  1  0.92186953  0.91794824  0.96388306  1
  O  O354  1  0.09113656  0.09179183  0.20337353  1
  O  O355  1  0.09518020  0.09527283  0.54047976  1
  O  O356  1  0.08526184  0.08256198  0.87131558  1
  O  O357  1  0.08997963  0.58352339  0.20403907  1
  O  O358  1  0.09114412  0.56293726  0.54429935  1
  O  O359  1  0.09083703  0.58671693  0.87113191  1
  O  O360  1  0.58751304  0.08781277  0.19756434  1
  O  O361  1  0.60022426  0.08457764  0.54100520  1
  O  O362  1  0.58722644  0.08535722  0.88226207  1
  O  O363  1  0.58669317  0.58909574  0.20986576  1
  O  O364  1  0.58112381  0.58415021  0.53771657  1
  O  O365  1  0.58326941  0.59799629  0.85844656  1
  O  O366  1  0.13933899  0.21731939  0.05761296  1
  O  O367  1  0.13333009  0.22069659  0.38465428  1
  O  O368  1  0.14835853  0.21018793  0.72273015  1
  O  O369  1  0.14191149  0.72396011  0.05850994  1
  O  O370  1  0.13699776  0.72234907  0.38530945  1
  O  O371  1  0.13784103  0.72087180  0.72613885  1
  O  O372  1  0.63724025  0.21702893  0.06077291  1
  O  O373  1  0.64279274  0.22423452  0.38950161  1
  O  O374  1  0.63871142  0.23829316  0.73265512  1
  O  O375  1  0.63447672  0.73003458  0.06561148  1
  O  O376  1  0.63126830  0.71731127  0.38741133  1
  O  O377  1  0.63372328  0.72454272  0.72447618  1
  O  O378  1  0.27586438  0.36142717  0.10996322  1
  O  O379  1  0.28473748  0.36244323  0.44390319  1
  O  O380  1  0.27134810  0.36079581  0.77261318  1
  O  O381  1  0.27375880  0.86266796  0.10305189  1
  O  O382  1  0.27523689  0.86507249  0.44150533  1
  O  O383  1  0.27303123  0.85897525  0.77246847  1
  O  O384  1  0.78523215  0.36351833  0.11828612  1
  O  O385  1  0.76731324  0.36695646  0.43645360  1
  O  O386  1  0.79146069  0.36850162  0.76707314  1
  O  O387  1  0.78386122  0.86627516  0.11037000  1
  O  O388  1  0.77068851  0.85843798  0.44151352  1
  O  O389  1  0.77862915  0.85569656  0.77323012  1
  O  O390  1  0.36134741  0.27509759  0.27255581  1
  O  O391  1  0.37211209  0.28298146  0.61765489  1
  O  O392  1  0.36020759  0.26831422  0.94390761  1
  O  O393  1  0.35956060  0.77771465  0.27655255  1
  O  O394  1  0.35808229  0.77716172  0.60424096  1
  O  O395  1  0.36072781  0.78552805  0.94613220  1
  O  O396  1  0.86088163  0.27348120  0.27372896  1
  O  O397  1  0.86782255  0.28984509  0.61177197  1
  O  O398  1  0.86375382  0.26935866  0.93803067  1
  O  O399  1  0.86472841  0.76392041  0.26811710  1
  O  O400  1  0.86298286  0.77608519  0.60834253  1
  O  O401  1  0.86360326  0.78536034  0.94058069  1
  O  O402  1  0.22676497  0.13881808  0.22612058  1
  O  O403  1  0.23007375  0.13938937  0.55487687  1
  O  O404  1  0.21865183  0.13762758  0.89095851  1
  O  O405  1  0.22425304  0.63294870  0.22354470  1
  O  O406  1  0.21738390  0.63113986  0.55924206  1
  O  O407  1  0.22578249  0.63733508  0.89376879  1
  O  O408  1  0.72296885  0.14079055  0.22873685  1
  O  O409  1  0.73443392  0.13853947  0.56509641  1
  O  O410  1  0.71806193  0.12687229  0.88619985  1
  O  O411  1  0.71950940  0.64030181  0.22987492  1
  O  O412  1  0.71354696  0.63711826  0.55097252  1
  O  O413  1  0.71664755  0.65041798  0.87645242  1
  O  O414  1  0.49035274  0.32774796  0.02996332  1
  O  O415  1  0.49200846  0.32648819  0.36208146  1
  O  O416  1  0.50203454  0.34184967  0.70281814  1
  O  O417  1  0.49241014  0.84108923  0.03239334  1
  O  O418  1  0.49096850  0.83163504  0.36165857  1
  O  O419  1  0.48831027  0.83208001  0.69502130  1
  O  O420  1  0.98850916  0.32965008  0.03427354  1
  O  O421  1  0.99211493  0.33137910  0.36242546  1
  O  O422  1  0.99907969  0.35090593  0.69687394  1
  O  O423  1  0.99514835  0.83509456  0.03011418  1
  O  O424  1  0.99000914  0.82485776  0.36249209  1
  O  O425  1  0.99141106  0.83657804  0.69734333  1
  O  O426  1  0.16667704  0.01008498  0.13505522  1
  O  O427  1  0.16757005  0.01040182  0.46925244  1
  O  O428  1  0.16329476  0.00865278  0.80033882  1
  O  O429  1  0.16784919  0.50309236  0.13675627  1
  O  O430  1  0.17449293  0.50014305  0.47145754  1
  O  O431  1  0.16885702  0.50738459  0.80403865  1
  O  O432  1  0.67250782  0.00948648  0.14084668  1
  O  O433  1  0.67712516  0.01350254  0.46637241  1
  O  O434  1  0.65105829  -0.00443096  0.80664419  1
  O  O435  1  0.66530745  0.50827844  0.14188408  1
  O  O436  1  0.65574504  0.50667707  0.46651971  1
  O  O437  1  0.66322621  0.51459386  0.80083978  1
  O  O438  1  0.00261405  0.16202482  0.30027025  1
  O  O439  1  0.01362009  0.17608538  0.63896647  1
  O  O440  1  0.00791774  0.16540626  0.96914505  1
  O  O441  1  0.00855880  0.65656768  0.29951287  1
  O  O442  1  0.00545031  0.66506276  0.64165602  1
  O  O443  1  0.01132186  0.67054790  0.96993978  1
  O  O444  1  0.51460139  0.16320293  0.29953018  1
  O  O445  1  0.51173902  0.17005101  0.64361253  1
  O  O446  1  0.50665738  0.16457252  0.97100853  1
  O  O447  1  0.50036202  0.66381521  0.30003594  1
  O  O448  1  0.50289813  0.67055015  0.63599197  1
  O  O449  1  0.50617298  0.67645988  0.97414413  1
  O  O450  1  0.33447642  0.49045505  0.20061226  1
  O  O451  1  0.34286239  0.49161970  0.53283249  1
  O  O452  1  0.33231776  0.48797174  0.86583402  1
  O  O453  1  0.32959649  0.99147886  0.19324835  1
  O  O454  1  0.33511215  0.99448836  0.52856436  1
  O  O455  1  0.32780896  0.99013844  0.85949133  1
  O  O456  1  0.83566239  0.49519403  0.20458146  1
  O  O457  1  0.82348419  0.49587960  0.52572544  1
  O  O458  1  0.83191362  0.50145200  0.85404433  1
  O  O459  1  0.84274386  0.99931807  0.19370752  1
  O  O460  1  0.83323818  0.98318095  0.53642414  1
  O  O461  1  0.82737985  0.98750003  0.86129315  1
