# generated using pymatgen
data_Na31Fe20(SO4)36
_symmetry_space_group_name_H-M   'P 1'
_cell_length_a   18.07765665
_cell_length_b   18.06998383
_cell_length_c   19.72719903
_cell_angle_alpha   107.60648028
_cell_angle_beta   107.60708369
_cell_angle_gamma   90.70413612
_symmetry_Int_Tables_number   1
_chemical_formula_structural   Na31Fe20(SO4)36
_chemical_formula_sum   'Na62 Fe40 S72 O288'
_cell_volume   5816.20642248
_cell_formula_units_Z   2
loop_
 _symmetry_equiv_pos_site_id
 _symmetry_equiv_pos_as_xyz
  1  'x, y, z'
loop_
 _atom_site_type_symbol
 _atom_site_label
 _atom_site_symmetry_multiplicity
 _atom_site_fract_x
 _atom_site_fract_y
 _atom_site_fract_z
 _atom_site_occupancy
  Na  Na0  1  0.12993227  0.36667104  0.07839887  1
  Na  Na1  1  0.14299673  0.36771230  0.41888617  1
  Na  Na2  1  0.14111574  0.36692496  0.75983603  1
  Na  Na3  1  0.13999726  0.87815740  0.09992951  1
  Na  Na4  1  0.12780802  0.85350314  0.40052844  1
  Na  Na5  1  0.12883732  0.86400075  0.75046070  1
  Na  Na6  1  0.64725688  0.35174175  0.08133148  1
  Na  Na7  1  0.63371245  0.36420378  0.41287402  1
  Na  Na8  1  0.63677147  0.36243639  0.75500224  1
  Na  Na9  1  0.63277098  0.84946010  0.07404248  1
  Na  Na10  1  0.62579150  0.86980965  0.41337235  1
  Na  Na11  1  0.64851427  0.86662074  0.75489474  1
  Na  Na12  1  0.36301611  0.13247384  0.25164578  1
  Na  Na13  1  0.36305842  0.13152632  0.58284415  1
  Na  Na14  1  0.35842669  0.13939551  0.91148621  1
  Na  Na15  1  0.36150115  0.62650374  0.24402769  1
  Na  Na16  1  0.35705906  0.62814795  0.57063178  1
  Na  Na17  1  0.36876919  0.62526353  0.92213798  1
  Na  Na18  1  0.86634341  0.12953598  0.24345446  1
  Na  Na19  1  0.86530559  0.14155779  0.58537411  1
  Na  Na20  1  0.85914584  0.13313598  0.91615007  1
  Na  Na21  1  0.86980462  0.63661136  0.24812483  1
  Na  Na22  1  0.87437222  0.64369016  0.59693268  1
  Na  Na23  1  0.86602408  0.63852932  0.91800752  1
  Na  Na24  1  0.45132686  0.50640065  0.06532660  1
  Na  Na25  1  0.99831597  0.54893878  0.09078735  1
  Na  Na26  1  0.98678404  -0.00200136  0.75648955  1
  Na  Na27  1  0.51272583  -0.00268117  0.74154921  1
  Na  Na28  1  0.51247477  -0.02304326  0.09361316  1
  Na  Na29  1  0.99928741  0.03800811  0.40803823  1
  Na  Na30  1  1.01298167  0.49144555  0.41733338  1
  Na  Na31  1  0.49172956  0.51957384  0.39624609  1
  Na  Na32  1  0.49083543  0.49829704  0.77527700  1
  Na  Na33  1  0.51056134  0.49107295  0.58668781  1
  Na  Na34  1  0.00922285  0.47807611  0.59932945  1
  Na  Na35  1  0.02277311  0.50356621  0.89780988  1
  Na  Na36  1  0.50602183  0.99656365  0.91753134  1
  Na  Na37  1  0.00884180  0.95999978  0.92702174  1
  Na  Na38  1  0.48135137  0.97775794  0.26025011  1
  Na  Na39  1  0.53227774  0.99466094  0.57528166  1
  Na  Na40  1  -0.00597330  1.01590986  0.57532550  1
  Na  Na41  1  0.04316754  0.50263633  0.26075849  1
  Na  Na42  1  0.76136532  0.25732905  0.32106574  1
  Na  Na43  1  0.73988354  0.23446391  0.67574977  1
  Na  Na44  1  0.25962170  0.76069553  0.00276446  1
  Na  Na45  1  0.25196043  0.75298370  0.32452771  1
  Na  Na46  1  0.24596110  0.74505259  0.66747615  1
  Na  Na47  1  0.75121589  0.75795949  0.32578603  1
  Na  Na48  1  0.23464974  0.23872734  0.67906521  1
  Na  Na49  1  0.25966207  0.27239541  -0.02149320  1
  Na  Na50  1  0.24529984  0.24504226  0.33538171  1
  Na  Na51  1  0.76418887  0.76268440  0.66612984  1
  Na  Na52  1  0.24407820  0.74138190  0.49336805  1
  Na  Na53  1  0.23873004  0.23862243  0.50929457  1
  Na  Na54  1  0.75362968  0.25187587  0.49566582  1
  Na  Na55  1  0.75255291  0.74867822  0.83866653  1
  Na  Na56  1  0.75683747  0.75989645  0.49701889  1
  Na  Na57  1  0.24910980  0.74594582  0.83864547  1
  Na  Na58  1  0.73562123  0.23381743  0.84731875  1
  Na  Na59  1  0.27024292  0.77414117  0.16662722  1
  Na  Na60  1  0.75561049  0.75562721  0.15511857  1
  Na  Na61  1  0.24898278  0.25276221  0.16251096  1
  Fe  Fe62  1  0.96384118  0.80884583  0.45319893  1
  Fe  Fe63  1  0.46454091  0.30341555  0.45057677  1
  Fe  Fe64  1  0.96733096  0.80260968  0.12677193  1
  Fe  Fe65  1  0.46791480  0.31176135  0.11864320  1
  Fe  Fe66  1  0.46324376  0.30830351  0.79026633  1
  Fe  Fe67  1  0.46326700  0.80636625  0.45172016  1
  Fe  Fe68  1  0.97203640  0.29821135  0.45387860  1
  Fe  Fe69  1  0.46705953  0.80582215  0.78535418  1
  Fe  Fe70  1  0.96606311  0.30545424  0.78390986  1
  Fe  Fe71  1  0.95941887  0.30846697  0.11740201  1
  Fe  Fe72  1  0.19783333  0.53402791  0.71628996  1
  Fe  Fe73  1  0.20112061  0.02903797  0.37387871  1
  Fe  Fe74  1  0.69123117  0.53404871  0.37675403  1
  Fe  Fe75  1  0.69539514  0.53325682  0.71746053  1
  Fe  Fe76  1  0.19801244  0.53484188  0.04552012  1
  Fe  Fe77  1  0.18971358  0.03623015  0.71324047  1
  Fe  Fe78  1  0.68964198  0.53508863  0.04495507  1
  Fe  Fe79  1  0.69351350  0.03801861  0.05086733  1
  Fe  Fe80  1  0.19563661  0.03720808  0.04897652  1
  Fe  Fe81  1  0.68848345  0.03382181  0.37726239  1
  Fe  Fe82  1  0.52878755  0.69612741  0.20786495  1
  Fe  Fe83  1  0.53755671  0.69257090  0.54753645  1
  Fe  Fe84  1  0.03394506  0.68962581  0.54506272  1
  Fe  Fe85  1  0.03221011  0.18723816  0.20634171  1
  Fe  Fe86  1  0.53690709  0.69468642  0.88626424  1
  Fe  Fe87  1  0.53390442  0.19417255  0.21244818  1
  Fe  Fe88  1  0.03113570  0.70236861  0.87426293  1
  Fe  Fe89  1  0.53298516  0.19255476  0.54700887  1
  Fe  Fe90  1  0.53713692  0.19118388  0.88557363  1
  Fe  Fe91  1  0.03545262  0.19396536  0.88186887  1
  Fe  Fe92  1  0.79987713  0.97036022  0.62617810  1
  Fe  Fe93  1  0.80988319  0.96597631  0.95777583  1
  Fe  Fe94  1  0.80769146  0.46600003  0.28332044  1
  Fe  Fe95  1  0.31179006  0.96771376  0.95492222  1
  Fe  Fe96  1  0.80769226  0.46533305  0.95424385  1
  Fe  Fe97  1  0.30602218  0.96286854  0.61883963  1
  Fe  Fe98  1  0.80985967  0.46353374  0.62206098  1
  Fe  Fe99  1  0.30844289  0.46537763  0.61698906  1
  Fe  Fe100  1  0.29983931  0.46549472  0.28719245  1
  Fe  Fe101  1  0.80474690  0.96477274  0.28466341  1
  S  S102  1  0.35997954  0.14516223  0.08024205  1
  S  S103  1  0.36148478  0.14105335  0.41896843  1
  S  S104  1  0.36016616  0.13766643  0.74966914  1
  S  S105  1  0.35581203  0.64399529  0.08701997  1
  S  S106  1  0.36314768  0.63784219  0.41804338  1
  S  S107  1  0.36426952  0.63888325  0.74842574  1
  S  S108  1  0.85616276  0.14285698  0.08368422  1
  S  S109  1  0.85717806  0.13755962  0.41566297  1
  S  S110  1  0.86058000  0.14231595  0.75028932  1
  S  S111  1  0.85814483  0.64023838  0.08238096  1
  S  S112  1  0.85543718  0.64105368  0.41883813  1
  S  S113  1  0.85823344  0.63910541  0.74849739  1
  S  S114  1  0.13566596  0.35546918  0.24876143  1
  S  S115  1  0.14289380  0.36066964  0.58240768  1
  S  S116  1  0.13574417  0.36393764  0.91632345  1
  S  S117  1  0.13790725  0.85801250  0.25081657  1
  S  S118  1  0.14055857  0.85875937  0.58442779  1
  S  S119  1  0.14549472  0.86254946  0.91786753  1
  S  S120  1  0.64216100  0.35987966  0.25078015  1
  S  S121  1  0.64045054  0.35878711  0.58294257  1
  S  S122  1  0.64157899  0.35998625  0.91644412  1
  S  S123  1  0.63731810  0.86051462  0.24572539  1
  S  S124  1  0.63786646  0.85932370  0.58580478  1
  S  S125  1  0.63892772  0.86222214  0.91797580  1
  S  S126  1  0.06495718  0.16769064  0.03879257  1
  S  S127  1  0.07277824  0.17208131  0.37405913  1
  S  S128  1  0.06263947  0.16503945  0.70856734  1
  S  S129  1  0.06849611  0.67634188  0.03951663  1
  S  S130  1  0.05687333  0.66586240  0.37951400  1
  S  S131  1  0.07257707  0.67114525  0.70875662  1
  S  S132  1  0.56318674  0.16523724  0.04173923  1
  S  S133  1  0.56563511  0.17005167  0.37324110  1
  S  S134  1  0.56037598  0.16898255  0.70976624  1
  S  S135  1  0.56466240  0.66228557  0.04117044  1
  S  S136  1  0.57078737  0.67329824  0.37468540  1
  S  S137  1  0.56975568  0.66934185  0.70978875  1
  S  S138  1  0.32648646  0.42878031  0.12369564  1
  S  S139  1  0.33650824  0.42988646  0.45783125  1
  S  S140  1  0.32858844  0.43287206  0.78677550  1
  S  S141  1  0.33664759  0.94327751  0.12324012  1
  S  S142  1  0.33101598  0.93020091  0.46157051  1
  S  S143  1  0.33260195  0.93211972  0.79010243  1
  S  S144  1  0.83463679  0.43679018  0.12741018  1
  S  S145  1  0.83224656  0.43219172  0.45782690  1
  S  S146  1  0.82808196  0.42850120  0.78991880  1
  S  S147  1  0.82563866  0.92484987  0.12349363  1
  S  S148  1  0.82522399  0.93489626  0.45893854  1
  S  S149  1  0.83366383  0.93663536  0.79596293  1
  S  S150  1  0.43211705  0.33028650  0.29069958  1
  S  S151  1  0.43632163  0.33351728  0.62679376  1
  S  S152  1  0.43854714  0.32781978  0.95650991  1
  S  S153  1  0.43250496  0.82407116  0.29211795  1
  S  S154  1  0.43230515  0.82638420  0.62373342  1
  S  S155  1  0.43605213  0.83102039  0.95482392  1
  S  S156  1  0.93316734  0.32968676  0.29323847  1
  S  S157  1  0.93306707  0.33169046  0.62324565  1
  S  S158  1  0.92896262  0.33096108  0.95617097  1
  S  S159  1  0.92796610  0.83455970  0.29328920  1
  S  S160  1  0.93317585  0.83810111  0.62451657  1
  S  S161  1  0.93274980  0.82827137  0.96326208  1
  S  S162  1  0.17302933  0.07472663  0.20819189  1
  S  S163  1  0.16851299  0.05943550  0.54033546  1
  S  S164  1  0.16989531  0.06791104  0.87692289  1
  S  S165  1  0.17113314  0.56393070  0.20801182  1
  S  S166  1  0.16882126  0.56464856  0.54394028  1
  S  S167  1  0.16902684  0.57566495  0.87522195  1
  S  S168  1  0.66923348  0.06727149  0.21016588  1
  S  S169  1  0.66985486  0.06919054  0.54061291  1
  S  S170  1  0.66320750  0.06113826  0.87614853  1
  S  S171  1  0.67262620  0.57276784  0.20985748  1
  S  S172  1  0.66944517  0.56587253  0.54182054  1
  S  S173  1  0.67017430  0.56713420  0.87423999  1
  O  O174  1  0.37088700  0.22387300  0.07230376  1
  O  O175  1  0.36774246  0.22351760  0.41479533  1
  O  O176  1  0.36747140  0.21609090  0.73994363  1
  O  O177  1  0.36131961  0.72400718  0.08476328  1
  O  O178  1  0.37146715  0.71720848  0.40987297  1
  O  O179  1  0.37259514  0.71811972  0.74029058  1
  O  O180  1  0.86641830  0.22099082  0.07543154  1
  O  O181  1  0.86890918  0.21870253  0.41228491  1
  O  O182  1  0.87480857  0.21844639  0.73650807  1
  O  O183  1  0.87048751  0.72187562  0.07943757  1
  O  O184  1  0.86168475  0.72087304  0.41142453  1
  O  O185  1  0.86469866  0.71384356  0.73565068  1
  O  O186  1  0.28029299  0.13715285  0.08665289  1
  O  O187  1  0.28249304  0.13078202  0.42828325  1
  O  O188  1  0.28057893  0.12658880  0.75558086  1
  O  O189  1  0.28009402  0.63056354  0.10172342  1
  O  O190  1  0.29006471  0.62752772  0.43248447  1
  O  O191  1  0.28669934  0.63187181  0.75957874  1
  O  O192  1  0.77916189  0.13134102  0.09411679  1
  O  O193  1  0.77558100  0.13012036  0.41945901  1
  O  O194  1  0.78380592  0.14006699  0.75987918  1
  O  O195  1  0.77679163  0.63150540  0.08521924  1
  O  O196  1  0.77615478  0.63011420  0.42647786  1
  O  O197  1  0.77923581  0.62689427  0.75814252  1
  O  O198  1  0.12696022  0.27512792  0.25477520  1
  O  O199  1  0.13930185  0.28304364  0.58969986  1
  O  O200  1  0.12229218  0.28739696  0.92954362  1
  O  O201  1  0.12932401  0.78624877  0.26908608  1
  O  O202  1  0.12843680  0.78053418  0.59328221  1
  O  O203  1  0.13675674  0.78128331  0.92101708  1
  O  O204  1  0.63176736  0.28190623  0.26128136  1
  O  O205  1  0.63213502  0.28048565  0.59263010  1
  O  O206  1  0.63410881  0.27891539  0.91940334  1
  O  O207  1  0.62680141  0.77976870  0.25130188  1
  O  O208  1  0.63062856  0.77767822  0.59083883  1
  O  O209  1  0.62887447  0.78417674  0.92676202  1
  O  O210  1  0.21601907  0.36430506  0.24298865  1
  O  O211  1  0.21905337  0.37514953  0.56904306  1
  O  O212  1  0.21161879  0.36880614  0.90647205  1
  O  O213  1  0.20981440  0.86637724  0.23271023  1
  O  O214  1  0.22095161  0.86337316  0.57803110  1
  O  O215  1  0.22679173  0.87151558  0.91249347  1
  O  O216  1  0.72302189  0.36985793  0.24814584  1
  O  O217  1  0.71908589  0.36850466  0.57459897  1
  O  O218  1  0.71842633  0.37098953  0.90370573  1
  O  O219  1  0.72120543  0.86834432  0.24724110  1
  O  O220  1  0.71841288  0.86871001  0.58043797  1
  O  O221  1  0.71680944  0.87080742  0.90814992  1
  O  O222  1  0.41766285  0.13741569  0.14919935  1
  O  O223  1  0.41957356  0.13743287  0.49020724  1
  O  O224  1  0.41866873  0.13078678  0.81840946  1
  O  O225  1  0.41895852  0.63222056  0.15339943  1
  O  O226  1  0.42949151  0.62904914  0.48292613  1
  O  O227  1  0.42514097  0.62839090  0.81413708  1
  O  O228  1  0.91668692  0.13539830  0.15135185  1
  O  O229  1  0.91344991  0.12315594  0.48000239  1
  O  O230  1  0.92147044  0.13352450  0.81733867  1
  O  O231  1  0.91473398  0.62783987  0.14735124  1
  O  O232  1  0.91385643  0.63439996  0.48771911  1
  O  O233  1  0.91758380  0.63470947  0.81787890  1
  O  O234  1  0.36809456  0.08562408  0.01235397  1
  O  O235  1  0.37170817  0.08602759  0.35300454  1
  O  O236  1  0.37076033  0.07797000  0.68296759  1
  O  O237  1  0.36120936  0.58598087  0.01893501  1
  O  O238  1  0.37048675  0.57922380  0.34877281  1
  O  O239  1  0.36988095  0.58096168  0.67872141  1
  O  O240  1  0.86258904  0.08306178  0.01521814  1
  O  O241  1  0.86346781  0.08148807  0.34434012  1
  O  O242  1  0.86662716  0.07994183  0.68260010  1
  O  O243  1  0.86587445  0.58384488  0.01166303  1
  O  O244  1  0.86411727  0.58267344  0.35111877  1
  O  O245  1  0.86548792  0.57589140  0.68190183  1
  O  O246  1  0.07829482  0.36149926  0.17794340  1
  O  O247  1  0.08031449  0.36948016  0.51573488  1
  O  O248  1  0.07343523  0.37173726  0.84837311  1
  O  O249  1  0.07122938  0.86092823  0.18231640  1
  O  O250  1  0.08355223  0.86825799  0.51639624  1
  O  O251  1  0.08811559  0.87574233  0.85362160  1
  O  O252  1  0.58604610  0.36451253  0.18033840  1
  O  O253  1  0.58110596  0.36546257  0.51433210  1
  O  O254  1  0.57960911  0.37209538  0.85206847  1
  O  O255  1  0.58473517  0.87164917  0.17833803  1
  O  O256  1  0.58116685  0.86615172  0.51548832  1
  O  O257  1  0.57876693  0.87053882  0.84995485  1
  O  O258  1  0.12448421  0.41360530  0.31400135  1
  O  O259  1  0.13440163  0.42070255  0.65051239  1
  O  O260  1  0.12616031  0.42622985  0.98242082  1
  O  O261  1  0.13201627  0.92501560  0.31541204  1
  O  O262  1  0.13451340  0.91880948  0.65297524  1
  O  O263  1  0.13854423  0.91812816  0.98893099  1
  O  O264  1  0.63127347  0.42006891  0.31723915  1
  O  O265  1  0.63108800  0.41927009  0.64983296  1
  O  O266  1  0.64014776  0.41581756  0.98856581  1
  O  O267  1  0.62729031  0.91778510  0.31470987  1
  O  O268  1  0.62519567  0.91572588  0.65083286  1
  O  O269  1  0.63046702  0.92254076  0.98539014  1
  O  O270  1  0.02637453  0.19598922  0.09803734  1
  O  O271  1  0.03291297  0.19795543  0.43174445  1
  O  O272  1  0.03551403  0.20135864  0.77590656  1
  O  O273  1  0.02618065  0.70218850  0.09600729  1
  O  O274  1  0.02357679  0.70655265  0.44405569  1
  O  O275  1  0.03740933  0.69714236  0.76853872  1
  O  O276  1  0.53105389  0.20066722  0.10541882  1
  O  O277  1  0.52974036  0.19899263  0.43494976  1
  O  O278  1  0.52684355  0.20429721  0.77247369  1
  O  O279  1  0.52700253  0.68379297  0.10042606  1
  O  O280  1  0.53349361  0.70232861  0.43520062  1
  O  O281  1  0.53516914  0.70013875  0.77171148  1
  O  O282  1  0.29700457  0.46660723  0.06554618  1
  O  O283  1  0.31390599  0.46305005  0.39642410  1
  O  O284  1  0.30106664  0.46801652  0.72232054  1
  O  O285  1  0.30003139  0.97868608  0.06000268  1
  O  O286  1  0.30203461  0.96474377  0.40153874  1
  O  O287  1  0.30018708  0.96633240  0.72833274  1
  O  O288  1  0.80420773  0.47266096  0.06554372  1
  O  O289  1  0.80197308  0.46897452  0.39731455  1
  O  O290  1  0.79692583  0.46457119  0.72842930  1
  O  O291  1  0.79994168  0.96361922  0.06356292  1
  O  O292  1  0.79595830  0.96988973  0.39685487  1
  O  O293  1  0.80126144  0.96772197  0.73291956  1
  O  O294  1  0.46926613  0.30300028  0.22988675  1
  O  O295  1  0.47378839  0.30346082  0.56660823  1
  O  O296  1  0.47502489  0.29019659  0.89519269  1
  O  O297  1  0.47337936  0.79370555  0.23523371  1
  O  O298  1  0.46861238  0.79752520  0.56274756  1
  O  O299  1  0.46522210  0.79466257  0.88837502  1
  O  O300  1  0.96711423  0.30247969  0.23058245  1
  O  O301  1  0.96814067  0.30966418  0.56262919  1
  O  O302  1  0.96400054  0.30133241  0.89432790  1
  O  O303  1  0.95970364  0.80911997  0.23010582  1
  O  O304  1  0.96478707  0.80585939  0.55968617  1
  O  O305  1  0.97719189  0.80661553  0.90939562  1
  O  O306  1  0.20040094  0.04458818  0.27144799  1
  O  O307  1  0.20252976  0.02404033  0.60290422  1
  O  O308  1  0.19973732  0.03159701  0.93799827  1
  O  O309  1  0.20127629  0.52350102  0.26505202  1
  O  O310  1  0.20480702  0.53714794  0.61108861  1
  O  O311  1  0.18743400  0.54089323  0.93612048  1
  O  O312  1  0.69757922  0.02858721  0.26971483  1
  O  O313  1  0.69748726  0.03087995  0.59859362  1
  O  O314  1  0.69731985  0.03255049  0.94252079  1
  O  O315  1  0.70015802  0.53323080  0.26946216  1
  O  O316  1  0.69784692  0.52834681  0.60186496  1
  O  O317  1  0.70070535  0.53193175  0.93579476  1
  O  O318  1  0.08576434  0.08681061  0.03254831  1
  O  O319  1  0.09656703  0.09321706  0.37285212  1
  O  O320  1  0.08316373  0.08368210  0.70922020  1
  O  O321  1  0.08713523  0.59454910  0.03592487  1
  O  O322  1  0.06948173  0.58643426  0.38362884  1
  O  O323  1  0.09101027  0.58857361  0.69653580  1
  O  O324  1  0.58002937  0.08336674  0.04100947  1
  O  O325  1  0.58171295  0.08777307  0.36453770  1
  O  O326  1  0.56856751  0.08627838  0.70204639  1
  O  O327  1  0.58275958  0.57980623  0.02850165  1
  O  O328  1  0.58894335  0.59217443  0.37263223  1
  O  O329  1  0.58720900  0.58707522  0.70440517  1
  O  O330  1  0.40763913  0.41012628  0.12473609  1
  O  O331  1  0.42034421  0.41203640  0.47135402  1
  O  O332  1  0.40781264  0.40738248  0.78625437  1
  O  O333  1  0.41450651  0.92332052  0.11958072  1
  O  O334  1  0.41406340  0.91301494  0.47114452  1
  O  O335  1  0.41534337  0.91662131  0.79438440  1
  O  O336  1  0.91736147  0.42086455  0.13332177  1
  O  O337  1  0.91399106  0.41416845  0.46332972  1
  O  O338  1  0.90981078  0.41215352  0.79597859  1
  O  O339  1  0.90334750  0.89758949  0.12680884  1
  O  O340  1  0.90713201  0.91649886  0.46501927  1
  O  O341  1  0.91795024  0.93100084  0.80929865  1
  O  O342  1  0.41108420  0.41072538  0.29722752  1
  O  O343  1  0.42159551  0.41680044  0.63230596  1
  O  O344  1  0.42480466  0.40660614  0.95634049  1
  O  O345  1  0.40940766  0.90039361  0.29080046  1
  O  O346  1  0.41442932  0.90828825  0.63089768  1
  O  O347  1  0.41720244  0.91217646  0.95388175  1
  O  O348  1  0.91372745  0.41194891  0.30074287  1
  O  O349  1  0.91547740  0.41522208  0.63522577  1
  O  O350  1  0.91403714  0.41421472  0.96409382  1
  O  O351  1  0.91184605  0.91806823  0.30747791  1
  O  O352  1  0.90843089  0.91766664  0.62465860  1
  O  O353  1  0.91326373  0.90993078  0.96946419  1
  O  O354  1  0.09095121  0.09175644  0.19572752  1
  O  O355  1  0.08607600  0.06826607  0.53401177  1
  O  O356  1  0.08707311  0.08348669  0.86956535  1
  O  O357  1  0.09029846  0.57876257  0.20486456  1
  O  O358  1  0.08687647  0.58271436  0.54177205  1
  O  O359  1  0.08745275  0.59704220  0.86168112  1
  O  O360  1  0.58787563  0.08646190  0.20537021  1
  O  O361  1  0.58965319  0.09081915  0.53952974  1
  O  O362  1  0.58235883  0.08450141  0.87757314  1
  O  O363  1  0.59392024  0.59682024  0.20709348  1
  O  O364  1  0.58600685  0.58120608  0.53506146  1
  O  O365  1  0.59013572  0.58908573  0.87179920  1
  O  O366  1  0.13453785  0.22221163  0.05583868  1
  O  O367  1  0.14259805  0.22813090  0.39222221  1
  O  O368  1  0.13117932  0.21466478  0.71607148  1
  O  O369  1  0.13929468  0.73003928  0.05873525  1
  O  O370  1  0.13091095  0.71381296  0.39526526  1
  O  O371  1  0.14478378  0.72367073  0.72570620  1
  O  O372  1  0.63232586  0.21338899  0.04971023  1
  O  O373  1  0.63740682  0.22223319  0.39110878  1
  O  O374  1  0.63553689  0.21652942  0.72701188  1
  O  O375  1  0.63523497  0.71621654  0.06065326  1
  O  O376  1  0.64214438  0.72573153  0.39165142  1
  O  O377  1  0.64113669  0.72055989  0.72446120  1
  O  O378  1  0.27483843  0.35626236  0.10694175  1
  O  O379  1  0.28394755  0.35951895  0.44277691  1
  O  O380  1  0.27349911  0.36405548  0.76938897  1
  O  O381  1  0.28267569  0.87309209  0.10779076  1
  O  O382  1  0.28069037  0.85757091  0.44744493  1
  O  O383  1  0.28348404  0.85971340  0.77614475  1
  O  O384  1  0.78428290  0.36694909  0.11425861  1
  O  O385  1  0.77945259  0.36036663  0.44035504  1
  O  O386  1  0.77630379  0.35691345  0.77307836  1
  O  O387  1  0.76727758  0.85985133  0.10913104  1
  O  O388  1  0.77272760  0.86324677  0.44200443  1
  O  O389  1  0.78822651  0.86027025  0.78008178  1
  O  O390  1  0.36274748  0.27551739  0.27440337  1
  O  O391  1  0.36368723  0.28364012  0.60965428  1
  O  O392  1  0.36787781  0.27639000  0.94229762  1
  O  O393  1  0.36436045  0.76738361  0.27732937  1
  O  O394  1  0.36165525  0.77361930  0.60763500  1
  O  O395  1  0.36533085  0.78129262  0.94412371  1
  O  O396  1  0.86510584  0.27594943  0.28027364  1
  O  O397  1  0.86031012  0.28014762  0.60476124  1
  O  O398  1  0.85745211  0.28018872  0.94022052  1
  O  O399  1  0.85618556  0.78238558  0.27660716  1
  O  O400  1  0.86358789  0.78355649  0.61064869  1
  O  O401  1  0.86184698  0.77380616  0.94014000  1
  O  O402  1  0.22511833  0.14606151  0.22115359  1
  O  O403  1  0.21724416  0.13488359  0.56110116  1
  O  O404  1  0.22012191  0.13993267  0.89342068  1
  O  O405  1  0.22310469  0.63598153  0.22675414  1
  O  O406  1  0.21779237  0.63703165  0.55562630  1
  O  O407  1  0.22600385  0.64441304  0.89287630  1
  O  O408  1  0.72302176  0.13638674  0.22666546  1
  O  O409  1  0.72271474  0.14010523  0.55582123  1
  O  O410  1  0.71398773  0.12851304  0.88317724  1
  O  O411  1  0.72945147  0.64110325  0.22731401  1
  O  O412  1  0.71992547  0.63837557  0.55928364  1
  O  O413  1  0.72313364  0.63418940  0.88373440  1
  O  O414  1  0.49853178  0.32903715  0.02950910  1
  O  O415  1  0.49249607  0.33281826  0.36318929  1
  O  O416  1  0.49452205  0.33571492  0.69988245  1
  O  O417  1  0.49974831  0.83863378  0.02358065  1
  O  O418  1  0.49134168  0.83041401  0.36753920  1
  O  O419  1  0.49298601  0.82903534  0.69602952  1
  O  O420  1  0.98847912  0.33059611  0.02787042  1
  O  O421  1  0.99543109  0.33443821  0.36569074  1
  O  O422  1  0.99153171  0.32813725  0.69385922  1
  O  O423  1  0.98641232  0.82880516  0.03888611  1
  O  O424  1  0.98799493  0.83103842  0.36349547  1
  O  O425  1  0.99471508  0.84727667  0.69517674  1
  O  O426  1  0.17566038  0.01340060  0.13798524  1
  O  O427  1  0.17334802  0.00468570  0.46865149  1
  O  O428  1  0.17022933  0.00817312  0.80520681  1
  O  O429  1  0.16836384  0.50864777  0.13211750  1
  O  O430  1  0.16416768  0.50156083  0.47556539  1
  O  O431  1  0.17113610  0.51423780  0.80470842  1
  O  O432  1  0.66466328  0.00712310  0.13692215  1
  O  O433  1  0.66282900  0.01135576  0.46550378  1
  O  O434  1  0.64893282  -0.00371433  0.80630755  1
  O  O435  1  0.66898243  0.51278505  0.13754428  1
  O  O436  1  0.66768490  0.50786569  0.46865298  1
  O  O437  1  0.66062935  0.50341691  0.80103952  1
  O  O438  1  0.01461019  0.16712379  0.30001183  1
  O  O439  1  -0.00264533  0.15394042  0.63956247  1
  O  O440  1  0.00516935  0.16511400  0.96609742  1
  O  O441  1  -0.00089032  0.66269670  0.30853189  1
  O  O442  1  0.01293319  0.67422658  0.63756095  1
  O  O443  1  0.01218197  0.67027642  0.96389483  1
  O  O444  1  0.50662119  0.17139917  0.30180022  1
  O  O445  1  0.50399691  0.17385303  0.63815815  1
  O  O446  1  0.49950459  0.15732522  0.96963884  1
  O  O447  1  0.51294677  0.66986416  0.30159248  1
  O  O448  1  0.50973524  0.66567169  0.63717141  1
  O  O449  1  0.50599640  0.66665785  0.97009699  1
  O  O450  1  0.33170191  0.48479132  0.19884787  1
  O  O451  1  0.33615342  0.49087271  0.52929504  1
  O  O452  1  0.33566402  0.49435714  0.85601819  1
  O  O453  1  0.34483045  1.00237430  0.19549295  1
  O  O454  1  0.33356514  0.98975788  0.53523010  1
  O  O455  1  0.33545570  0.99214484  0.86242253  1
  O  O456  1  0.83729094  0.49806917  0.19988714  1
  O  O457  1  0.83388289  0.49026552  0.53084156  1
  O  O458  1  0.82845735  0.48848987  0.86132915  1
  O  O459  1  0.83244230  0.98743168  0.19599269  1
  O  O460  1  0.82654584  0.99428023  0.53064980  1
  O  O461  1  0.82374573  0.99294332  0.86613381  1
