# generated using pymatgen
data_Na31Fe20(SO4)36
_symmetry_space_group_name_H-M   'P 1'
_cell_length_a   18.09901208
_cell_length_b   18.09379202
_cell_length_c   19.71728732
_cell_angle_alpha   107.55900477
_cell_angle_beta   107.61664095
_cell_angle_gamma   90.77784688
_symmetry_Int_Tables_number   1
_chemical_formula_structural   Na31Fe20(SO4)36
_chemical_formula_sum   'Na62 Fe40 S72 O288'
_cell_volume   5828.24023358
_cell_formula_units_Z   2
loop_
 _symmetry_equiv_pos_site_id
 _symmetry_equiv_pos_as_xyz
  1  'x, y, z'
loop_
 _atom_site_type_symbol
 _atom_site_label
 _atom_site_symmetry_multiplicity
 _atom_site_fract_x
 _atom_site_fract_y
 _atom_site_fract_z
 _atom_site_occupancy
  Na  Na0  1  0.13117106  0.33629612  0.05915933  1
  Na  Na1  1  0.11492419  0.35367672  0.38995939  1
  Na  Na2  1  0.13428115  0.35723637  0.75026215  1
  Na  Na3  1  0.12839405  0.86555610  0.07474336  1
  Na  Na4  1  0.14765971  0.87522596  0.42558520  1
  Na  Na5  1  0.15967564  0.87769974  0.77800252  1
  Na  Na6  1  0.63097469  0.36268733  0.07946142  1
  Na  Na7  1  0.63278357  0.36154580  0.41416933  1
  Na  Na8  1  0.64634655  0.36456869  0.76093016  1
  Na  Na9  1  0.63371739  0.87694111  0.08316603  1
  Na  Na10  1  0.63267997  0.86616004  0.41151287  1
  Na  Na11  1  0.62986559  0.86920679  0.74721229  1
  Na  Na12  1  0.36493851  0.13639440  0.24990953  1
  Na  Na13  1  0.35384363  0.12409564  0.57380712  1
  Na  Na14  1  0.36379987  0.13400994  0.92051323  1
  Na  Na15  1  0.36431382  0.63420317  0.24692960  1
  Na  Na16  1  0.36145699  0.64085934  0.58359823  1
  Na  Na17  1  0.36563048  0.62930868  0.90992997  1
  Na  Na18  1  0.86458681  0.13521673  0.23154037  1
  Na  Na19  1  0.88230165  0.15001124  0.61132110  1
  Na  Na20  1  0.88543452  0.16582243  0.94015594  1
  Na  Na21  1  0.86697899  0.63201756  0.25228282  1
  Na  Na22  1  0.86204575  0.63035925  0.57959017  1
  Na  Na23  1  0.86631468  0.63220076  0.91857015  1
  Na  Na24  1  0.49983296  0.50402236  0.06524023  1
  Na  Na25  1  1.00894005  0.48145739  0.75511064  1
  Na  Na26  1  1.00184490  0.00246370  0.41411420  1
  Na  Na27  1  0.47296424  0.01236710  0.74794977  1
  Na  Na28  1  0.48484132  0.50661325  0.41613416  1
  Na  Na29  1  1.01964019  0.44968585  0.13415851  1
  Na  Na30  1  1.03517406  0.18084997  0.87735041  1
  Na  Na31  1  0.48822352  0.50384541  0.76376232  1
  Na  Na32  1  1.00438255  0.06471475  0.08428243  1
  Na  Na33  1  0.04781417  0.99993809  0.25598068  1
  Na  Na34  1  0.00563317  0.98549741  0.60029876  1
  Na  Na35  1  0.47513910  1.00950662  0.97089854  1
  Na  Na36  1  0.50819858  0.48962852  0.24512181  1
  Na  Na37  1  0.01272707  0.49320717  0.56740654  1
  Na  Na38  1  0.50406288  0.48535691  0.58651777  1
  Na  Na39  1  0.00120334  0.46069158  0.91521161  1
  Na  Na40  1  0.50668041  0.99563583  0.24418627  1
  Na  Na41  1  0.49393265  1.00190029  0.57832478  1
  Na  Na42  1  0.24214394  0.23998038  0.67337461  1
  Na  Na43  1  0.75377970  0.25138393  0.32779671  1
  Na  Na44  1  0.75598298  0.75319562  0.65931974  1
  Na  Na45  1  0.25835750  0.76122944  0.32817617  1
  Na  Na46  1  0.75206189  0.75458841  0.00357530  1
  Na  Na47  1  0.76064977  0.25919688  -0.01378918  1
  Na  Na48  1  0.22139075  0.22213998  0.33088412  1
  Na  Na49  1  0.24235003  0.75126532  0.68208708  1
  Na  Na50  1  0.26365675  0.76654479  -0.02207251  1
  Na  Na51  1  0.74547806  0.23985116  0.68815745  1
  Na  Na52  1  0.75070622  0.24597412  0.50874725  1
  Na  Na53  1  0.25243992  0.75423565  0.15609484  1
  Na  Na54  1  0.23613206  0.23634139  0.16102883  1
  Na  Na55  1  0.23035564  0.23789682  0.85647256  1
  Na  Na56  1  0.25840068  0.76328454  0.49885969  1
  Na  Na57  1  0.74374487  0.74653832  0.18147508  1
  Na  Na58  1  0.23382828  0.23333419  0.50007683  1
  Na  Na59  1  0.74324212  0.75364900  0.83250679  1
  Na  Na60  1  0.76384209  0.25647190  0.15495628  1
  Na  Na61  1  0.75748762  0.76111343  0.48511976  1
  Fe  Fe62  1  0.46524938  0.80992025  0.78522628  1
  Fe  Fe63  1  0.96092443  0.30417974  0.44854464  1
  Fe  Fe64  1  0.96071714  0.80724045  0.45219546  1
  Fe  Fe65  1  0.96559398  0.80870884  0.12235029  1
  Fe  Fe66  1  0.45920163  0.30652646  0.11453604  1
  Fe  Fe67  1  0.46357956  0.30995185  0.78699784  1
  Fe  Fe68  1  0.46440145  0.30565222  0.44859177  1
  Fe  Fe69  1  0.46786635  0.80370703  0.45044076  1
  Fe  Fe70  1  0.46607150  0.80521847  0.11312494  1
  Fe  Fe71  1  0.96082145  0.81408421  0.79222180  1
  Fe  Fe72  1  0.69176203  0.03558849  0.38247372  1
  Fe  Fe73  1  0.19205401  0.53452978  0.04566264  1
  Fe  Fe74  1  0.69222696  0.53555433  0.38414174  1
  Fe  Fe75  1  0.18767856  0.53629324  0.37541359  1
  Fe  Fe76  1  0.69007422  0.03803792  0.71758102  1
  Fe  Fe77  1  0.69145093  0.53499448  0.71723812  1
  Fe  Fe78  1  0.20897070  0.02783402  0.70884171  1
  Fe  Fe79  1  0.19296466  0.53725135  0.71428003  1
  Fe  Fe80  1  0.20620160  0.02252543  0.02801188  1
  Fe  Fe81  1  0.69053916  0.53580792  0.04878919  1
  Fe  Fe82  1  0.53508275  0.69404758  0.21539251  1
  Fe  Fe83  1  0.53715285  0.18793529  0.20949800  1
  Fe  Fe84  1  0.03054209  0.68829141  0.87792885  1
  Fe  Fe85  1  0.53131902  0.18912385  0.54485409  1
  Fe  Fe86  1  0.03654302  0.18968826  0.54587665  1
  Fe  Fe87  1  0.03304335  0.69092723  0.54645653  1
  Fe  Fe88  1  0.03439385  0.69052683  0.21287630  1
  Fe  Fe89  1  0.53849685  0.19462184  0.88576275  1
  Fe  Fe90  1  0.53593074  0.69121605  0.55056451  1
  Fe  Fe91  1  0.53643570  0.69488922  0.88178923  1
  Fe  Fe92  1  0.30474584  0.46407019  0.61459735  1
  Fe  Fe93  1  0.80578625  0.46680810  0.28831906  1
  Fe  Fe94  1  0.30567845  0.46439643  0.94867088  1
  Fe  Fe95  1  0.30590674  0.46311866  0.27961257  1
  Fe  Fe96  1  0.80791591  0.96710293  0.62625254  1
  Fe  Fe97  1  0.81314517  0.46314325  0.95905543  1
  Fe  Fe98  1  0.30825982  0.96607788  0.28886489  1
  Fe  Fe99  1  0.79703072  0.97469867  0.96163661  1
  Fe  Fe100  1  0.80998009  0.46181753  0.62433816  1
  Fe  Fe101  1  0.80477513  0.96902245  0.28525012  1
  S  S102  1  0.36606502  0.13890676  0.08436320  1
  S  S103  1  0.35914674  0.14253252  0.41209126  1
  S  S104  1  0.36412327  0.14546204  0.75260527  1
  S  S105  1  0.36158207  0.63795657  0.08061562  1
  S  S106  1  0.36002204  0.63683365  0.41531840  1
  S  S107  1  0.36129165  0.63788677  0.74614777  1
  S  S108  1  0.85862781  0.14258990  0.08086851  1
  S  S109  1  0.85776118  0.13985686  0.42216564  1
  S  S110  1  0.85469922  0.13877326  0.75092478  1
  S  S111  1  0.85701724  0.64362153  0.08767845  1
  S  S112  1  0.85691748  0.64098128  0.41867837  1
  S  S113  1  0.85665161  0.64169012  0.74864893  1
  S  S114  1  0.14636730  0.36054953  0.24927684  1
  S  S115  1  0.13973706  0.36173298  0.58143947  1
  S  S116  1  0.13935117  0.36684972  0.91195443  1
  S  S117  1  0.14159389  0.85463927  0.24807308  1
  S  S118  1  0.13568754  0.85904654  0.58280048  1
  S  S119  1  0.13826469  0.84877183  0.91191278  1
  S  S120  1  0.63612242  0.36298131  0.24977341  1
  S  S121  1  0.63744168  0.35872980  0.58515285  1
  S  S122  1  0.63619817  0.36543037  0.91603870  1
  S  S123  1  0.63785406  0.86193475  0.25034672  1
  S  S124  1  0.64148286  0.85833818  0.58247476  1
  S  S125  1  0.63829219  0.85873527  0.91606170  1
  S  S126  1  0.09240768  0.15811158  0.03567570  1
  S  S127  1  0.05443710  0.16474711  0.37488233  1
  S  S128  1  0.07878002  0.16228869  0.70770584  1
  S  S129  1  0.06466488  0.66755724  0.04133608  1
  S  S130  1  0.07007998  0.67812878  0.37980741  1
  S  S131  1  0.06429697  0.66352741  0.70603655  1
  S  S132  1  0.56822172  0.17617620  0.04816840  1
  S  S133  1  0.56965134  0.17250123  0.37725650  1
  S  S134  1  0.56221635  0.17123897  0.70727505  1
  S  S135  1  0.56897853  0.67145302  0.04374953  1
  S  S136  1  0.56442888  0.66551335  0.37519299  1
  S  S137  1  0.56315383  0.66148133  0.70621217  1
  S  S138  1  0.33189970  0.43554307  0.12369245  1
  S  S139  1  0.33236017  0.43185732  0.45573182  1
  S  S140  1  0.32715333  0.43330467  0.78586817  1
  S  S141  1  0.33146475  0.92745119  0.12400217  1
  S  S142  1  0.34025169  0.92978180  0.45576901  1
  S  S143  1  0.34266415  0.93830022  0.78945934  1
  S  S144  1  0.82087133  0.43540690  0.12397779  1
  S  S145  1  0.82381216  0.43138134  0.45928962  1
  S  S146  1  0.83123325  0.43963125  0.79074261  1
  S  S147  1  0.83406242  0.93276363  0.12820020  1
  S  S148  1  0.82852327  0.93590047  0.46163944  1
  S  S149  1  0.81651698  0.92513752  0.79170644  1
  S  S150  1  0.43448336  0.33326429  0.28893968  1
  S  S151  1  0.43081999  0.33089126  0.62304484  1
  S  S152  1  0.43168407  0.33142786  0.95548142  1
  S  S153  1  0.43193479  0.82613536  0.28633645  1
  S  S154  1  0.44192794  0.82915999  0.62152281  1
  S  S155  1  0.43448576  0.82160956  0.95305850  1
  S  S156  1  0.92236831  0.33460802  0.29280067  1
  S  S157  1  0.93774925  0.33423171  0.62269087  1
  S  S158  1  0.93503928  0.34723722  0.96401353  1
  S  S159  1  0.93331852  0.83160368  0.29307290  1
  S  S160  1  0.92641007  0.82343699  0.62268327  1
  S  S161  1  0.92031762  0.82902463  0.95780903  1
  S  S162  1  0.17823753  0.05727241  0.19836763  1
  S  S163  1  0.16957876  0.06435838  0.54179782  1
  S  S164  1  0.18148235  0.06173818  0.87226333  1
  S  S165  1  0.17428103  0.57173430  0.20938568  1
  S  S166  1  0.17164973  0.56978290  0.54334964  1
  S  S167  1  0.16967134  0.56901733  0.87519216  1
  S  S168  1  0.66917629  0.06635772  0.21315200  1
  S  S169  1  0.66777842  0.06735863  0.54452297  1
  S  S170  1  0.66605778  0.06678990  0.87436016  1
  S  S171  1  0.66232646  0.56646100  0.20786326  1
  S  S172  1  0.66421579  0.56271710  0.54270336  1
  S  S173  1  0.66954763  0.56981960  0.87730476  1
  O  O174  1  0.36733135  0.22068681  0.08194920  1
  O  O175  1  0.37438753  0.21887725  0.39907465  1
  O  O176  1  0.36731637  0.22732177  0.74886599  1
  O  O177  1  0.36931295  0.71581959  0.07077300  1
  O  O178  1  0.36921212  0.71493645  0.40588480  1
  O  O179  1  0.37210347  0.71565824  0.73651491  1
  O  O180  1  0.86137816  0.21299926  0.05854039  1
  O  O181  1  0.86282818  0.21811177  0.41207232  1
  O  O182  1  0.86788469  0.20896326  0.73171572  1
  O  O183  1  0.86791780  0.72344888  0.08166290  1
  O  O184  1  0.86481733  0.72194387  0.41556633  1
  O  O185  1  0.86842923  0.71981761  0.74016427  1
  O  O186  1  0.28533397  0.11855708  0.08617156  1
  O  O187  1  0.28042447  0.13852497  0.41743656  1
  O  O188  1  0.28308567  0.13030061  0.75637785  1
  O  O189  1  0.28324937  0.62860689  0.08968660  1
  O  O190  1  0.28190285  0.62893218  0.42500204  1
  O  O191  1  0.28258158  0.63003460  0.75371479  1
  O  O192  1  0.78595463  0.13124098  0.09713172  1
  O  O193  1  0.77896181  0.12965333  0.43049557  1
  O  O194  1  0.76921719  0.13003321  0.74541939  1
  O  O195  1  0.77898111  0.63633421  0.09848003  1
  O  O196  1  0.77963746  0.63029733  0.43100849  1
  O  O197  1  0.77748868  0.63529965  0.75696565  1
  O  O198  1  0.13693751  0.28909512  0.26744302  1
  O  O199  1  0.13106967  0.28258071  0.58919265  1
  O  O200  1  0.12608018  0.28750248  0.91254251  1
  O  O201  1  0.13093024  0.77352926  0.25239726  1
  O  O202  1  0.12419342  0.78139196  0.59360744  1
  O  O203  1  0.11769958  0.77684369  0.92943667  1
  O  O204  1  0.62766284  0.28517985  0.25989439  1
  O  O205  1  0.62753010  0.27939366  0.59137593  1
  O  O206  1  0.63052563  0.28637188  0.92507718  1
  O  O207  1  0.62812820  0.78314409  0.25803347  1
  O  O208  1  0.63251255  0.78003736  0.59277488  1
  O  O209  1  0.63640425  0.77671722  0.92099844  1
  O  O210  1  0.22948887  0.36914434  0.24644986  1
  O  O211  1  0.21838990  0.36928922  0.57197707  1
  O  O212  1  0.22041124  0.37466904  0.90450437  1
  O  O213  1  0.22276331  0.86216404  0.24353209  1
  O  O214  1  0.20485093  0.86303317  0.56060383  1
  O  O215  1  0.21155966  0.84244384  0.89584908  1
  O  O216  1  0.71401512  0.37232958  0.24090586  1
  O  O217  1  0.71654902  0.36865409  0.57791642  1
  O  O218  1  0.71378279  0.37928246  0.90812485  1
  O  O219  1  0.71762287  0.87185576  0.24480536  1
  O  O220  1  0.72304591  0.86788978  0.58005255  1
  O  O221  1  0.72080112  0.87412480  0.91500005  1
  O  O222  1  0.42130606  0.13550245  0.15744895  1
  O  O223  1  0.41683532  0.13850708  0.48325395  1
  O  O224  1  0.42085138  0.13985666  0.82324679  1
  O  O225  1  0.42139309  0.63130741  0.14909311  1
  O  O226  1  0.41985459  0.62817462  0.48286608  1
  O  O227  1  0.42064487  0.62805782  0.81359479  1
  O  O228  1  0.92674738  0.13910369  0.14272935  1
  O  O229  1  0.91665583  0.13516331  0.49168548  1
  O  O230  1  0.90308557  0.13879776  0.82487410  1
  O  O231  1  0.91726173  0.63474284  0.15452548  1
  O  O232  1  0.91836489  0.62898615  0.48306595  1
  O  O233  1  0.91497189  0.63278653  0.81675582  1
  O  O234  1  0.38382496  0.08586388  0.02103279  1
  O  O235  1  0.36907295  0.07990511  0.34700400  1
  O  O236  1  0.37828774  0.09141633  0.68722474  1
  O  O237  1  0.37075783  0.57742116  0.01369391  1
  O  O238  1  0.36889164  0.57713947  0.34786766  1
  O  O239  1  0.36961910  0.57741910  0.67842238  1
  O  O240  1  0.86211763  0.07431031  0.01054698  1
  O  O241  1  0.86802764  0.07985050  0.35606851  1
  O  O242  1  0.86924105  0.07081531  0.69030723  1
  O  O243  1  0.86010487  0.58606620  0.01747108  1
  O  O244  1  0.85859526  0.58554900  0.34697493  1
  O  O245  1  0.86242299  0.58186500  0.68025776  1
  O  O246  1  0.09376661  0.36312820  0.17785069  1
  O  O247  1  0.08002410  0.37243572  0.51538849  1
  O  O248  1  0.08396170  0.38761987  0.85057144  1
  O  O249  1  0.08514414  0.86118144  0.17695345  1
  O  O250  1  0.06642613  0.87448005  0.52568401  1
  O  O251  1  0.07570249  0.85963271  0.84744108  1
  O  O252  1  0.57598423  0.37282194  0.18314594  1
  O  O253  1  0.57858943  0.36873204  0.51722414  1
  O  O254  1  0.57652195  0.37001526  0.84648276  1
  O  O255  1  0.57989492  0.87015649  0.18172147  1
  O  O256  1  0.58682075  0.86068250  0.51002554  1
  O  O257  1  0.58488916  0.85837391  0.84168091  1
  O  O258  1  0.13727903  0.42704595  0.31383996  1
  O  O259  1  0.13410177  0.42062713  0.65095770  1
  O  O260  1  0.13752751  0.42258932  0.98595540  1
  O  O261  1  0.13024941  0.91234441  0.31300676  1
  O  O262  1  0.14177287  0.91961778  0.65690183  1
  O  O263  1  0.14293636  0.91450729  0.98166349  1
  O  O264  1  0.62835616  0.42300656  0.31828501  1
  O  O265  1  0.62811264  0.41735620  0.65301839  1
  O  O266  1  0.62457312  0.42324283  0.98297690  1
  O  O267  1  0.62726927  0.92127593  0.31714351  1
  O  O268  1  0.62776228  0.91888265  0.64599928  1
  O  O269  1  0.62117102  0.91345824  0.97821986  1
  O  O270  1  0.08862788  0.17829941  0.11216077  1
  O  O271  1  0.02454072  0.20331547  0.44171311  1
  O  O272  1  0.04138166  0.17751264  0.76458830  1
  O  O273  1  0.02590369  0.69464907  0.10096004  1
  O  O274  1  0.02945487  0.70659109  0.43829708  1
  O  O275  1  0.02952787  0.69211218  0.76772291  1
  O  O276  1  0.53026195  0.21244158  0.10881369  1
  O  O277  1  0.53490747  0.20278191  0.43953703  1
  O  O278  1  0.52826690  0.20211323  0.76986869  1
  O  O279  1  0.53173254  0.70282779  0.10412073  1
  O  O280  1  0.52955702  0.69638194  0.43712948  1
  O  O281  1  0.53026873  0.69492096  0.76813339  1
  O  O282  1  0.30088868  0.47061105  0.06201261  1
  O  O283  1  0.30544002  0.46893431  0.39589661  1
  O  O284  1  0.29768397  0.47138873  0.72567717  1
  O  O285  1  0.30399327  0.96303843  0.06381951  1
  O  O286  1  0.31397322  0.95639447  0.38906848  1
  O  O287  1  0.30728455  0.97206654  0.72677624  1
  O  O288  1  0.78884034  0.47425851  0.06329780  1
  O  O289  1  0.79400396  0.46932425  0.39935906  1
  O  O290  1  0.79294885  0.47718686  0.73002746  1
  O  O291  1  0.80916131  0.96348152  0.06399511  1
  O  O292  1  0.79772100  0.96969450  0.39897403  1
  O  O293  1  0.78807455  0.96538634  0.73366777  1
  O  O294  1  0.47175177  0.30470641  0.22940801  1
  O  O295  1  0.46634902  0.30128782  0.56165423  1
  O  O296  1  0.47144405  0.30231916  0.89728100  1
  O  O297  1  0.46702265  0.79541718  0.22407990  1
  O  O298  1  0.47354513  0.78989642  0.55708532  1
  O  O299  1  0.47300182  0.79181026  0.89156866  1
  O  O300  1  0.95303589  0.31441142  0.23138560  1
  O  O301  1  0.96800976  0.30206353  0.55717208  1
  O  O302  1  0.95775063  0.32891188  0.89619350  1
  O  O303  1  0.97230109  0.80383863  0.23379624  1
  O  O304  1  0.96421536  0.79230234  0.56313764  1
  O  O305  1  0.95627339  0.80202188  0.89643861  1
  O  O306  1  0.20932313  0.01599933  0.25487099  1
  O  O307  1  0.20015241  0.03480404  0.60719747  1
  O  O308  1  0.21190592  0.01666023  0.92658607  1
  O  O309  1  0.20755445  0.53747720  0.27144636  1
  O  O310  1  0.20128315  0.53100295  0.60315757  1
  O  O311  1  0.20221647  0.53520299  0.93763952  1
  O  O312  1  0.70339117  0.03412585  0.27899029  1
  O  O313  1  0.69729473  0.02682123  0.60198763  1
  O  O314  1  0.69651769  0.02799166  0.93250722  1
  O  O315  1  0.69340637  0.53364474  0.27104726  1
  O  O316  1  0.69363651  0.52781633  0.60418152  1
  O  O317  1  0.69786795  0.53817338  0.94076048  1
  O  O318  1  0.11095114  0.07275309  0.01339426  1
  O  O319  1  0.07025403  0.08534467  0.37690098  1
  O  O320  1  0.10565988  0.08140214  0.69294549  1
  O  O321  1  0.08470447  0.58662368  0.03464310  1
  O  O322  1  0.09286741  0.60026873  0.37959274  1
  O  O323  1  0.08113394  0.58006819  0.69919309  1
  O  O324  1  0.58261718  0.09768435  0.04818818  1
  O  O325  1  0.58471185  0.09014930  0.36939037  1
  O  O326  1  0.57946239  0.08917182  0.70228583  1
  O  O327  1  0.58722661  0.59116260  0.04386807  1
  O  O328  1  0.57949625  0.58253649  0.37075302  1
  O  O329  1  0.57940678  0.57902804  0.70383513  1
  O  O330  1  0.41416070  0.41846357  0.12666015  1
  O  O331  1  0.41648863  0.41658092  0.46314143  1
  O  O332  1  0.40832738  0.41578108  0.78908402  1
  O  O333  1  0.41308520  0.90759043  0.12981527  1
  O  O334  1  0.42157172  0.90528388  0.46303886  1
  O  O335  1  0.41869883  0.91110596  0.77876006  1
  O  O336  1  0.89963717  0.41939174  0.12894129  1
  O  O337  1  0.90498089  0.41378115  0.46640197  1
  O  O338  1  0.91199521  0.43319814  0.79159118  1
  O  O339  1  0.91682833  0.91465771  0.14153916  1
  O  O340  1  0.91033035  0.91727443  0.46559124  1
  O  O341  1  0.89674680  0.90765087  0.79578006  1
  O  O342  1  0.41835659  0.41647906  0.29412457  1
  O  O343  1  0.41590401  0.41446051  0.62912542  1
  O  O344  1  0.41132340  0.41188097  0.95726717  1
  O  O345  1  0.41313043  0.90643048  0.29020648  1
  O  O346  1  0.44061451  0.91207665  0.62904227  1
  O  O347  1  0.40950733  0.89695765  0.95298122  1
  O  O348  1  0.90245873  0.41725402  0.31136008  1
  O  O349  1  0.91800234  0.41656887  0.62565693  1
  O  O350  1  0.92230433  0.43538445  0.98593421  1
  O  O351  1  0.91086554  0.91172014  0.29688062  1
  O  O352  1  0.90852594  0.90387037  0.62347940  1
  O  O353  1  0.89514875  0.90751438  0.96272050  1
  O  O354  1  0.09668253  0.06667791  0.19479370  1
  O  O355  1  0.08629123  0.08168920  0.53407751  1
  O  O356  1  0.09917104  0.06893171  0.85810971  1
  O  O357  1  0.09319943  0.58816129  0.20645215  1
  O  O358  1  0.09019581  0.58633513  0.54022765  1
  O  O359  1  0.08710124  0.58385645  0.87003045  1
  O  O360  1  0.58906389  0.08642240  0.21614040  1
  O  O361  1  0.58651345  0.08469945  0.54196890  1
  O  O362  1  0.58515171  0.08665936  0.87250031  1
  O  O363  1  0.57920394  0.58271379  0.20325676  1
  O  O364  1  0.58119884  0.57912609  0.53682906  1
  O  O365  1  0.58782893  0.58936696  0.86925629  1
  O  O366  1  0.15539204  0.20924169  0.03310125  1
  O  O367  1  0.12773705  0.21479913  0.39009988  1
  O  O368  1  0.14717474  0.22087600  0.72728490  1
  O  O369  1  0.13463995  0.72173536  0.05938280  1
  O  O370  1  0.13885766  0.73393185  0.39641386  1
  O  O371  1  0.13469805  0.71368912  0.71910818  1
  O  O372  1  0.63858924  0.22885280  0.06302543  1
  O  O373  1  0.64250770  0.22331939  0.39504818  1
  O  O374  1  0.63148933  0.22309345  0.71995696  1
  O  O375  1  0.64018718  0.72317305  0.05969573  1
  O  O376  1  0.63568375  0.71502417  0.38931748  1
  O  O377  1  0.63453498  0.70956725  0.71662013  1
  O  O378  1  0.28215292  0.36658698  0.11371349  1
  O  O379  1  0.28288598  0.36016875  0.44094596  1
  O  O380  1  0.27519796  0.36258941  0.76902365  1
  O  O381  1  0.27871409  0.85600777  0.10743351  1
  O  O382  1  0.28619538  0.86056477  0.44344291  1
  O  O383  1  0.29055692  0.87017881  0.78026676  1
  O  O384  1  0.76668070  0.36393475  0.10378329  1
  O  O385  1  0.77125132  0.35985249  0.44150338  1
  O  O386  1  0.78360833  0.36560913  0.77230028  1
  O  O387  1  0.78069444  0.86247214  0.11332290  1
  O  O388  1  0.77637254  0.86594044  0.44753588  1
  O  O389  1  0.76365109  0.85181669  0.76974351  1
  O  O390  1  0.36380689  0.28243430  0.27378355  1
  O  O391  1  0.35847884  0.28163835  0.60789009  1
  O  O392  1  0.36303902  0.27809577  0.94084192  1
  O  O393  1  0.36101589  0.77286641  0.27018600  1
  O  O394  1  0.36500388  0.78631779  0.60505394  1
  O  O395  1  0.37037667  0.76225706  0.93908235  1
  O  O396  1  0.85137338  0.28089236  0.27924720  1
  O  O397  1  0.86631333  0.28440142  0.61016333  1
  O  O398  1  0.86063605  0.30174534  0.95140965  1
  O  O399  1  0.86550155  0.77575770  0.27710325  1
  O  O400  1  0.85351114  0.77123633  0.60328384  1
  O  O401  1  0.85300360  0.77133803  0.94241788  1
  O  O402  1  0.22767980  0.13265233  0.22178077  1
  O  O403  1  0.21913965  0.13883383  0.55871419  1
  O  O404  1  0.23194861  0.13588277  0.89798062  1
  O  O405  1  0.22541059  0.64285248  0.22310882  1
  O  O406  1  0.22292393  0.64298069  0.56338903  1
  O  O407  1  0.21988110  0.63940978  0.88805285  1
  O  O408  1  0.71929034  0.13817299  0.22778962  1
  O  O409  1  0.71926476  0.13987417  0.56327869  1
  O  O410  1  0.71774599  0.13620179  0.88717497  1
  O  O411  1  0.71158236  0.63678980  0.21925300  1
  O  O412  1  0.71427182  0.63427202  0.55707961  1
  O  O413  1  0.72203249  0.63928356  0.88930847  1
  O  O414  1  0.49101704  0.33994302  0.03046988  1
  O  O415  1  0.49366069  0.33866033  0.36333444  1
  O  O416  1  0.49026531  0.33374959  0.69570675  1
  O  O417  1  0.49689501  0.82708766  0.02612566  1
  O  O418  1  0.49200552  0.82569785  0.35719454  1
  O  O419  1  0.49799141  0.81854063  0.69040953  1
  O  O420  1  0.99841765  0.34047024  0.02890987  1
  O  O421  1  0.98304780  0.33173204  0.36474792  1
  O  O422  1  1.00005923  0.34019262  0.69213771  1
  O  O423  1  0.98242124  0.83236444  0.02931729  1
  O  O424  1  0.99282004  0.83900701  0.36757953  1
  O  O425  1  0.98224295  0.82583204  0.69596003  1
  O  O426  1  0.18084584  0.00664972  0.12309945  1
  O  O427  1  0.17006549  0.00530239  0.47314853  1
  O  O428  1  0.19355836  0.01047835  0.79933206  1
  O  O429  1  0.17083499  0.51112380  0.13759323  1
  O  O430  1  0.17145481  0.51313323  0.47117589  1
  O  O431  1  0.16578972  0.50806063  0.80246495  1
  O  O432  1  0.66360668  0.00557592  0.14415171  1
  O  O433  1  0.66518244  0.01106304  0.47036970  1
  O  O434  1  0.65649620  0.00743849  0.79846214  1
  O  O435  1  0.65567610  0.50477114  0.13501178  1
  O  O436  1  0.66068618  0.50359864  0.46969435  1
  O  O437  1  0.66605931  0.50729083  0.80584355  1
  O  O438  1  -0.00483297  0.16232613  0.30517097  1
  O  O439  1  0.01939245  0.16312930  0.63498119  1
  O  O440  1  0.01664215  0.15832413  0.98021011  1
  O  O441  1  0.01125267  0.67264087  0.30585611  1
  O  O442  1  0.00320977  0.65932599  0.63314284  1
  O  O443  1  0.00533142  0.66612361  0.96881403  1
  O  O444  1  0.51089378  0.17498422  0.30655391  1
  O  O445  1  0.50082028  0.16625655  0.63435447  1
  O  O446  1  0.50891288  0.17549124  0.97511043  1
  O  O447  1  0.50447327  0.66230480  0.30266575  1
  O  O448  1  0.50259649  0.65476321  0.63279397  1
  O  O449  1  0.51057150  0.66546094  0.97018765  1
  O  O450  1  0.33963292  0.49799001  0.19693127  1
  O  O451  1  0.33576389  0.49172306  0.52901609  1
  O  O452  1  0.32972837  0.49210037  0.85851328  1
  O  O453  1  0.33749549  0.98552201  0.19890459  1
  O  O454  1  0.34713495  0.99323482  0.52453544  1
  O  O455  1  0.36253616  0.99956734  0.86232796  1
  O  O456  1  0.81739587  0.49362082  0.19542038  1
  O  O457  1  0.82341330  0.49015573  0.53142423  1
  O  O458  1  0.83005591  0.49438619  0.86454548  1
  O  O459  1  0.83155055  0.99467536  0.19753025  1
  O  O460  1  0.83359569  0.99621950  0.53446718  1
  O  O461  1  0.81452896  0.97911761  0.86461578  1
