# generated using pymatgen
data_Na31Fe20(SO4)36
_symmetry_space_group_name_H-M   'P 1'
_cell_length_a   18.09251191
_cell_length_b   18.09150498
_cell_length_c   19.73017226
_cell_angle_alpha   107.57737745
_cell_angle_beta   107.60925945
_cell_angle_gamma   90.77279622
_symmetry_Int_Tables_number   1
_chemical_formula_structural   Na31Fe20(SO4)36
_chemical_formula_sum   'Na62 Fe40 S72 O288'
_cell_volume   5828.88383082
_cell_formula_units_Z   2
loop_
 _symmetry_equiv_pos_site_id
 _symmetry_equiv_pos_as_xyz
  1  'x, y, z'
loop_
 _atom_site_type_symbol
 _atom_site_label
 _atom_site_symmetry_multiplicity
 _atom_site_fract_x
 _atom_site_fract_y
 _atom_site_fract_z
 _atom_site_occupancy
  Na  Na0  1  0.12748854  0.35728916  0.06833793  1
  Na  Na1  1  0.12944952  0.36479738  0.41511866  1
  Na  Na2  1  0.12007559  0.35871071  0.74400288  1
  Na  Na3  1  0.12941119  0.84768480  0.07001186  1
  Na  Na4  1  0.12948111  0.86910530  0.41502710  1
  Na  Na5  1  0.14017144  0.86503301  0.75989694  1
  Na  Na6  1  0.63511661  0.36505396  0.08705125  1
  Na  Na7  1  0.63555279  0.36441922  0.41500252  1
  Na  Na8  1  0.63041216  0.36560371  0.74401150  1
  Na  Na9  1  0.69813323  0.90439547  0.14720342  1
  Na  Na10  1  0.64238065  0.88341524  0.43199782  1
  Na  Na11  1  0.64060635  0.85686502  0.74247130  1
  Na  Na12  1  0.37912927  0.12621833  0.25129256  1
  Na  Na13  1  0.37160169  0.12816845  0.58385254  1
  Na  Na14  1  0.36922992  0.13230447  0.91896414  1
  Na  Na15  1  0.36333281  0.62992466  0.24434298  1
  Na  Na16  1  0.37014444  0.63155236  0.58707472  1
  Na  Na17  1  0.34958617  0.65319529  0.91812620  1
  Na  Na18  1  0.85959429  0.12415912  0.24382038  1
  Na  Na19  1  0.86740673  0.11715955  0.58602988  1
  Na  Na20  1  0.87567528  0.14123170  0.92202080  1
  Na  Na21  1  0.85572822  0.63802380  0.24315454  1
  Na  Na22  1  0.86196014  0.65672242  0.59804952  1
  Na  Na23  1  0.87207038  0.63818311  0.92468662  1
  Na  Na24  1  0.92962253  -0.00002855  0.40549638  1
  Na  Na25  1  0.51103272  0.05777405  0.11756500  1
  Na  Na26  1  0.98643498  0.51236647  0.42278903  1
  Na  Na27  1  0.99139629  0.52794643  0.07520362  1
  Na  Na28  1  1.00369905  -0.00697667  0.06476627  1
  Na  Na29  1  0.49727131  0.49706777  0.43980428  1
  Na  Na30  1  0.49089479  0.50640080  0.08318385  1
  Na  Na31  1  0.49622928  0.51133772  0.73410185  1
  Na  Na32  1  0.51574098  -0.00298390  0.72815097  1
  Na  Na33  1  0.00856046  0.44847730  0.88005018  1
  Na  Na34  1  -0.02127096  1.04194337  0.75910873  1
  Na  Na35  1  0.50364081  0.49551403  0.91000370  1
  Na  Na36  1  0.51087010  0.48387179  0.25599326  1
  Na  Na37  1  0.68725831  1.02810756  0.36707028  1
  Na  Na38  1  -0.00350131  0.93871756  0.23153584  1
  Na  Na39  1  0.54767334  0.98531579  0.94022539  1
  Na  Na40  1  0.00629954  0.49325706  0.24544987  1
  Na  Na41  1  -0.01594558  0.50260513  0.61046328  1
  Na  Na42  1  0.74384667  0.24153332  0.00425020  1
  Na  Na43  1  0.75377063  0.75244336  0.00944452  1
  Na  Na44  1  0.23517358  0.23312923  0.00437286  1
  Na  Na45  1  0.76523953  0.25960927  0.66757537  1
  Na  Na46  1  0.23969208  0.24286770  0.33719036  1
  Na  Na47  1  0.24522389  0.74154267  0.68218091  1
  Na  Na48  1  0.23791401  0.23967863  0.67367042  1
  Na  Na49  1  0.25736277  0.75556341  0.32708724  1
  Na  Na50  1  0.70444268  0.20948970  0.32361096  1
  Na  Na51  1  0.76491371  0.77448943  0.32294321  1
  Na  Na52  1  0.22820795  0.23318083  0.84054399  1
  Na  Na53  1  0.25097743  0.24359096  0.17310469  1
  Na  Na54  1  0.26233045  0.75939041  0.15215889  1
  Na  Na55  1  0.76406915  0.25975022  0.82936056  1
  Na  Na56  1  0.24851541  0.74669099  0.50140972  1
  Na  Na57  1  0.24211571  0.24115438  0.50667365  1
  Na  Na58  1  0.76168427  0.75779275  0.82733843  1
  Na  Na59  1  0.75722005  0.76790124  0.50587383  1
  Na  Na60  1  0.73233496  0.23084321  0.17128313  1
  Na  Na61  1  0.74107348  0.23672180  0.50247684  1
  Fe  Fe62  1  0.46850475  0.81114402  0.12180201  1
  Fe  Fe63  1  0.46383051  0.80825643  0.45421531  1
  Fe  Fe64  1  0.46260551  0.30833080  0.45035473  1
  Fe  Fe65  1  0.96731427  0.81572413  0.46378702  1
  Fe  Fe66  1  0.96305636  0.81705104  0.78966684  1
  Fe  Fe67  1  0.96042750  0.31228243  0.45298332  1
  Fe  Fe68  1  0.96605549  0.30674998  0.11473457  1
  Fe  Fe69  1  0.46428332  0.30533815  0.78372732  1
  Fe  Fe70  1  0.46562215  0.30430905  0.12043521  1
  Fe  Fe71  1  0.46775190  0.80797158  0.78934261  1
  Fe  Fe72  1  0.19348948  0.53315467  0.04327348  1
  Fe  Fe73  1  0.18985537  0.03191998  0.04037183  1
  Fe  Fe74  1  0.18982582  0.03225823  0.37494610  1
  Fe  Fe75  1  0.69088127  0.54237735  0.71479826  1
  Fe  Fe76  1  0.69057247  0.53523503  0.05082510  1
  Fe  Fe77  1  0.19362975  0.53351614  0.71886492  1
  Fe  Fe78  1  0.69345179  0.53898197  0.38637650  1
  Fe  Fe79  1  0.19111085  0.53582296  0.38133480  1
  Fe  Fe80  1  0.70028887  0.03128481  0.70636584  1
  Fe  Fe81  1  0.19199840  0.02958240  0.71053550  1
  Fe  Fe82  1  0.53379288  0.19248081  0.54541026  1
  Fe  Fe83  1  0.03588122  0.69454597  0.55361614  1
  Fe  Fe84  1  0.03101600  0.69651789  0.21164128  1
  Fe  Fe85  1  0.53619331  0.69616260  0.88865124  1
  Fe  Fe86  1  0.53671446  0.69508513  0.55111935  1
  Fe  Fe87  1  0.03102193  0.19076150  0.21075965  1
  Fe  Fe88  1  0.02695998  0.19208939  0.54497240  1
  Fe  Fe89  1  0.03792347  0.68832105  0.87946727  1
  Fe  Fe90  1  0.53708599  0.18798116  0.87590972  1
  Fe  Fe91  1  0.53294706  0.68911148  0.21602918  1
  Fe  Fe92  1  0.30388204  0.46678960  0.28506115  1
  Fe  Fe93  1  0.30384637  0.46439144  0.61766300  1
  Fe  Fe94  1  0.80650990  0.46589266  0.62230700  1
  Fe  Fe95  1  0.30756701  0.96494592  0.61923296  1
  Fe  Fe96  1  0.80256289  0.46708212  0.95140481  1
  Fe  Fe97  1  0.30627439  0.46602173  0.94758848  1
  Fe  Fe98  1  0.80199282  0.96821100  0.95416548  1
  Fe  Fe99  1  0.31195264  0.96507989  0.28726302  1
  Fe  Fe100  1  0.80587102  0.46698937  0.28665488  1
  Fe  Fe101  1  0.31235387  0.95791094  0.95307621  1
  S  S102  1  0.35739053  0.13948568  0.08147356  1
  S  S103  1  0.35495431  0.14256108  0.41583082  1
  S  S104  1  0.35971429  0.13941363  0.74785000  1
  S  S105  1  0.36307367  0.63698586  0.08160505  1
  S  S106  1  0.35883913  0.63915697  0.41822926  1
  S  S107  1  0.36235269  0.63807894  0.75160093  1
  S  S108  1  0.85776662  0.14374839  0.07736431  1
  S  S109  1  0.85664938  0.14907142  0.41287718  1
  S  S110  1  0.85305604  0.14489416  0.75775741  1
  S  S111  1  0.85766324  0.63770066  0.08567379  1
  S  S112  1  0.86158936  0.64147564  0.41901795  1
  S  S113  1  0.86403512  0.64117278  0.74992585  1
  S  S114  1  0.13830517  0.36156418  0.25083476  1
  S  S115  1  0.13675222  0.35915240  0.58074007  1
  S  S116  1  0.14882453  0.35721924  0.91599495  1
  S  S117  1  0.14547744  0.85586357  0.24692527  1
  S  S118  1  0.14843386  0.85370976  0.58470417  1
  S  S119  1  0.14100430  0.85706833  0.91880667  1
  S  S120  1  0.63964768  0.36428646  0.25120697  1
  S  S121  1  0.63445326  0.36779552  0.58368518  1
  S  S122  1  0.63748285  0.36111767  0.91603429  1
  S  S123  1  0.63722485  0.84840330  0.25321127  1
  S  S124  1  0.63460707  0.86213883  0.58413495  1
  S  S125  1  0.64465474  0.85330378  0.91559830  1
  S  S126  1  0.06917818  0.17303699  0.04663446  1
  S  S127  1  0.06669183  0.17084138  0.37447015  1
  S  S128  1  0.06967870  0.16031299  0.70266673  1
  S  S129  1  0.06915559  0.65990379  0.04048319  1
  S  S130  1  0.06574670  0.66511357  0.37539085  1
  S  S131  1  0.06957579  0.66691521  0.70898463  1
  S  S132  1  0.56294966  0.17683274  0.03863738  1
  S  S133  1  0.56024877  0.17832375  0.38217895  1
  S  S134  1  0.57111206  0.17340356  0.71046463  1
  S  S135  1  0.56510216  0.66003855  0.03901300  1
  S  S136  1  0.56415833  0.66596945  0.37864420  1
  S  S137  1  0.56581097  0.67021460  0.71179953  1
  S  S138  1  0.33088731  0.43200763  0.12322058  1
  S  S139  1  0.32463371  0.43208353  0.45585428  1
  S  S140  1  0.33073896  0.43160550  0.78758500  1
  S  S141  1  0.32775102  0.93047276  0.12267733  1
  S  S142  1  0.32473445  0.92997593  0.45432515  1
  S  S143  1  0.33567251  0.93324508  0.79135915  1
  S  S144  1  0.82738503  0.43099548  0.12482616  1
  S  S145  1  0.83068468  0.43803537  0.46001600  1
  S  S146  1  0.82118650  0.43801563  0.78728799  1
  S  S147  1  0.84524090  0.94207702  0.11614184  1
  S  S148  1  0.82962907  0.93125013  0.46692012  1
  S  S149  1  0.82424748  0.93145879  0.79190279  1
  S  S150  1  0.43112701  0.34339518  0.29459323  1
  S  S151  1  0.42847097  0.32986606  0.62332314  1
  S  S152  1  0.43258073  0.33250492  0.95577149  1
  S  S153  1  0.42795239  0.82150514  0.28816792  1
  S  S154  1  0.43015891  0.82620654  0.62488716  1
  S  S155  1  0.43628234  0.83153185  0.95829888  1
  S  S156  1  0.93092315  0.33553420  0.28891679  1
  S  S157  1  0.92959025  0.32899652  0.62230972  1
  S  S158  1  0.93324905  0.34495960  0.96219531  1
  S  S159  1  0.93942804  0.82546351  0.29661022  1
  S  S160  1  0.94598349  0.83575944  0.63141703  1
  S  S161  1  0.92938815  0.82965690  0.95390182  1
  S  S162  1  0.17140746  0.06765570  0.20761697  1
  S  S163  1  0.17227600  0.06840092  0.54010063  1
  S  S164  1  0.17410946  0.06055310  0.87561115  1
  S  S165  1  0.16804137  0.56542616  0.20777810  1
  S  S166  1  0.17038649  0.56644764  0.54368680  1
  S  S167  1  0.16705968  0.56329065  0.87180338  1
  S  S168  1  0.66902316  0.06502171  0.20766849  1
  S  S169  1  0.66913651  0.07520016  0.54683253  1
  S  S170  1  0.66930292  0.06395210  0.87052631  1
  S  S171  1  0.66679676  0.56567832  0.21187575  1
  S  S172  1  0.67227341  0.57203455  0.54415099  1
  S  S173  1  0.66615321  0.56658745  0.87557510  1
  O  O174  1  0.36553723  0.21809060  0.07105804  1
  O  O175  1  0.36262774  0.22138991  0.40650977  1
  O  O176  1  0.36980683  0.21747627  0.73754427  1
  O  O177  1  0.37436485  0.71630886  0.07722390  1
  O  O178  1  0.36626441  0.71976810  0.41396235  1
  O  O179  1  0.37188894  0.71593409  0.74177728  1
  O  O180  1  0.87620951  0.21893473  0.06372940  1
  O  O181  1  0.86980348  0.22961878  0.40733266  1
  O  O182  1  0.85179023  0.22633639  0.75831290  1
  O  O183  1  0.86662419  0.71405335  0.07821727  1
  O  O184  1  0.87339126  0.72017109  0.41325127  1
  O  O185  1  0.87493622  0.71642435  0.73637827  1
  O  O186  1  0.27479197  0.13059519  0.08327566  1
  O  O187  1  0.27382099  0.13284824  0.42028666  1
  O  O188  1  0.27965122  0.13134205  0.75314047  1
  O  O189  1  0.28567259  0.62760141  0.09283160  1
  O  O190  1  0.28080096  0.62878811  0.42864961  1
  O  O191  1  0.28197950  0.62699947  0.75432975  1
  O  O192  1  0.77898717  0.14295571  0.08157608  1
  O  O193  1  0.77520953  0.14119294  0.41259011  1
  O  O194  1  0.77093675  0.12556163  0.76488259  1
  O  O195  1  0.78069001  0.62264111  0.09610934  1
  O  O196  1  0.78289216  0.63284315  0.42753512  1
  O  O197  1  0.78477910  0.63451164  0.75837186  1
  O  O198  1  0.12903633  0.28378993  0.26074895  1
  O  O199  1  0.12925610  0.27957248  0.58769282  1
  O  O200  1  0.14414168  0.28155542  0.92813300  1
  O  O201  1  0.13535951  0.77706653  0.25568419  1
  O  O202  1  0.14101020  0.77193868  0.58741071  1
  O  O203  1  0.12644494  0.78025087  0.92904297  1
  O  O204  1  0.63164709  0.28731474  0.25841927  1
  O  O205  1  0.62632026  0.29050433  0.59513675  1
  O  O206  1  0.62911244  0.28214708  0.92332037  1
  O  O207  1  0.62482978  0.76749279  0.26005356  1
  O  O208  1  0.62202807  0.78712974  0.59936255  1
  O  O209  1  0.63776032  0.76983195  0.91395714  1
  O  O210  1  0.21739285  0.36968873  0.24297750  1
  O  O211  1  0.21502576  0.36873535  0.57076211  1
  O  O212  1  0.22971488  0.37036582  0.91014928  1
  O  O213  1  0.22873120  0.86563949  0.24813129  1
  O  O214  1  0.22768379  0.86551408  0.57717030  1
  O  O215  1  0.21973791  0.86477216  0.91160672  1
  O  O216  1  0.71688365  0.37626597  0.23949660  1
  O  O217  1  0.71345048  0.37524014  0.57431292  1
  O  O218  1  0.71526243  0.37081343  0.90634344  1
  O  O219  1  0.71600488  0.85517330  0.24833854  1
  O  O220  1  0.70958314  0.86947152  0.57330139  1
  O  O221  1  0.72432581  0.86681541  0.90769430  1
  O  O222  1  0.41277585  0.13530600  0.15105376  1
  O  O223  1  0.41128515  0.13782510  0.48587416  1
  O  O224  1  0.41723220  0.13369618  0.81709127  1
  O  O225  1  0.42321154  0.62264046  0.14666000  1
  O  O226  1  0.41964242  0.62686532  0.48299179  1
  O  O227  1  0.41958730  0.63209666  0.82140397  1
  O  O228  1  0.91546332  0.13766284  0.14716989  1
  O  O229  1  0.90986857  0.14216687  0.48578648  1
  O  O230  1  0.91102591  0.13438731  0.82346500  1
  O  O231  1  0.91933217  0.62587716  0.15164673  1
  O  O232  1  0.92103224  0.62940964  0.48543801  1
  O  O233  1  0.92167852  0.63559072  0.81985530  1
  O  O234  1  0.36865627  0.07914726  0.01562783  1
  O  O235  1  0.36340799  0.08291400  0.34891983  1
  O  O236  1  0.36981139  0.07913157  0.68138071  1
  O  O237  1  0.36821881  0.57884425  0.01146749  1
  O  O238  1  0.36251362  0.58330166  0.34698311  1
  O  O239  1  0.37424691  0.57714736  0.68550027  1
  O  O240  1  0.86584939  0.08002360  0.01069538  1
  O  O241  1  0.87358890  0.09130712  0.35128340  1
  O  O242  1  0.86048725  0.09126251  0.68855587  1
  O  O243  1  0.86461057  0.57705707  0.01646718  1
  O  O244  1  0.86817716  0.58193650  0.34977297  1
  O  O245  1  0.87154454  0.57810330  0.68366457  1
  O  O246  1  0.07970212  0.37096818  0.18346314  1
  O  O247  1  0.07707543  0.36735271  0.51306916  1
  O  O248  1  0.09174833  0.36238861  0.84778238  1
  O  O249  1  0.09153027  0.86328339  0.17817090  1
  O  O250  1  0.09004384  0.86290685  0.51782708  1
  O  O251  1  0.08272942  0.86478501  0.85033904  1
  O  O252  1  0.57810283  0.37543652  0.18503561  1
  O  O253  1  0.57553700  0.37515384  0.51531286  1
  O  O254  1  0.57697996  0.37082113  0.84910810  1
  O  O255  1  0.58057939  0.85396202  0.18181403  1
  O  O256  1  0.57177537  0.86681797  0.51634663  1
  O  O257  1  0.58603227  0.86331178  0.84676392  1
  O  O258  1  0.12992783  0.42173915  0.31849083  1
  O  O259  1  0.13008413  0.41798149  0.64905394  1
  O  O260  1  0.13981243  0.41928945  0.98338749  1
  O  O261  1  0.13351288  0.91549526  0.31382134  1
  O  O262  1  0.14322449  0.90853185  0.65520778  1
  O  O263  1  0.13324735  0.91830743  0.98649173  1
  O  O264  1  0.63282344  0.42531424  0.31998855  1
  O  O265  1  0.62680683  0.42858081  0.65068079  1
  O  O266  1  0.62989071  0.41985554  0.98468446  1
  O  O267  1  0.62447525  0.90474039  0.31838210  1
  O  O268  1  0.62725879  0.92578220  0.65181779  1
  O  O269  1  0.63588350  0.90600516  0.98358904  1
  O  O270  1  0.03693855  0.20525443  0.11231980  1
  O  O271  1  0.03046464  0.19808425  0.43530271  1
  O  O272  1  0.03779121  0.17157061  0.76340745  1
  O  O273  1  0.03230735  0.67488266  0.10005524  1
  O  O274  1  0.03228449  0.69477908  0.43757229  1
  O  O275  1  0.03753781  0.69631738  0.77182114  1
  O  O276  1  0.52548015  0.20894370  0.09729038  1
  O  O277  1  0.52393614  0.21270415  0.44632064  1
  O  O278  1  0.53242708  0.20049202  0.77133287  1
  O  O279  1  0.53419101  0.69224439  0.10252046  1
  O  O280  1  0.52634902  0.69745847  0.43848776  1
  O  O281  1  0.52689806  0.69780476  0.77086808  1
  O  O282  1  0.30271589  0.46872842  0.06283020  1
  O  O283  1  0.29493837  0.46938387  0.39539283  1
  O  O284  1  0.29723669  0.46567187  0.72516977  1
  O  O285  1  0.29887668  0.96912018  0.06292529  1
  O  O286  1  0.29683002  0.97100103  0.39646230  1
  O  O287  1  0.30522757  0.97205137  0.73175700  1
  O  O288  1  0.79411137  0.46377617  0.06214948  1
  O  O289  1  0.79960100  0.47305864  0.39786343  1
  O  O290  1  0.78623441  0.47616608  0.72716424  1
  O  O291  1  0.80251278  0.97320490  0.05257744  1
  O  O292  1  0.80530871  0.96654484  0.40645473  1
  O  O293  1  0.79046991  0.96767140  0.73241181  1
  O  O294  1  0.46207875  0.32043841  0.23157177  1
  O  O295  1  0.46299239  0.30109933  0.56179710  1
  O  O296  1  0.46855306  0.30292153  0.89460130  1
  O  O297  1  0.46345588  0.79104086  0.22669921  1
  O  O298  1  0.46250102  0.79467115  0.56162381  1
  O  O299  1  0.47561108  0.80063052  0.89776585  1
  O  O300  1  0.96820352  0.30579826  0.22886431  1
  O  O301  1  0.96615546  0.30057713  0.55951081  1
  O  O302  1  0.96942131  0.33303517  0.90425734  1
  O  O303  1  0.97899646  0.79614989  0.23849786  1
  O  O304  1  0.98248777  0.79754347  0.56919913  1
  O  O305  1  0.95792701  0.80022641  0.88672652  1
  O  O306  1  0.20103871  0.02975049  0.26762572  1
  O  O307  1  0.20014475  0.02757787  0.59814291  1
  O  O308  1  0.20928071  0.02193275  0.93508486  1
  O  O309  1  0.19878895  0.52917284  0.26939695  1
  O  O310  1  0.19968331  0.53000307  0.60448251  1
  O  O311  1  0.20368880  0.53162610  0.93597399  1
  O  O312  1  0.70772905  0.01959439  0.25636171  1
  O  O313  1  0.69218518  0.04110093  0.61009517  1
  O  O314  1  0.69760076  0.02118065  0.92542574  1
  O  O315  1  0.69979864  0.53281553  0.27498281  1
  O  O316  1  0.70455042  0.53927745  0.60716031  1
  O  O317  1  0.69466004  0.52971835  0.93643690  1
  O  O318  1  0.08869901  0.09232121  0.04505317  1
  O  O319  1  0.08670056  0.08999260  0.36623064  1
  O  O320  1  0.09545818  0.08005174  0.68247413  1
  O  O321  1  0.08406928  0.57484479  0.02188175  1
  O  O322  1  0.08067389  0.58092117  0.36939370  1
  O  O323  1  0.09117663  0.58597015  0.70424367  1
  O  O324  1  0.57624781  0.09649688  0.03464323  1
  O  O325  1  0.58119748  0.10173949  0.38418989  1
  O  O326  1  0.59257769  0.09361959  0.70702251  1
  O  O327  1  0.57692525  0.57492129  0.03358886  1
  O  O328  1  0.57981518  0.58326772  0.37532925  1
  O  O329  1  0.58307657  0.58822285  0.70716228  1
  O  O330  1  0.41390002  0.41651268  0.12986219  1
  O  O331  1  0.40506604  0.41291960  0.45909911  1
  O  O332  1  0.41319268  0.41646504  0.79114644  1
  O  O333  1  0.40669480  0.90877361  0.12397049  1
  O  O334  1  0.40175538  0.90529939  0.45399330  1
  O  O335  1  0.41715706  0.91569215  0.79442805  1
  O  O336  1  0.91001699  0.41601029  0.13163205  1
  O  O337  1  0.91407490  0.42417851  0.46480469  1
  O  O338  1  0.89777534  0.41919641  0.78396438  1
  O  O339  1  0.92717088  0.93783308  0.11681447  1
  O  O340  1  0.91274350  0.91044630  0.47015681  1
  O  O341  1  0.90576961  0.91847753  0.79434671  1
  O  O342  1  0.41447798  0.42832553  0.30746593  1
  O  O343  1  0.40891524  0.41126068  0.62922268  1
  O  O344  1  0.41608247  0.41531256  0.95962873  1
  O  O345  1  0.40584804  0.90006193  0.29007396  1
  O  O346  1  0.41149147  0.90732316  0.62932442  1
  O  O347  1  0.42471135  0.91504184  0.96380194  1
  O  O348  1  0.91826440  0.42009387  0.29628134  1
  O  O349  1  0.90545906  0.40836737  0.62030411  1
  O  O350  1  0.90925893  0.42730283  0.97975457  1
  O  O351  1  0.92420390  0.90572057  0.29921046  1
  O  O352  1  0.94634243  0.91843872  0.64321425  1
  O  O353  1  0.89909361  0.90763262  0.95411231  1
  O  O354  1  0.09094987  0.08774760  0.20413786  1
  O  O355  1  0.09359846  0.09176021  0.53453634  1
  O  O356  1  0.09543596  0.07586167  0.87385514  1
  O  O357  1  0.08629464  0.58186957  0.20449257  1
  O  O358  1  0.08944122  0.58643599  0.53911832  1
  O  O359  1  0.08581798  0.57776949  0.86989867  1
  O  O360  1  0.60560338  0.10457935  0.23282566  1
  O  O361  1  0.58905774  0.09788356  0.54079870  1
  O  O362  1  0.58563640  0.07754804  0.86520225  1
  O  O363  1  0.58327168  0.57785417  0.20674599  1
  O  O364  1  0.59102909  0.59059622  0.54100278  1
  O  O365  1  0.58355909  0.58375224  0.87040678  1
  O  O366  1  0.14256703  0.22499932  0.06596137  1
  O  O367  1  0.13785998  0.22561284  0.39328564  1
  O  O368  1  0.13837197  0.21984560  0.72224442  1
  O  O369  1  0.14176922  0.71158328  0.06341779  1
  O  O370  1  0.13930848  0.71293893  0.39005956  1
  O  O371  1  0.13622408  0.71961029  0.71680067  1
  O  O372  1  0.63595859  0.22784284  0.05574902  1
  O  O373  1  0.63130029  0.23479792  0.40286298  1
  O  O374  1  0.63959004  0.22929638  0.72835345  1
  O  O375  1  0.63707754  0.70316087  0.04614368  1
  O  O376  1  0.63607593  0.71530177  0.39489043  1
  O  O377  1  0.63744613  0.72077165  0.72925557  1
  O  O378  1  0.28031394  0.36048881  0.10803013  1
  O  O379  1  0.27165602  0.36176208  0.44010616  1
  O  O380  1  0.28190804  0.35993418  0.77427855  1
  O  O381  1  0.27253218  0.86259048  0.10797921  1
  O  O382  1  0.26744107  0.86171064  0.43710105  1
  O  O383  1  0.28375133  0.86207094  0.77396825  1
  O  O384  1  0.77828994  0.35904917  0.11178954  1
  O  O385  1  0.78129579  0.36645065  0.44536844  1
  O  O386  1  0.76625411  0.36866666  0.77196163  1
  O  O387  1  0.80337674  0.86527578  0.10091413  1
  O  O388  1  0.77842332  0.85617978  0.44547776  1
  O  O389  1  0.77639990  0.85855583  0.77762980  1
  O  O390  1  0.36022570  0.29249282  0.28129999  1
  O  O391  1  0.35862808  0.27754748  0.61038652  1
  O  O392  1  0.36192762  0.28101993  0.94059824  1
  O  O393  1  0.35775867  0.76600304  0.27122077  1
  O  O394  1  0.36065034  0.77374956  0.61264444  1
  O  O395  1  0.36214155  0.78422050  0.93731027  1
  O  O396  1  0.85786506  0.28770643  0.27185788  1
  O  O397  1  0.85875656  0.27546855  0.60468222  1
  O  O398  1  0.86409828  0.28889803  0.94432007  1
  O  O399  1  0.86908393  0.77264081  0.27966648  1
  O  O400  1  0.86898974  0.79069766  0.60892205  1
  O  O401  1  0.86414997  0.77273491  0.94381840  1
  O  O402  1  0.22545491  0.13869453  0.22557186  1
  O  O403  1  0.22986466  0.13771797  0.56021549  1
  O  O404  1  0.22819211  0.13230612  0.89373706  1
  O  O405  1  0.21986231  0.63638327  0.22406717  1
  O  O406  1  0.22450394  0.63597094  0.55952025  1
  O  O407  1  0.21471668  0.63318467  0.88015970  1
  O  O408  1  0.72789574  0.12935725  0.21425588  1
  O  O409  1  0.72504006  0.14551926  0.56591902  1
  O  O410  1  0.71821065  0.13809507  0.89205073  1
  O  O411  1  0.71513163  0.63696117  0.22470814  1
  O  O412  1  0.72242653  0.64051905  0.55244658  1
  O  O413  1  0.71883950  0.63653177  0.89143460  1
  O  O414  1  0.49140391  0.33853546  0.02978652  1
  O  O415  1  0.49230828  0.34541244  0.36627530  1
  O  O416  1  0.48984800  0.33390689  0.69580249  1
  O  O417  1  0.49299595  0.82792850  0.02888947  1
  O  O418  1  0.48669185  0.82417779  0.36038363  1
  O  O419  1  0.49248685  0.83109194  0.69668471  1
  O  O420  1  0.99280540  0.34379010  0.03503809  1
  O  O421  1  0.98887513  0.33728829  0.36238714  1
  O  O422  1  0.98854907  0.33551372  0.69287489  1
  O  O423  1  0.99587787  0.84157778  0.02140040  1
  O  O424  1  0.99668706  0.82781727  0.37155508  1
  O  O425  1  0.99906121  0.82101181  0.70042424  1
  O  O426  1  0.16746428  0.00931114  0.13462290  1
  O  O427  1  0.17009241  0.01048392  0.46674540  1
  O  O428  1  0.17511481  0.00430484  0.80203908  1
  O  O429  1  0.16526916  0.50675198  0.13501613  1
  O  O430  1  0.16539914  0.50668010  0.47053664  1
  O  O431  1  0.16432653  0.49918409  0.80118825  1
  O  O432  1  0.63554536  0.01201779  0.12901998  1
  O  O433  1  0.66929463  0.01584271  0.47814810  1
  O  O434  1  0.66549601  0.01055913  0.79380552  1
  O  O435  1  0.66376561  0.50486295  0.13950731  1
  O  O436  1  0.66521300  0.50769467  0.47225395  1
  O  O437  1  0.66112342  0.50761180  0.80215370  1
  O  O438  1  0.00851810  0.17227941  0.30262652  1
  O  O439  1  0.00907724  0.16578551  0.63285979  1
  O  O440  1  0.01062086  0.17400836  0.97862771  1
  O  O441  1  0.00765133  0.66191561  0.30236174  1
  O  O442  1  0.00517343  0.65681841  0.63591916  1
  O  O443  1  0.01190520  0.66941223  0.97181462  1
  O  O444  1  0.50162416  0.18021177  0.31365873  1
  O  O445  1  0.51026185  0.17184493  0.63946251  1
  O  O446  1  0.50687666  0.17703192  0.96404192  1
  O  O447  1  0.50500002  0.66062514  0.30486503  1
  O  O448  1  0.50779403  0.66775131  0.63840977  1
  O  O449  1  0.50182075  0.65638043  0.96734805  1
  O  O450  1  0.33216908  0.49133853  0.19575472  1
  O  O451  1  0.32789702  0.49143885  0.52863319  1
  O  O452  1  0.33484178  0.49311069  0.85920085  1
  O  O453  1  0.33360106  0.99051024  0.19641691  1
  O  O454  1  0.33137108  0.98792458  0.52891043  1
  O  O455  1  0.33873419  0.99043391  0.86491626  1
  O  O456  1  0.82915596  0.49253996  0.19643263  1
  O  O457  1  0.83418324  0.49831268  0.53248960  1
  O  O458  1  0.82562456  0.49611815  0.86165072  1
  O  O459  1  0.84240046  0.99625750  0.18696599  1
  O  O460  1  0.83268958  0.98442803  0.53966173  1
  O  O461  1  0.82558165  0.98966558  0.86624682  1
