# generated using pymatgen
data_Na31Fe20(SO4)36
_symmetry_space_group_name_H-M   'P 1'
_cell_length_a   18.07365209
_cell_length_b   18.07511067
_cell_length_c   19.71672422
_cell_angle_alpha   107.58743277
_cell_angle_beta   107.55892197
_cell_angle_gamma   90.71908526
_symmetry_Int_Tables_number   1
_chemical_formula_structural   Na31Fe20(SO4)36
_chemical_formula_sum   'Na62 Fe40 S72 O288'
_cell_volume   5815.72688344
_cell_formula_units_Z   2
loop_
 _symmetry_equiv_pos_site_id
 _symmetry_equiv_pos_as_xyz
  1  'x, y, z'
loop_
 _atom_site_type_symbol
 _atom_site_label
 _atom_site_symmetry_multiplicity
 _atom_site_fract_x
 _atom_site_fract_y
 _atom_site_fract_z
 _atom_site_occupancy
  Na  Na0  1  0.12804415  0.37243305  0.08552256  1
  Na  Na1  1  0.13512191  0.36992964  0.41315493  1
  Na  Na2  1  0.13676935  0.37057574  0.75526850  1
  Na  Na3  1  0.13391687  0.86867391  0.08312435  1
  Na  Na4  1  0.13776217  0.85734092  0.41906474  1
  Na  Na5  1  0.13354982  0.85329445  0.73623948  1
  Na  Na6  1  0.64020083  0.37153438  0.08606467  1
  Na  Na7  1  0.63038590  0.36596186  0.41487123  1
  Na  Na8  1  0.63369722  0.36759444  0.74865208  1
  Na  Na9  1  0.62299288  0.86918209  0.08974336  1
  Na  Na10  1  0.66269293  0.86593658  0.44215592  1
  Na  Na11  1  0.63074639  0.83104469  0.71648221  1
  Na  Na12  1  0.37230591  0.12692782  0.25006350  1
  Na  Na13  1  0.36316338  0.13283310  0.58029093  1
  Na  Na14  1  0.36978632  0.13665421  0.91966314  1
  Na  Na15  1  0.36209702  0.63634312  0.25077878  1
  Na  Na16  1  0.32834443  0.64316694  0.56393048  1
  Na  Na17  1  0.37055428  0.63460845  0.91924032  1
  Na  Na18  1  0.87754524  0.13145566  0.25025870  1
  Na  Na19  1  0.85784212  0.13436466  0.57983253  1
  Na  Na20  1  0.86957433  0.12299328  0.90975506  1
  Na  Na21  1  0.86154516  0.62838811  0.24245769  1
  Na  Na22  1  0.84758187  0.67153094  0.60887714  1
  Na  Na23  1  0.86720001  0.63630345  0.92019024  1
  Na  Na24  1  0.99754411  0.03795540  0.10355269  1
  Na  Na25  1  0.49147814  0.54386942  0.42594159  1
  Na  Na26  1  0.99674926  0.51755704  0.40798624  1
  Na  Na27  1  1.00015084  0.00315019  0.40626641  1
  Na  Na28  1  0.46265479  0.51193537  0.74048425  1
  Na  Na29  1  0.98724242  0.52045661  0.76350608  1
  Na  Na30  1  0.52185797  -0.01169176  0.38844317  1
  Na  Na31  1  0.49736680  0.52372290  0.08142120  1
  Na  Na32  1  0.52021984  -0.01913682  0.75000166  1
  Na  Na33  1  0.54563827  0.48967250  0.92218206  1
  Na  Na34  1  0.46656192  0.52810161  0.57968201  1
  Na  Na35  1  0.50592426  0.98155705  0.93187619  1
  Na  Na36  1  0.51041826  0.49651899  0.25159025  1
  Na  Na37  1  0.04526096  0.49222818  0.24894717  1
  Na  Na38  1  0.00421600  0.92831360  0.86600489  1
  Na  Na39  1  0.01083808  0.49784732  0.58029408  1
  Na  Na40  1  -0.01607251  1.01235951  0.60267643  1
  Na  Na41  1  0.50737123  0.99005541  0.57599658  1
  Na  Na42  1  0.24123511  0.24344164  0.00653930  1
  Na  Na43  1  0.73914987  0.73968334  0.00686175  1
  Na  Na44  1  0.75057361  0.24802995  0.66622058  1
  Na  Na45  1  0.75567799  0.25253000  0.32937138  1
  Na  Na46  1  0.76045500  0.25520557  -0.00464965  1
  Na  Na47  1  0.23808710  0.73060831  0.34928438  1
  Na  Na48  1  0.25783928  0.26361758  0.66141573  1
  Na  Na49  1  0.23813269  0.24288778  0.33372563  1
  Na  Na50  1  0.27355653  0.76567602  -0.00203759  1
  Na  Na51  1  0.74372767  0.74512886  0.34611617  1
  Na  Na52  1  0.23891806  0.24315299  0.17435651  1
  Na  Na53  1  0.75899424  0.25583171  0.16326871  1
  Na  Na54  1  0.75562057  0.25126421  0.82977643  1
  Na  Na55  1  0.26000350  0.75722288  0.81727449  1
  Na  Na56  1  0.73543790  0.73638582  0.17391476  1
  Na  Na57  1  0.25702644  0.75289304  0.16175042  1
  Na  Na58  1  0.75169804  0.25124601  0.49707084  1
  Na  Na59  1  0.76307015  0.75705653  0.81868892  1
  Na  Na60  1  0.25173686  0.24914472  0.83455333  1
  Na  Na61  1  0.25699430  0.26591152  0.49809486  1
  Fe  Fe62  1  0.46947022  0.79937694  0.45783712  1
  Fe  Fe63  1  0.46597559  0.30819622  0.11913833  1
  Fe  Fe64  1  0.96234575  0.31076389  0.79328151  1
  Fe  Fe65  1  0.96567733  0.81004656  0.12115266  1
  Fe  Fe66  1  0.46675037  0.30750766  0.78474044  1
  Fe  Fe67  1  0.96932449  0.30037348  0.12614983  1
  Fe  Fe68  1  0.46569732  0.80336573  0.77992987  1
  Fe  Fe69  1  0.46338347  0.30901785  0.45194049  1
  Fe  Fe70  1  0.96565392  0.81059036  0.45556677  1
  Fe  Fe71  1  0.96753150  0.30546158  0.45408454  1
  Fe  Fe72  1  0.19543797  0.03283260  0.71352069  1
  Fe  Fe73  1  0.69819596  0.03072156  0.37954972  1
  Fe  Fe74  1  0.19237504  0.03407225  0.04616771  1
  Fe  Fe75  1  0.18341710  0.53610983  0.03956785  1
  Fe  Fe76  1  0.19526882  0.53429895  0.71001326  1
  Fe  Fe77  1  0.68183899  0.53771216  0.70968830  1
  Fe  Fe78  1  0.69750373  0.02974875  0.70897335  1
  Fe  Fe79  1  0.19008612  0.03516273  0.37655709  1
  Fe  Fe80  1  0.69206132  0.53967379  0.39008184  1
  Fe  Fe81  1  0.69384664  0.03261086  0.04638950  1
  Fe  Fe82  1  0.03507865  0.18645732  0.87718920  1
  Fe  Fe83  1  0.03605791  0.19243318  0.54900303  1
  Fe  Fe84  1  0.53532987  0.18948930  0.87802058  1
  Fe  Fe85  1  0.03284903  0.70318306  0.88157190  1
  Fe  Fe86  1  0.53228098  0.69191618  0.88211944  1
  Fe  Fe87  1  0.03284729  0.69186721  0.21242655  1
  Fe  Fe88  1  0.53274387  0.19145971  0.54412927  1
  Fe  Fe89  1  0.03210696  0.69811116  0.55488373  1
  Fe  Fe90  1  0.53533721  0.19098771  0.21214296  1
  Fe  Fe91  1  0.53019866  0.69957602  0.21186473  1
  Fe  Fe92  1  0.80484874  0.46531192  0.62319447  1
  Fe  Fe93  1  0.80388668  0.47022091  0.28894059  1
  Fe  Fe94  1  0.80845254  0.96274741  0.94965284  1
  Fe  Fe95  1  0.30114611  0.47242985  0.28615001  1
  Fe  Fe96  1  0.80619531  0.96196470  0.28136686  1
  Fe  Fe97  1  0.30714128  0.46475281  0.95292638  1
  Fe  Fe98  1  0.80449737  0.46880966  0.96068346  1
  Fe  Fe99  1  0.30966254  0.96035601  0.28400797  1
  Fe  Fe100  1  0.30986045  0.96210240  0.61916576  1
  Fe  Fe101  1  0.31677542  0.96585119  0.96014141  1
  S  S102  1  0.36017152  0.14417989  0.08290888  1
  S  S103  1  0.36006281  0.13863616  0.41487253  1
  S  S104  1  0.36019056  0.14064529  0.74811920  1
  S  S105  1  0.35721952  0.63678472  0.08446064  1
  S  S106  1  0.35909585  0.64078622  0.41729136  1
  S  S107  1  0.35894300  0.64095214  0.74563844  1
  S  S108  1  0.85583977  0.13851126  0.08143851  1
  S  S109  1  0.86301071  0.13919898  0.41648475  1
  S  S110  1  0.86078048  0.14028961  0.74817952  1
  S  S111  1  0.85838351  0.64450184  0.08220076  1
  S  S112  1  0.85760299  0.64203852  0.41992253  1
  S  S113  1  0.85732126  0.63605218  0.75497991  1
  S  S114  1  0.14407650  0.35834648  0.24523412  1
  S  S115  1  0.13846199  0.35913649  0.58887149  1
  S  S116  1  0.14056598  0.35714625  0.91533485  1
  S  S117  1  0.14109754  0.85835251  0.25245946  1
  S  S118  1  0.14213035  0.86181776  0.58287266  1
  S  S119  1  0.15258345  0.85696680  0.91782922  1
  S  S120  1  0.63933512  0.36148399  0.25121031  1
  S  S121  1  0.63918230  0.35709509  0.58322167  1
  S  S122  1  0.64179169  0.35322725  0.91644077  1
  S  S123  1  0.64097890  0.86039260  0.25373121  1
  S  S124  1  0.63274627  0.87069536  0.58181602  1
  S  S125  1  0.64005292  0.85859365  0.91623555  1
  S  S126  1  0.06635568  0.16879859  0.04050397  1
  S  S127  1  0.06834408  0.17182385  0.37951307  1
  S  S128  1  0.07025486  0.17311003  0.71274562  1
  S  S129  1  0.06999607  0.67697763  0.04364925  1
  S  S130  1  0.05718794  0.66976819  0.37122847  1
  S  S131  1  0.06371153  0.66380357  0.71248367  1
  S  S132  1  0.56938915  0.17172572  0.04253652  1
  S  S133  1  0.57039405  0.17016766  0.37536439  1
  S  S134  1  0.56839562  0.16701483  0.70798857  1
  S  S135  1  0.56450258  0.66579189  0.04297011  1
  S  S136  1  0.56674523  0.67329075  0.37471794  1
  S  S137  1  0.56000685  0.66375142  0.71073064  1
  S  S138  1  0.33297388  0.43102286  0.12320903  1
  S  S139  1  0.33035443  0.42999637  0.45344544  1
  S  S140  1  0.33492911  0.43408686  0.79472203  1
  S  S141  1  0.32936099  0.93401806  0.12156363  1
  S  S142  1  0.32981446  0.92842758  0.45576883  1
  S  S143  1  0.33657282  0.93681320  0.79483412  1
  S  S144  1  0.83537666  0.42899015  0.12882321  1
  S  S145  1  0.82787516  0.43077067  0.46022743  1
  S  S146  1  0.82588413  0.42954529  0.79250490  1
  S  S147  1  0.82714044  0.93178435  0.12129470  1
  S  S148  1  0.83984930  0.94036490  0.45585485  1
  S  S149  1  0.81804203  0.92727253  0.78703990  1
  S  S150  1  0.43353113  0.33337502  0.28901048  1
  S  S151  1  0.43596889  0.32989040  0.62275303  1
  S  S152  1  0.43588638  0.33191793  0.95816749  1
  S  S153  1  0.42928655  0.82405808  0.29416600  1
  S  S154  1  0.43115751  0.83352875  0.62312697  1
  S  S155  1  0.43687596  0.82733255  0.95397577  1
  S  S156  1  0.93035443  0.33319847  0.29525005  1
  S  S157  1  0.93047987  0.32989645  0.62779930  1
  S  S158  1  0.92832965  0.32273064  0.95723434  1
  S  S159  1  0.93096268  0.82840493  0.28943724  1
  S  S160  1  0.94145353  0.83753624  0.62417456  1
  S  S161  1  0.93824300  0.83694095  0.96196989  1
  S  S162  1  0.17578624  0.06599038  0.21258721  1
  S  S163  1  0.17180336  0.06936275  0.54320945  1
  S  S164  1  0.17814570  0.06771068  0.87811911  1
  S  S165  1  0.16993886  0.57123911  0.20470848  1
  S  S166  1  0.14779477  0.56163932  0.53680054  1
  S  S167  1  0.17462211  0.57193301  0.87741322  1
  S  S168  1  0.67555560  0.07094666  0.21070454  1
  S  S169  1  0.66552710  0.07341484  0.53961813  1
  S  S170  1  0.67057820  0.06633602  0.87439865  1
  S  S171  1  0.66567974  0.56452566  0.21166886  1
  S  S172  1  0.66250373  0.56007730  0.54418282  1
  S  S173  1  0.66825031  0.56307213  0.87383430  1
  O  O174  1  0.37176427  0.22133629  0.07088980  1
  O  O175  1  0.36879646  0.21711086  0.40510560  1
  O  O176  1  0.36955643  0.21964236  0.73944612  1
  O  O177  1  0.36125761  0.71454348  0.07767884  1
  O  O178  1  0.37626180  0.72055180  0.40813922  1
  O  O179  1  0.36754144  0.72400234  0.74743255  1
  O  O180  1  0.86670451  0.21999453  0.07894539  1
  O  O181  1  0.87071801  0.21925947  0.40975779  1
  O  O182  1  0.86735460  0.22489250  0.74987105  1
  O  O183  1  0.87273376  0.72192095  0.07043247  1
  O  O184  1  0.86673924  0.71921250  0.40883789  1
  O  O185  1  0.86106273  0.71218854  0.74498259  1
  O  O186  1  0.27937388  0.13862294  0.08756371  1
  O  O187  1  0.27989852  0.13018871  0.42112575  1
  O  O188  1  0.28128133  0.13257944  0.75664411  1
  O  O189  1  0.27959319  0.62015928  0.09340448  1
  O  O190  1  0.27931479  0.63657034  0.41838342  1
  O  O191  1  0.27982026  0.62920019  0.75344686  1
  O  O192  1  0.77402679  0.13109040  0.08533193  1
  O  O193  1  0.78350943  0.12998106  0.42388113  1
  O  O194  1  0.78137111  0.12904876  0.75720171  1
  O  O195  1  0.78236830  0.64123873  0.09370122  1
  O  O196  1  0.77683467  0.63133594  0.42303362  1
  O  O197  1  0.78005989  0.62016679  0.76528697  1
  O  O198  1  0.14296645  0.27773446  0.24711306  1
  O  O199  1  0.12463170  0.28125392  0.59988371  1
  O  O200  1  0.13335564  0.27700084  0.92143605  1
  O  O201  1  0.12960032  0.78034818  0.26168403  1
  O  O202  1  0.13175916  0.78510284  0.59287829  1
  O  O203  1  0.13972409  0.77949444  0.92749903  1
  O  O204  1  0.63105137  0.28246606  0.25953560  1
  O  O205  1  0.63002518  0.27910069  0.59407177  1
  O  O206  1  0.63174753  0.27108589  0.91855009  1
  O  O207  1  0.63279843  0.77925757  0.25923589  1
  O  O208  1  0.62491853  0.79612703  0.59338029  1
  O  O209  1  0.62994734  0.78173937  0.92777374  1
  O  O210  1  0.21739636  0.37535995  0.22788683  1
  O  O211  1  0.21492199  0.36279386  0.57899280  1
  O  O212  1  0.21838242  0.36755284  0.90436174  1
  O  O213  1  0.21944529  0.86490790  0.24238173  1
  O  O214  1  0.22055923  0.87341725  0.57507506  1
  O  O215  1  0.23752353  0.86578835  0.92352506  1
  O  O216  1  0.71876598  0.37050285  0.24396986  1
  O  O217  1  0.71968161  0.36473601  0.57743676  1
  O  O218  1  0.72279196  0.36294373  0.91304386  1
  O  O219  1  0.72157061  0.86758718  0.24594843  1
  O  O220  1  0.70453944  0.89120186  0.57045285  1
  O  O221  1  0.72114436  0.86771347  0.91395757  1
  O  O222  1  0.41643952  0.14016837  0.15365175  1
  O  O223  1  0.41677408  0.13374167  0.48545374  1
  O  O224  1  0.41903021  0.13485322  0.81735751  1
  O  O225  1  0.41845682  0.62804157  0.15175708  1
  O  O226  1  0.41586798  0.63044128  0.48391242  1
  O  O227  1  0.41708901  0.62846348  0.81372482  1
  O  O228  1  0.91182204  0.12535483  0.14635318  1
  O  O229  1  0.92146510  0.13227064  0.48552825  1
  O  O230  1  0.91974336  0.13065153  0.81543888  1
  O  O231  1  0.91991602  0.63584177  0.14840069  1
  O  O232  1  0.91417860  0.63444998  0.48860639  1
  O  O233  1  0.91923800  0.62978889  0.82340783  1
  O  O234  1  0.37052339  0.08329080  0.01753349  1
  O  O235  1  0.37160951  0.07869202  0.34976110  1
  O  O236  1  0.36801831  0.08117351  0.68069212  1
  O  O237  1  0.36844991  0.57746814  0.01695545  1
  O  O238  1  0.37053488  0.58236299  0.34815832  1
  O  O239  1  0.36866822  0.58716597  0.67750126  1
  O  O240  1  0.86238937  0.08284477  0.01081352  1
  O  O241  1  0.87305500  0.08116564  0.34933333  1
  O  O242  1  0.86790461  0.08942608  0.67850352  1
  O  O243  1  0.86148503  0.58332648  0.01288489  1
  O  O244  1  0.86809188  0.58077380  0.35279169  1
  O  O245  1  0.86840423  0.57417429  0.68872443  1
  O  O246  1  0.07839374  0.36646582  0.17923219  1
  O  O247  1  0.07619497  0.36886164  0.52316791  1
  O  O248  1  0.07978523  0.36558646  0.84884016  1
  O  O249  1  0.08171046  0.86751036  0.18556945  1
  O  O250  1  0.08323010  0.87068085  0.51481412  1
  O  O251  1  0.10463208  0.86201782  0.84548205  1
  O  O252  1  0.58070507  0.36872536  0.18234221  1
  O  O253  1  0.58279837  0.36066925  0.51238097  1
  O  O254  1  0.58556785  0.36168267  0.84607371  1
  O  O255  1  0.58281718  0.87266366  0.19097105  1
  O  O256  1  0.56554042  0.87536911  0.51227840  1
  O  O257  1  0.58396149  0.86483400  0.84573322  1
  O  O258  1  0.13710324  0.41457562  0.31345846  1
  O  O259  1  0.13316092  0.41898414  0.65819214  1
  O  O260  1  0.13617103  0.41463213  0.98524694  1
  O  O261  1  0.13685130  0.91858752  0.32187828  1
  O  O262  1  0.13517393  0.92348721  0.65099812  1
  O  O263  1  0.13522214  0.91796826  0.98029229  1
  O  O264  1  0.62927031  0.42094859  0.31784515  1
  O  O265  1  0.62902434  0.41719260  0.64887542  1
  O  O266  1  0.62909341  0.40884218  0.98171286  1
  O  O267  1  0.63945992  0.91643050  0.32768259  1
  O  O268  1  0.61634098  0.93434832  0.64655618  1
  O  O269  1  0.62761897  0.92102086  0.98124689  1
  O  O270  1  0.02597163  0.19486847  0.09688835  1
  O  O271  1  0.03594634  0.20488844  0.44512123  1
  O  O272  1  0.03120667  0.20144491  0.77165551  1
  O  O273  1  0.03318524  0.70516798  0.10471501  1
  O  O274  1  0.02420905  0.70431669  0.43435477  1
  O  O275  1  0.03032054  0.68914020  0.77455185  1
  O  O276  1  0.53205383  0.20016392  0.10315855  1
  O  O277  1  0.53214150  0.19971486  0.43503069  1
  O  O278  1  0.52993934  0.19771617  0.76729923  1
  O  O279  1  0.52882754  0.69440788  0.10314085  1
  O  O280  1  0.53193695  0.70430004  0.43615809  1
  O  O281  1  0.53210253  0.70054044  0.77810124  1
  O  O282  1  0.30264235  0.46242820  0.05930015  1
  O  O283  1  0.31081173  0.44962079  0.38308461  1
  O  O284  1  0.30518929  0.46915396  0.73508040  1
  O  O285  1  0.29492916  0.97943495  0.06634957  1
  O  O286  1  0.30621450  0.96799849  0.39690628  1
  O  O287  1  0.30531307  0.97247676  0.73313827  1
  O  O288  1  0.81433626  0.46305413  0.06756940  1
  O  O289  1  0.79755035  0.46766154  0.39981886  1
  O  O290  1  0.79402158  0.46248426  0.72979106  1
  O  O291  1  0.79773256  0.97011135  0.06099830  1
  O  O292  1  0.80451096  0.97139501  0.39014343  1
  O  O293  1  0.78605957  0.96759795  0.72996119  1
  O  O294  1  0.47084086  0.30007075  0.22836841  1
  O  O295  1  0.47060125  0.29396017  0.56065109  1
  O  O296  1  0.47104004  0.30213455  0.89602369  1
  O  O297  1  0.46801567  0.79766084  0.23698259  1
  O  O298  1  0.46228858  0.80516114  0.55957819  1
  O  O299  1  0.47115655  0.79887351  0.88982738  1
  O  O300  1  0.96517259  0.30825345  0.23506135  1
  O  O301  1  0.96371679  0.29838561  0.56510907  1
  O  O302  1  0.97126595  0.29615672  0.90003647  1
  O  O303  1  0.96750555  0.79905520  0.22845457  1
  O  O304  1  0.97273776  0.79571377  0.55639739  1
  O  O305  1  0.97828512  0.81238532  0.90436620  1
  O  O306  1  0.20914813  0.02590915  0.27152555  1
  O  O307  1  0.20397069  0.03520164  0.60519513  1
  O  O308  1  0.20885178  0.03003963  0.93828812  1
  O  O309  1  0.19957698  0.53435506  0.26353958  1
  O  O310  1  0.17439983  0.53071872  0.60121958  1
  O  O311  1  0.20059159  0.53039942  0.93597509  1
  O  O312  1  0.70405467  0.03207902  0.27029935  1
  O  O313  1  0.68957949  0.05248938  0.60854451  1
  O  O314  1  0.69972223  0.02820399  0.93381872  1
  O  O315  1  0.69673201  0.53230786  0.27693453  1
  O  O316  1  0.70185131  0.52448514  0.60577350  1
  O  O317  1  0.69487736  0.52205292  0.93011880  1
  O  O318  1  0.08990393  0.08908238  0.03970937  1
  O  O319  1  0.08999490  0.09213993  0.38172266  1
  O  O320  1  0.09270599  0.09352573  0.70944290  1
  O  O321  1  0.08641897  0.59546799  0.03558244  1
  O  O322  1  0.06750220  0.58756893  0.36443421  1
  O  O323  1  0.08010808  0.57962918  0.70314105  1
  O  O324  1  0.58847244  0.09046725  0.03612932  1
  O  O325  1  0.59234025  0.09040089  0.37276779  1
  O  O326  1  0.58855889  0.08678864  0.70666958  1
  O  O327  1  0.57897407  0.58375832  0.03451529  1
  O  O328  1  0.58271815  0.59040066  0.37289831  1
  O  O329  1  0.57012281  0.57919472  0.70581203  1
  O  O330  1  0.41751394  0.41796569  0.13165802  1
  O  O331  1  0.41456761  0.40971209  0.47065127  1
  O  O332  1  0.41860092  0.41750871  0.80084538  1
  O  O333  1  0.40267345  0.91093567  0.11315671  1
  O  O334  1  0.41032984  0.90410706  0.46227104  1
  O  O335  1  0.41811642  0.91763736  0.79702443  1
  O  O336  1  0.91729992  0.40903936  0.14482373  1
  O  O337  1  0.90954300  0.41248130  0.46531844  1
  O  O338  1  0.90788075  0.41363308  0.79577429  1
  O  O339  1  0.90741322  0.91340362  0.12456939  1
  O  O340  1  0.92150262  0.92285356  0.45661913  1
  O  O341  1  0.89146552  0.90037174  0.78110127  1
  O  O342  1  0.42125855  0.41584449  0.29314094  1
  O  O343  1  0.42414280  0.41068218  0.62756198  1
  O  O344  1  0.41966714  0.41437408  0.96583813  1
  O  O345  1  0.41284562  0.90721247  0.30251387  1
  O  O346  1  0.41965175  0.91931529  0.63360427  1
  O  O347  1  0.41410381  0.90759410  0.95418776  1
  O  O348  1  0.90875259  0.41502188  0.30603302  1
  O  O349  1  0.91475171  0.41245870  0.63379717  1
  O  O350  1  0.90168126  0.39906542  0.95639796  1
  O  O351  1  0.91237666  0.90976403  0.29327777  1
  O  O352  1  0.93096480  0.91671692  0.62188986  1
  O  O353  1  0.92009556  0.91963944  0.97017557  1
  O  O354  1  0.09959525  0.08802275  0.21553604  1
  O  O355  1  0.08909137  0.08456194  0.53774133  1
  O  O356  1  0.09825246  0.08715951  0.87564767  1
  O  O357  1  0.08837983  0.58876625  0.20189414  1
  O  O358  1  0.06593584  0.58726300  0.53460361  1
  O  O359  1  0.09459674  0.59294484  0.87272855  1
  O  O360  1  0.59799952  0.09578121  0.21010841  1
  O  O361  1  0.57918534  0.08393445  0.52051291  1
  O  O362  1  0.58796067  0.08298516  0.87020449  1
  O  O363  1  0.58466202  0.58609457  0.20973275  1
  O  O364  1  0.58096192  0.56509016  0.54231484  1
  O  O365  1  0.58536014  0.58047058  0.86838824  1
  O  O366  1  0.13631442  0.22397887  0.05723050  1
  O  O367  1  0.13976873  0.22406097  0.39463700  1
  O  O368  1  0.13908675  0.22842069  0.72893087  1
  O  O369  1  0.14188034  0.72918524  0.06200261  1
  O  O370  1  0.12928886  0.71816551  0.38424104  1
  O  O371  1  0.13565320  0.71383058  0.72755667  1
  O  O372  1  0.63925863  0.22572488  0.05932312  1
  O  O373  1  0.64037192  0.22430647  0.39131393  1
  O  O374  1  0.63836658  0.22044985  0.72346186  1
  O  O375  1  0.63639153  0.71800434  0.05940242  1
  O  O376  1  0.63795556  0.72214475  0.38760613  1
  O  O377  1  0.63632073  0.70578898  0.72498844  1
  O  O378  1  0.28524738  0.35783536  0.10880374  1
  O  O379  1  0.27756224  0.35972005  0.44147850  1
  O  O380  1  0.28603109  0.36050803  0.78029930  1
  O  O381  1  0.27044111  0.86698944  0.10524730  1
  O  O382  1  0.27335678  0.86127749  0.43873356  1
  O  O383  1  0.28412332  0.86827981  0.78249971  1
  O  O384  1  0.77974131  0.35809551  0.10967595  1
  O  O385  1  0.77577191  0.35828937  0.44210130  1
  O  O386  1  0.77545232  0.35645317  0.77661835  1
  O  O387  1  0.77287622  0.86233373  0.10532715  1
  O  O388  1  0.79106995  0.86867558  0.44280772  1
  O  O389  1  0.76021457  0.86406222  0.77877221  1
  O  O390  1  0.36075801  0.28371917  0.27255017  1
  O  O391  1  0.36308091  0.27941349  0.60725225  1
  O  O392  1  0.36378878  0.28076703  0.94156692  1
  O  O393  1  0.35644753  0.77384084  0.27630256  1
  O  O394  1  0.36063107  0.78698513  0.61327005  1
  O  O395  1  0.36581447  0.77316418  0.93509692  1
  O  O396  1  0.85992072  0.27888928  0.27926787  1
  O  O397  1  0.85770559  0.27945304  0.61216872  1
  O  O398  1  0.86089658  0.26300686  0.93727680  1
  O  O399  1  0.86046721  0.77605338  0.27426930  1
  O  O400  1  0.86811190  0.79166206  0.60966239  1
  O  O401  1  0.86634236  0.78385510  0.94151910  1
  O  O402  1  0.23325600  0.13391114  0.22827126  1
  O  O403  1  0.22157393  0.14211735  0.55825565  1
  O  O404  1  0.23122649  0.13953831  0.89549255  1
  O  O405  1  0.22040365  0.64359749  0.22028753  1
  O  O406  1  0.19949672  0.62858784  0.54598012  1
  O  O407  1  0.23125697  0.64037877  0.89700698  1
  O  O408  1  0.73262293  0.13868448  0.22638284  1
  O  O409  1  0.71338340  0.14579922  0.54967808  1
  O  O410  1  0.72199781  0.13797681  0.89147862  1
  O  O411  1  0.71871763  0.63539762  0.22732482  1
  O  O412  1  0.70757181  0.63310749  0.55732670  1
  O  O413  1  0.71918306  0.63600756  0.89325523  1
  O  O414  1  0.49506319  0.33160432  0.02977296  1
  O  O415  1  0.49123617  0.33256007  0.36145832  1
  O  O416  1  0.49423554  0.32703360  0.69486260  1
  O  O417  1  0.49583771  0.83173498  0.02362951  1
  O  O418  1  0.48621091  0.82613471  0.36904965  1
  O  O419  1  0.49484136  0.83602363  0.69486907  1
  O  O420  1  0.98527060  0.32757491  0.03130290  1
  O  O421  1  0.99072467  0.33449871  0.36752379  1
  O  O422  1  0.98936831  0.33052941  0.69963965  1
  O  O423  1  0.99456707  0.83826654  0.03612258  1
  O  O424  1  0.99101109  0.83313753  0.36225323  1
  O  O425  1  1.00300717  0.83625463  0.69208686  1
  O  O426  1  0.16918545  0.00787495  0.13759112  1
  O  O427  1  0.17046980  0.01001804  0.47115572  1
  O  O428  1  0.17638944  0.00984639  0.80553969  1
  O  O429  1  0.16596699  0.51278012  0.13062750  1
  O  O430  1  0.13325058  0.49697925  0.46625906  1
  O  O431  1  0.17304035  0.51287296  0.80484747  1
  O  O432  1  0.66892390  0.01113160  0.13714017  1
  O  O433  1  0.67229596  0.00941501  0.47335993  1
  O  O434  1  0.66576869  0.00905010  0.80018097  1
  O  O435  1  0.65978355  0.50352016  0.14170960  1
  O  O436  1  0.66288786  0.50160703  0.47030666  1
  O  O437  1  0.66558375  0.50745725  0.79883119  1
  O  O438  1  0.00766628  0.16671389  0.31046846  1
  O  O439  1  0.01037997  0.16608487  0.63847013  1
  O  O440  1  0.01015907  0.16167486  0.96467418  1
  O  O441  1  -0.00224122  0.67086976  0.29866885  1
  O  O442  1  0.00297137  0.66444525  0.64199348  1
  O  O443  1  0.01156892  0.67894096  0.97216757  1
  O  O444  1  0.51118073  0.16660127  0.30257665  1
  O  O445  1  0.50958332  0.16008123  0.63360887  1
  O  O446  1  0.50952327  0.16913713  0.96990514  1
  O  O447  1  0.50655051  0.66619941  0.30105532  1
  O  O448  1  0.49908701  0.66542211  0.64337797  1
  O  O449  1  0.50706646  0.66726269  0.96932305  1
  O  O450  1  0.33227226  0.49145033  0.19386108  1
  O  O451  1  0.32871028  0.49672577  0.51682576  1
  O  O452  1  0.33753151  0.49141713  0.86886510  1
  O  O453  1  0.33711898  0.98971074  0.19840241  1
  O  O454  1  0.33598113  0.98939873  0.52940584  1
  O  O455  1  0.34407343  0.99798404  0.86831093  1
  O  O456  1  0.82922777  0.48904736  0.19831385  1
  O  O457  1  0.83003026  0.48848472  0.53289474  1
  O  O458  1  0.82698826  0.48740905  0.86458904  1
  O  O459  1  0.82997513  0.99125754  0.19422602  1
  O  O460  1  0.84486844  1.00317637  0.52472024  1
  O  O461  1  0.83158306  0.98891518  0.86375281  1
