# generated using pymatgen
data_Na31Fe20(SO4)36
_symmetry_space_group_name_H-M   'P 1'
_cell_length_a   18.09176269
_cell_length_b   18.08790840
_cell_length_c   19.74165416
_cell_angle_alpha   107.65525722
_cell_angle_beta   107.61379893
_cell_angle_gamma   90.72450393
_symmetry_Int_Tables_number   1
_chemical_formula_structural   Na31Fe20(SO4)36
_chemical_formula_sum   'Na62 Fe40 S72 O288'
_cell_volume   5828.49702147
_cell_formula_units_Z   2
loop_
 _symmetry_equiv_pos_site_id
 _symmetry_equiv_pos_as_xyz
  1  'x, y, z'
loop_
 _atom_site_type_symbol
 _atom_site_label
 _atom_site_symmetry_multiplicity
 _atom_site_fract_x
 _atom_site_fract_y
 _atom_site_fract_z
 _atom_site_occupancy
  Na  Na0  1  0.13130470  0.36786680  0.08299021  1
  Na  Na1  1  0.13442651  0.37415094  0.42202721  1
  Na  Na2  1  0.14150167  0.36600762  0.75413088  1
  Na  Na3  1  0.12709995  0.85830748  0.06993519  1
  Na  Na4  1  0.13458627  0.86082662  0.42218477  1
  Na  Na5  1  0.11080382  0.87008736  0.74051445  1
  Na  Na6  1  0.67379334  0.35458693  0.08266837  1
  Na  Na7  1  0.63234938  0.35351891  0.41372960  1
  Na  Na8  1  0.64307734  0.37946462  0.76920087  1
  Na  Na9  1  0.62940303  0.86601533  0.08117307  1
  Na  Na10  1  0.64538981  0.86664447  0.42159305  1
  Na  Na11  1  0.63196807  0.86459098  0.74479519  1
  Na  Na12  1  0.36834364  0.13625037  0.25262677  1
  Na  Na13  1  0.36927539  0.13598505  0.58388215  1
  Na  Na14  1  0.36201656  0.13386206  0.90941177  1
  Na  Na15  1  0.36897062  0.63426384  0.25209851  1
  Na  Na16  1  0.36952793  0.63602491  0.58854195  1
  Na  Na17  1  0.35746756  0.62817999  0.90827037  1
  Na  Na18  1  0.86053777  0.13534295  0.24187025  1
  Na  Na19  1  0.86891129  0.13205644  0.58653236  1
  Na  Na20  1  0.86747355  0.13812958  0.92044736  1
  Na  Na21  1  0.87095497  0.64542045  0.27001470  1
  Na  Na22  1  0.87092088  0.63824948  0.58346819  1
  Na  Na23  1  0.86016694  0.63719664  0.91942108  1
  Na  Na24  1  1.00624544  -0.01722293  0.43121138  1
  Na  Na25  1  0.49486758  0.01027777  0.75144844  1
  Na  Na26  1  0.54246425  0.47520488  0.05926996  1
  Na  Na27  1  0.93276754  0.50021698  0.06932264  1
  Na  Na28  1  0.49252906  0.01780317  0.40671279  1
  Na  Na29  1  1.00543156  0.54400578  0.75734908  1
  Na  Na30  1  1.00229091  0.56908919  0.44869045  1
  Na  Na31  1  0.99450981  0.02065063  0.06544517  1
  Na  Na32  1  0.50703025  0.47474174  0.42710908  1
  Na  Na33  1  -0.01579744  0.94253405  0.57905998  1
  Na  Na34  1  0.54225894  0.49924265  0.90658832  1
  Na  Na35  1  0.49750732  0.98923941  0.93485313  1
  Na  Na36  1  0.51466926  0.49178026  0.24675434  1
  Na  Na37  1  -0.01445297  0.51186577  0.91750794  1
  Na  Na38  1  0.51631563  0.99106293  0.22672876  1
  Na  Na39  1  0.52305986  0.99196086  0.57942830  1
  Na  Na40  1  0.50231257  0.46306639  0.59246154  1
  Na  Na41  1  0.00514342  0.99179284  0.24705085  1
  Na  Na42  1  0.24136561  0.74281591  0.34054797  1
  Na  Na43  1  0.74459381  0.24983066  0.67410405  1
  Na  Na44  1  0.75819307  0.76211446  0.65860629  1
  Na  Na45  1  0.25805933  0.25604128  -0.01111741  1
  Na  Na46  1  0.21275320  0.72655002  0.66861319  1
  Na  Na47  1  0.73504013  0.73229271  0.01120034  1
  Na  Na48  1  0.76208039  0.26074772  0.31971511  1
  Na  Na49  1  0.24643324  0.24673542  0.67572880  1
  Na  Na50  1  0.23468634  0.73793285  0.00129854  1
  Na  Na51  1  0.26288616  0.25916868  0.33145281  1
  Na  Na52  1  0.24036684  0.74014312  0.17021937  1
  Na  Na53  1  0.74200571  0.73422281  0.18517465  1
  Na  Na54  1  0.78212497  0.77393802  0.48674313  1
  Na  Na55  1  0.25948692  0.25581879  0.15989040  1
  Na  Na56  1  0.25377797  0.25248904  0.49831208  1
  Na  Na57  1  0.74941579  0.75264080  0.83232387  1
  Na  Na58  1  0.23028742  0.73815733  0.51311770  1
  Na  Na59  1  0.20993701  0.71351084  0.82906681  1
  Na  Na60  1  0.74739761  0.25236194  0.85111533  1
  Na  Na61  1  0.74930815  0.24914697  0.50069852  1
  Fe  Fe62  1  0.46499275  0.30690090  0.78865341  1
  Fe  Fe63  1  0.46500110  0.80593283  0.44760895  1
  Fe  Fe64  1  0.96544621  0.80655356  0.11665491  1
  Fe  Fe65  1  0.96417860  0.31457278  0.12426578  1
  Fe  Fe66  1  0.96609549  0.30880248  0.78965096  1
  Fe  Fe67  1  0.46805189  0.30380328  0.11642532  1
  Fe  Fe68  1  0.46333022  0.80701848  0.78038265  1
  Fe  Fe69  1  0.96553101  0.80459533  0.79368046  1
  Fe  Fe70  1  0.46078992  0.80265369  0.11435573  1
  Fe  Fe71  1  0.96955664  0.31284534  0.45874118  1
  Fe  Fe72  1  0.69393715  0.04109382  0.04896213  1
  Fe  Fe73  1  0.18734312  0.53112694  0.04355346  1
  Fe  Fe74  1  0.69220474  0.53503371  0.71435474  1
  Fe  Fe75  1  0.19196544  0.03748634  0.71484536  1
  Fe  Fe76  1  0.69532006  0.03378195  0.38062134  1
  Fe  Fe77  1  0.19136578  0.03506974  0.04314735  1
  Fe  Fe78  1  0.70395082  0.03055635  0.71190402  1
  Fe  Fe79  1  0.69370383  0.53437410  0.38447127  1
  Fe  Fe80  1  0.19135865  0.53432059  0.37843866  1
  Fe  Fe81  1  0.19453948  0.03319128  0.38062650  1
  Fe  Fe82  1  0.52725998  0.69383894  0.87540876  1
  Fe  Fe83  1  0.53793337  0.19329282  0.88454523  1
  Fe  Fe84  1  0.53816540  0.68366970  0.20912503  1
  Fe  Fe85  1  0.53593174  0.19083482  0.21151717  1
  Fe  Fe86  1  0.52891947  0.20124117  0.54369922  1
  Fe  Fe87  1  0.03558402  0.19598758  0.21638387  1
  Fe  Fe88  1  0.03576704  0.19406233  0.54837820  1
  Fe  Fe89  1  0.03142050  0.69255073  0.21174237  1
  Fe  Fe90  1  0.53494336  0.69154398  0.54484623  1
  Fe  Fe91  1  0.03399413  0.18737051  0.87651840  1
  Fe  Fe92  1  0.80971320  0.96357287  0.28428175  1
  Fe  Fe93  1  0.80357281  0.96557673  0.95307134  1
  Fe  Fe94  1  0.30409972  0.96357570  0.94685256  1
  Fe  Fe95  1  0.30913905  0.46440355  0.28792743  1
  Fe  Fe96  1  0.30928955  0.96629059  0.61601872  1
  Fe  Fe97  1  0.81010321  0.46407820  0.28714340  1
  Fe  Fe98  1  0.81062429  0.46615743  0.62361440  1
  Fe  Fe99  1  0.30628702  0.96390139  0.28157247  1
  Fe  Fe100  1  0.30537000  0.46822884  0.62768790  1
  Fe  Fe101  1  0.30829922  0.46170976  0.95074444  1
  S  S102  1  0.36105143  0.13672133  0.08174761  1
  S  S103  1  0.35894883  0.13832065  0.41376048  1
  S  S104  1  0.36362016  0.13687954  0.74915990  1
  S  S105  1  0.35757783  0.63849590  0.08413592  1
  S  S106  1  0.35953050  0.64133434  0.41519656  1
  S  S107  1  0.35547161  0.64586494  0.74542331  1
  S  S108  1  0.86365930  0.14134317  0.08395780  1
  S  S109  1  0.86147157  0.14294028  0.41529264  1
  S  S110  1  0.85868039  0.14523560  0.75255824  1
  S  S111  1  0.85589962  0.64740061  0.08354374  1
  S  S112  1  0.85395389  0.64100703  0.41930570  1
  S  S113  1  0.85515845  0.64129876  0.75181404  1
  S  S114  1  0.14452236  0.35654245  0.25111955  1
  S  S115  1  0.14498541  0.35513016  0.58552639  1
  S  S116  1  0.14304785  0.35383649  0.91642004  1
  S  S117  1  0.14102730  0.86093398  0.24829749  1
  S  S118  1  0.14405439  0.86673104  0.58149047  1
  S  S119  1  0.14077545  0.86178541  0.91518772  1
  S  S120  1  0.63869422  0.36042589  0.25221095  1
  S  S121  1  0.64013735  0.36187342  0.58330406  1
  S  S122  1  0.63663396  0.35974302  0.91837898  1
  S  S123  1  0.63721311  0.85790529  0.24528499  1
  S  S124  1  0.63799474  0.85954353  0.57882163  1
  S  S125  1  0.63403980  0.86294159  0.91825973  1
  S  S126  1  0.07055028  0.17393512  0.04550541  1
  S  S127  1  0.06829581  0.16558625  0.37486096  1
  S  S128  1  0.06845449  0.16969192  0.70701005  1
  S  S129  1  0.06346950  0.66779541  0.04315908  1
  S  S130  1  0.07238486  0.66931852  0.37211889  1
  S  S131  1  0.05924478  0.67692556  0.71554878  1
  S  S132  1  0.56687541  0.16850754  0.04095992  1
  S  S133  1  0.56654591  0.16182051  0.37071834  1
  S  S134  1  0.56890147  0.17057705  0.70821149  1
  S  S135  1  0.55959298  0.66758594  0.04056333  1
  S  S136  1  0.56807830  0.66940817  0.37572402  1
  S  S137  1  0.56714955  0.67123897  0.70554394  1
  S  S138  1  0.33365961  0.43113441  0.12511415  1
  S  S139  1  0.33162417  0.43744420  0.46034770  1
  S  S140  1  0.33753075  0.43266187  0.79433862  1
  S  S141  1  0.32709746  0.92988016  0.12082163  1
  S  S142  1  0.33433765  0.93367861  0.45477681  1
  S  S143  1  0.33729238  0.93268576  0.78882959  1
  S  S144  1  0.84472739  0.43433802  0.14090861  1
  S  S145  1  0.82475051  0.42643044  0.45781540  1
  S  S146  1  0.83184388  0.43736804  0.79161151  1
  S  S147  1  0.82701626  0.93250636  0.12139443  1
  S  S148  1  0.82939048  0.94336396  0.45333464  1
  S  S149  1  0.82394077  0.92772155  0.79465507  1
  S  S150  1  0.43604599  0.32985135  0.28890503  1
  S  S151  1  0.42820493  0.32723358  0.62578813  1
  S  S152  1  0.43172742  0.32547778  0.95842715  1
  S  S153  1  0.43225745  0.83037118  0.28755931  1
  S  S154  1  0.43275355  0.83508613  0.61984364  1
  S  S155  1  0.42521050  0.82657992  0.95306649  1
  S  S156  1  0.93542940  0.32755580  0.29513842  1
  S  S157  1  0.93427838  0.32924441  0.62618205  1
  S  S158  1  0.94105125  0.33153306  0.95703015  1
  S  S159  1  0.93979309  0.83786348  0.28949133  1
  S  S160  1  0.92428523  0.83257717  0.63170414  1
  S  S161  1  0.92968436  0.83398847  0.95850753  1
  S  S162  1  0.16984564  0.06689223  0.20762139  1
  S  S163  1  0.17370116  0.06991222  0.54199251  1
  S  S164  1  0.17391951  0.07006132  0.87719622  1
  S  S165  1  0.17405988  0.56805200  0.20944423  1
  S  S166  1  0.17739991  0.56644295  0.54546137  1
  S  S167  1  0.16598147  0.55465009  0.88015694  1
  S  S168  1  0.67105507  0.06721451  0.20887460  1
  S  S169  1  0.66147239  0.07158101  0.53984695  1
  S  S170  1  0.67020029  0.06749274  0.87360660  1
  S  S171  1  0.66981763  0.55845056  0.20997325  1
  S  S172  1  0.66517450  0.56549141  0.54328937  1
  S  S173  1  0.66257750  0.57751618  0.87196750  1
  O  O174  1  0.36858845  0.21650452  0.07454090  1
  O  O175  1  0.36602474  0.21376336  0.40306420  1
  O  O176  1  0.37151517  0.21555399  0.74102820  1
  O  O177  1  0.36216440  0.71792485  0.07519004  1
  O  O178  1  0.37044628  0.71794735  0.40210983  1
  O  O179  1  0.37450088  0.71958317  0.72999127  1
  O  O180  1  0.87579719  0.21849467  0.07592746  1
  O  O181  1  0.87202377  0.22356614  0.41117562  1
  O  O182  1  0.86681841  0.22886223  0.75229657  1
  O  O183  1  0.87161699  0.72602281  0.07356868  1
  O  O184  1  0.85490298  0.71311467  0.40076075  1
  O  O185  1  0.86469644  0.72454385  0.75112848  1
  O  O186  1  0.28270228  0.12778385  0.09185998  1
  O  O187  1  0.28001885  0.12583869  0.42237154  1
  O  O188  1  0.28636181  0.12592548  0.75838563  1
  O  O189  1  0.27941262  0.62760624  0.09359227  1
  O  O190  1  0.27980663  0.63562409  0.42130453  1
  O  O191  1  0.27610654  0.64498781  0.74905188  1
  O  O192  1  0.78596499  0.13069850  0.09276860  1
  O  O193  1  0.78256862  0.13384346  0.42375234  1
  O  O194  1  0.77893132  0.13484814  0.76114812  1
  O  O195  1  0.77868453  0.64652347  0.09268239  1
  O  O196  1  0.77483959  0.62682572  0.42890839  1
  O  O197  1  0.77387584  0.63284902  0.75585662  1
  O  O198  1  0.13625321  0.27677511  0.25856228  1
  O  O199  1  0.13704734  0.27101161  0.58433114  1
  O  O200  1  0.13332382  0.27447176  0.92323941  1
  O  O201  1  0.13329049  0.78167199  0.25512111  1
  O  O202  1  0.14022293  0.78741614  0.58489777  1
  O  O203  1  0.13733847  0.78554956  0.92626399  1
  O  O204  1  0.62748566  0.28208382  0.26178988  1
  O  O205  1  0.62892974  0.28090386  0.58733827  1
  O  O206  1  0.62729080  0.27682442  0.91986867  1
  O  O207  1  0.62649107  0.77695524  0.24738599  1
  O  O208  1  0.62447620  0.78243453  0.59037851  1
  O  O209  1  0.62247606  0.78752865  0.93186164  1
  O  O210  1  0.22535559  0.36588123  0.24522557  1
  O  O211  1  0.22520709  0.36617191  0.57802469  1
  O  O212  1  0.22279770  0.36366417  0.91121668  1
  O  O213  1  0.21989201  0.86981684  0.23937652  1
  O  O214  1  0.22115025  0.87989286  0.56715134  1
  O  O215  1  0.21578698  0.87428718  0.90004601  1
  O  O216  1  0.71935401  0.36905461  0.25033823  1
  O  O217  1  0.72148883  0.36921900  0.57948248  1
  O  O218  1  0.71121496  0.37278462  0.90763004  1
  O  O219  1  0.71428835  0.86798154  0.23430193  1
  O  O220  1  0.71277265  0.86498090  0.56689231  1
  O  O221  1  0.71351496  0.86954548  0.91190637  1
  O  O222  1  0.42069046  0.12958215  0.14959669  1
  O  O223  1  0.41790103  0.13124392  0.48279472  1
  O  O224  1  0.42513368  0.12777456  0.81543199  1
  O  O225  1  0.41771797  0.63438278  0.15332738  1
  O  O226  1  0.41701018  0.63699838  0.48529683  1
  O  O227  1  0.41101770  0.64155861  0.81694338  1
  O  O228  1  0.92412186  0.13095849  0.15136959  1
  O  O229  1  0.92114201  0.13278220  0.48189991  1
  O  O230  1  0.91688346  0.13677631  0.82116861  1
  O  O231  1  0.91554230  0.63984271  0.15293982  1
  O  O232  1  0.91322449  0.64068127  0.48866011  1
  O  O233  1  0.91193431  0.62670679  0.81531813  1
  O  O234  1  0.36747733  0.07850970  0.01291070  1
  O  O235  1  0.36899221  0.07542009  0.34768501  1
  O  O236  1  0.37240580  0.07851143  0.68030626  1
  O  O237  1  0.36670853  0.58026459  0.01690621  1
  O  O238  1  0.36874948  0.57922118  0.34948022  1
  O  O239  1  0.36545309  0.58060551  0.68181129  1
  O  O240  1  0.87190540  0.07995868  0.01656581  1
  O  O241  1  0.86712918  0.08600219  0.34516941  1
  O  O242  1  0.86422203  0.09185511  0.68370363  1
  O  O243  1  0.86292894  0.58679677  0.01749202  1
  O  O244  1  0.86562166  0.57520635  0.35583197  1
  O  O245  1  0.86017821  0.58742399  0.67938111  1
  O  O246  1  0.08765539  0.36291719  0.18232817  1
  O  O247  1  0.08714856  0.36233481  0.51593875  1
  O  O248  1  0.08454900  0.36245749  0.84860749  1
  O  O249  1  0.08198789  0.87204244  0.18190218  1
  O  O250  1  0.08173474  0.88287786  0.52171666  1
  O  O251  1  0.07631933  0.86905246  0.85006567  1
  O  O252  1  0.58212574  0.36672765  0.18209063  1
  O  O253  1  0.58369997  0.37422170  0.51764567  1
  O  O254  1  0.57330889  0.36868381  0.85070966  1
  O  O255  1  0.57548618  0.87069967  0.17998691  1
  O  O256  1  0.57469536  0.86899306  0.51253159  1
  O  O257  1  0.57655422  0.86720777  0.84731605  1
  O  O258  1  0.13755441  0.41443763  0.31925096  1
  O  O259  1  0.13704412  0.40780229  0.65351945  1
  O  O260  1  0.13451578  0.41189026  0.98516041  1
  O  O261  1  0.13452898  0.91959429  0.31753855  1
  O  O262  1  0.14467230  0.92316003  0.65605747  1
  O  O263  1  0.13623261  0.92286081  0.98466646  1
  O  O264  1  0.62498613  0.42057190  0.31754242  1
  O  O265  1  0.63159534  0.41799226  0.65346282  1
  O  O266  1  0.62462413  0.41320042  0.98597874  1
  O  O267  1  0.63112201  0.91469854  0.31538686  1
  O  O268  1  0.63074293  0.92117144  0.64695574  1
  O  O269  1  0.62402058  0.92731256  0.98244185  1
  O  O270  1  0.03408002  0.20316388  0.10642576  1
  O  O271  1  0.03254483  0.19550098  0.43539660  1
  O  O272  1  0.03047269  0.19905114  0.76682968  1
  O  O273  1  0.03517306  0.70330650  0.10997423  1
  O  O274  1  0.04014507  0.68578825  0.43305195  1
  O  O275  1  0.01988404  0.71111479  0.77559113  1
  O  O276  1  0.53109189  0.19937126  0.10290684  1
  O  O277  1  0.53130435  0.18276204  0.43083513  1
  O  O278  1  0.53122215  0.19819563  0.76828715  1
  O  O279  1  0.52103617  0.70031680  0.10077218  1
  O  O280  1  0.52828831  0.69877533  0.43467257  1
  O  O281  1  0.53309351  0.70310305  0.76789676  1
  O  O282  1  0.30420759  0.46567275  0.06369221  1
  O  O283  1  0.29720537  0.47508549  0.39996604  1
  O  O284  1  0.31727096  0.46936137  0.73462116  1
  O  O285  1  0.30010013  0.96594670  0.06003618  1
  O  O286  1  0.30087868  0.96685122  0.39199638  1
  O  O287  1  0.30927388  0.96897204  0.72812772  1
  O  O288  1  0.81244805  0.45739196  0.07449722  1
  O  O289  1  0.79419572  0.46296704  0.39756319  1
  O  O290  1  0.79969370  0.47010875  0.72652162  1
  O  O291  1  0.79602895  0.97001178  0.06122209  1
  O  O292  1  0.79397712  0.97334971  0.38517158  1
  O  O293  1  0.79787441  0.96406530  0.73522445  1
  O  O294  1  0.46618971  0.29744740  0.22316015  1
  O  O295  1  0.46560791  0.30110815  0.56652640  1
  O  O296  1  0.46389819  0.29225933  0.89515396  1
  O  O297  1  0.46623957  0.79957483  0.22576268  1
  O  O298  1  0.46654983  0.80204483  0.55778402  1
  O  O299  1  0.46223833  0.79915431  0.89220261  1
  O  O300  1  0.97387660  0.30001407  0.23453811  1
  O  O301  1  0.97259849  0.30072350  0.56582604  1
  O  O302  1  0.97994496  0.29450140  0.89827340  1
  O  O303  1  0.97243620  0.80475505  0.22526982  1
  O  O304  1  0.96820576  0.81257779  0.57880733  1
  O  O305  1  0.96622508  0.81291811  0.89878262  1
  O  O306  1  0.19948122  0.03026803  0.26848854  1
  O  O307  1  0.20463935  0.03879346  0.60606696  1
  O  O308  1  0.20462343  0.03332949  0.93836693  1
  O  O309  1  0.20277637  0.52847663  0.26832864  1
  O  O310  1  0.20867413  0.52112012  0.59762274  1
  O  O311  1  0.20695150  0.52239190  0.94491032  1
  O  O312  1  0.69939520  0.02902184  0.26858120  1
  O  O313  1  0.68471549  0.03755384  0.60090078  1
  O  O314  1  0.70002390  0.03175313  0.93541138  1
  O  O315  1  0.70015639  0.52973927  0.27676970  1
  O  O316  1  0.69427770  0.52822626  0.60322732  1
  O  O317  1  0.67802556  0.54702899  0.93406481  1
  O  O318  1  0.09006304  0.09314842  0.04360162  1
  O  O319  1  0.08518011  0.08270345  0.36901019  1
  O  O320  1  0.08848958  0.08927872  0.70328222  1
  O  O321  1  0.08513758  0.58782308  0.04323350  1
  O  O322  1  0.09345998  0.58720392  0.35336302  1
  O  O323  1  0.09748040  0.61154737  0.73554671  1
  O  O324  1  0.58546365  0.08721127  0.03812322  1
  O  O325  1  0.58311028  0.07707409  0.35579141  1
  O  O326  1  0.58604060  0.08814900  0.70194435  1
  O  O327  1  0.57312287  0.58707968  0.03675731  1
  O  O328  1  0.58385730  0.58715352  0.37125260  1
  O  O329  1  0.58309071  0.58906810  0.69682939  1
  O  O330  1  0.41548994  0.41224976  0.13114681  1
  O  O331  1  0.41312903  0.42676110  0.46441152  1
  O  O332  1  0.42073937  0.41514752  0.81025009  1
  O  O333  1  0.40803899  0.90883117  0.12750312  1
  O  O334  1  0.41728540  0.91980535  0.45935839  1
  O  O335  1  0.42256479  0.92088820  0.79829745  1
  O  O336  1  0.93032879  0.42236888  0.14956857  1
  O  O337  1  0.90478044  0.40723834  0.46114140  1
  O  O338  1  0.91119209  0.41322368  0.79116542  1
  O  O339  1  0.90899324  0.91620595  0.12634831  1
  O  O340  1  0.90908857  0.92665569  0.45422420  1
  O  O341  1  0.90206784  0.90112957  0.80088788  1
  O  O342  1  0.41623228  0.41168383  0.29208393  1
  O  O343  1  0.40413695  0.40680524  0.62718069  1
  O  O344  1  0.41408512  0.40688646  0.96274278  1
  O  O345  1  0.41570906  0.91303245  0.29343437  1
  O  O346  1  0.42144344  0.91926633  0.62590273  1
  O  O347  1  0.40778514  0.90829369  0.95796611  1
  O  O348  1  0.91477495  0.40734452  0.30255194  1
  O  O349  1  0.91578523  0.41028210  0.63248824  1
  O  O350  1  0.93174320  0.41208337  0.95686821  1
  O  O351  1  0.91953344  0.91951840  0.28881283  1
  O  O352  1  0.90409205  0.91246110  0.64377344  1
  O  O353  1  0.91012516  0.91638264  0.97267369  1
  O  O354  1  0.08761818  0.08399974  0.20249710  1
  O  O355  1  0.09209586  0.08809777  0.53506693  1
  O  O356  1  0.09523980  0.09122270  0.87620339  1
  O  O357  1  0.09487473  0.58962482  0.20357188  1
  O  O358  1  0.10423795  0.59293495  0.55348475  1
  O  O359  1  0.08712815  0.56853593  0.88427972  1
  O  O360  1  0.58949171  0.08523891  0.20434748  1
  O  O361  1  0.57755105  0.08887651  0.52873933  1
  O  O362  1  0.58790790  0.08440504  0.86987381  1
  O  O363  1  0.58604993  0.57682416  0.20456991  1
  O  O364  1  0.58216686  0.58187700  0.53665253  1
  O  O365  1  0.57813786  0.59443387  0.85141588  1
  O  O366  1  0.14193273  0.22578647  0.06129168  1
  O  O367  1  0.13994271  0.21607907  0.38933798  1
  O  O368  1  0.13769759  0.22291157  0.72120011  1
  O  O369  1  0.13451049  0.71951613  0.05554424  1
  O  O370  1  0.14363930  0.72502583  0.39094980  1
  O  O371  1  0.12136243  0.73916379  0.72610278  1
  O  O372  1  0.63542477  0.21928960  0.05254498  1
  O  O373  1  0.63863338  0.21335717  0.38896658  1
  O  O374  1  0.64026527  0.22339254  0.72645900  1
  O  O375  1  0.63155228  0.72062340  0.06088858  1
  O  O376  1  0.63805991  0.72192409  0.39316071  1
  O  O377  1  0.63833577  0.72269797  0.72043262  1
  O  O378  1  0.28150553  0.35977854  0.10975545  1
  O  O379  1  0.28207096  0.36320951  0.44115107  1
  O  O380  1  0.28445305  0.36148527  0.77450325  1
  O  O381  1  0.27310449  0.86066857  0.10634709  1
  O  O382  1  0.28636494  0.86117556  0.44108286  1
  O  O383  1  0.28981978  0.85997239  0.77289006  1
  O  O384  1  0.80393778  0.36251796  0.13970261  1
  O  O385  1  0.77153821  0.35504058  0.44100368  1
  O  O386  1  0.77719758  0.36882519  0.77782346  1
  O  O387  1  0.77472690  0.86216114  0.10537244  1
  O  O388  1  0.77770824  0.87305529  0.43865863  1
  O  O389  1  0.76643359  0.86009899  0.78010089  1
  O  O390  1  0.36446815  0.27849482  0.27463190  1
  O  O391  1  0.35915737  0.27202417  0.61033204  1
  O  O392  1  0.36355023  0.27418859  0.94891461  1
  O  O393  1  0.36038366  0.78039930  0.27397876  1
  O  O394  1  0.35957886  0.78854709  0.60564160  1
  O  O395  1  0.35469981  0.77458563  0.93788858  1
  O  O396  1  0.86740412  0.27142442  0.27787872  1
  O  O397  1  0.86298096  0.27534619  0.60679614  1
  O  O398  1  0.86784731  0.28282061  0.93974652  1
  O  O399  1  0.86940503  0.78798076  0.27711183  1
  O  O400  1  0.85408234  0.77423661  0.60831328  1
  O  O401  1  0.85953443  0.77996873  0.94005749  1
  O  O402  1  0.22189167  0.13824784  0.22442246  1
  O  O403  1  0.22634660  0.13900674  0.55389919  1
  O  O404  1  0.22886730  0.13834478  0.89239690  1
  O  O405  1  0.23013153  0.63835338  0.22891498  1
  O  O406  1  0.23576062  0.63410729  0.56147950  1
  O  O407  1  0.21581928  0.62869300  0.89721735  1
  O  O408  1  0.72279247  0.13825599  0.22592664  1
  O  O409  1  0.71341551  0.14290718  0.55560880  1
  O  O410  1  0.72151498  0.13748292  0.88821366  1
  O  O411  1  0.71833288  0.62927715  0.22139035  1
  O  O412  1  0.71568252  0.63653112  0.55899843  1
  O  O413  1  0.71488043  0.64951099  0.88815803  1
  O  O414  1  0.49580900  0.33176166  0.03022251  1
  O  O415  1  0.49736215  0.33536666  0.35873753  1
  O  O416  1  0.48728081  0.33395766  0.69955490  1
  O  O417  1  0.48547064  0.82940255  0.02542512  1
  O  O418  1  0.49248385  0.83262473  0.35956828  1
  O  O419  1  0.49221517  0.83675010  0.69226531  1
  O  O420  1  0.99519997  0.33322897  0.03236032  1
  O  O421  1  0.99649740  0.32855955  0.36687997  1
  O  O422  1  0.99233885  0.32851423  0.69780210  1
  O  O423  1  0.99059876  0.83223515  0.02921505  1
  O  O424  1  1.00236727  0.84776991  0.35990172  1
  O  O425  1  0.97841461  0.82683684  0.70691468  1
  O  O426  1  0.16727182  0.00797110  0.13505285  1
  O  O427  1  0.16999607  0.00663984  0.47063328  1
  O  O428  1  0.17013563  0.00960698  0.80499977  1
  O  O429  1  0.17419848  0.50916625  0.13727897  1
  O  O430  1  0.16470016  0.51232783  0.46631494  1
  O  O431  1  0.16360975  0.49726099  0.80950912  1
  O  O432  1  0.66874123  0.00876598  0.13596808  1
  O  O433  1  0.66030723  0.01172842  0.46724386  1
  O  O434  1  0.66430304  0.00708285  0.80024400  1
  O  O435  1  0.66548933  0.49361245  0.14256643  1
  O  O436  1  0.66076212  0.50522390  0.46984403  1
  O  O437  1  0.66968743  0.51617254  0.80327219  1
  O  O438  1  0.00912092  0.16152442  0.30146913  1
  O  O439  1  0.00826131  0.16487741  0.63351290  1
  O  O440  1  0.01191615  0.16950447  0.97281994  1
  O  O441  1  0.01264409  0.67570810  0.30235362  1
  O  O442  1  0.00065389  0.65354267  0.64180252  1
  O  O443  1  0.00020627  0.66090408  0.97456986  1
  O  O444  1  0.50764782  0.16486336  0.29946340  1
  O  O445  1  0.51048677  0.16942090  0.63544162  1
  O  O446  1  0.50383315  0.16100179  0.96835149  1
  O  O447  1  0.50934937  0.66569164  0.30181891  1
  O  O448  1  0.50651632  0.67244879  0.63464652  1
  O  O449  1  0.50342278  0.66787318  0.96710770  1
  O  O450  1  0.33642418  0.49078633  0.19770679  1
  O  O451  1  0.33056634  0.49189768  0.53415761  1
  O  O452  1  0.33298002  0.49163930  0.86497303  1
  O  O453  1  0.33124712  0.99123194  0.19344723  1
  O  O454  1  0.33603998  0.99422836  0.52631888  1
  O  O455  1  0.33804346  0.99237112  0.86139230  1
  O  O456  1  0.84517538  0.49965961  0.21033916  1
  O  O457  1  0.82673257  0.48527766  0.53044628  1
  O  O458  1  0.84116617  0.49999353  0.86159786  1
  O  O459  1  0.83015774  0.99245636  0.19421226  1
  O  O460  1  0.83049897  1.00596450  0.52083660  1
  O  O461  1  0.82919177  0.98932472  0.86780421  1
