# generated using pymatgen
data_Na31Fe20(SO4)36
_symmetry_space_group_name_H-M   'P 1'
_cell_length_a   18.08510109
_cell_length_b   18.08167197
_cell_length_c   19.71742333
_cell_angle_alpha   107.56614016
_cell_angle_beta   107.60024450
_cell_angle_gamma   90.75546368
_symmetry_Int_Tables_number   1
_chemical_formula_structural   Na31Fe20(SO4)36
_chemical_formula_sum   'Na62 Fe40 S72 O288'
_cell_volume   5820.52969440
_cell_formula_units_Z   2
loop_
 _symmetry_equiv_pos_site_id
 _symmetry_equiv_pos_as_xyz
  1  'x, y, z'
loop_
 _atom_site_type_symbol
 _atom_site_label
 _atom_site_symmetry_multiplicity
 _atom_site_fract_x
 _atom_site_fract_y
 _atom_site_fract_z
 _atom_site_occupancy
  Na  Na0  1  0.13701061  0.36287164  0.09003851  1
  Na  Na1  1  0.13338518  0.35169388  0.40543007  1
  Na  Na2  1  0.13942091  0.36576012  0.75226544  1
  Na  Na3  1  0.14533729  0.87294025  0.08496761  1
  Na  Na4  1  0.13784651  0.86471646  0.41821598  1
  Na  Na5  1  0.14528990  0.88192272  0.77056825  1
  Na  Na6  1  0.62213814  0.33632274  0.06333684  1
  Na  Na7  1  0.63070749  0.36541714  0.41686088  1
  Na  Na8  1  0.63553196  0.35831804  0.74563103  1
  Na  Na9  1  0.62950239  0.88009457  0.08469832  1
  Na  Na10  1  0.62901654  0.86073076  0.41419619  1
  Na  Na11  1  0.62881217  0.87185457  0.75154184  1
  Na  Na12  1  0.34847634  0.13566646  0.23776962  1
  Na  Na13  1  0.36231111  0.13429476  0.58029644  1
  Na  Na14  1  0.35876685  0.17044243  0.95142936  1
  Na  Na15  1  0.37431665  0.62709630  0.25351513  1
  Na  Na16  1  0.36797522  0.62785197  0.57803073  1
  Na  Na17  1  0.36378849  0.63431260  0.91787675  1
  Na  Na18  1  0.86830209  0.12956341  0.24567124  1
  Na  Na19  1  0.86821397  0.13262754  0.58264724  1
  Na  Na20  1  0.87219493  0.12971044  0.91982149  1
  Na  Na21  1  0.86779404  0.63224055  0.25065613  1
  Na  Na22  1  0.86769113  0.63225224  0.58218106  1
  Na  Na23  1  0.86575704  0.63334604  0.91652849  1
  Na  Na24  1  0.48608772  0.00022856  0.41833668  1
  Na  Na25  1  0.44682057  0.00888646  0.04154634  1
  Na  Na26  1  0.49316296  0.51052977  0.73929954  1
  Na  Na27  1  0.51656105  0.45681252  0.14565367  1
  Na  Na28  1  0.99110977  0.50824765  0.74893606  1
  Na  Na29  1  0.99583816  0.50485158  0.08320352  1
  Na  Na30  1  0.99435199  0.01011013  0.41258093  1
  Na  Na31  1  0.99653043  0.50809876  0.41681868  1
  Na  Na32  1  0.44186004  0.50014470  0.39695544  1
  Na  Na33  1  0.50634461  0.95949236  0.58686404  1
  Na  Na34  1  0.01307328  0.48330752  0.58196061  1
  Na  Na35  1  0.49208123  1.02152198  0.24103348  1
  Na  Na36  1  0.01777609  0.48712923  0.25174856  1
  Na  Na37  1  0.48076846  1.05736872  0.88238226  1
  Na  Na38  1  -0.00145417  1.04751252  0.11853548  1
  Na  Na39  1  0.51153994  0.48268210  0.92393418  1
  Na  Na40  1  0.07488584  1.00826049  0.94438740  1
  Na  Na41  1  0.01616090  0.48869477  0.91686178  1
  Na  Na42  1  0.25707378  0.25276477  0.65881925  1
  Na  Na43  1  0.26794689  0.75862989  0.32594411  1
  Na  Na44  1  0.75426352  0.75565984  -0.00086489  1
  Na  Na45  1  0.75674037  0.25371821  0.65458217  1
  Na  Na46  1  0.23558822  0.24232189  0.33290976  1
  Na  Na47  1  0.72399550  0.21607102  -0.00057752  1
  Na  Na48  1  0.74214706  0.24155882  0.34735154  1
  Na  Na49  1  0.74944774  0.74807420  0.33488431  1
  Na  Na50  1  0.26007370  0.75976790  0.66826967  1
  Na  Na51  1  0.75022570  0.75211952  0.66622246  1
  Na  Na52  1  0.24889363  0.24769756  0.84225650  1
  Na  Na53  1  0.75260460  0.75479824  0.16434441  1
  Na  Na54  1  0.73044082  0.22726084  0.16850854  1
  Na  Na55  1  0.27017911  0.26976393  0.15285011  1
  Na  Na56  1  0.74900544  0.75181313  0.83146326  1
  Na  Na57  1  0.26602270  0.76032947  0.49245873  1
  Na  Na58  1  0.73575689  0.23569136  0.83915400  1
  Na  Na59  1  0.74730704  0.74726521  0.50161796  1
  Na  Na60  1  0.26098439  0.75977643  0.15576381  1
  Na  Na61  1  0.24797127  0.74860078  0.84559330  1
  Fe  Fe62  1  0.96702818  0.81171679  0.46011690  1
  Fe  Fe63  1  0.47310942  0.29660150  0.78911033  1
  Fe  Fe64  1  0.96526908  0.30513803  0.78137761  1
  Fe  Fe65  1  0.46498123  0.80743537  0.11800502  1
  Fe  Fe66  1  0.96737352  0.30119885  0.44626499  1
  Fe  Fe67  1  0.96824268  0.81291451  0.12591915  1
  Fe  Fe68  1  0.46498884  0.81775253  0.79521307  1
  Fe  Fe69  1  0.96702732  0.30212067  0.12255572  1
  Fe  Fe70  1  0.96374667  0.80972436  0.79007532  1
  Fe  Fe71  1  0.46213725  0.30994638  0.45462424  1
  Fe  Fe72  1  0.19438112  0.53661675  0.05533248  1
  Fe  Fe73  1  0.18859272  0.03790181  0.38017953  1
  Fe  Fe74  1  0.69193225  0.53158393  0.37648402  1
  Fe  Fe75  1  0.68873899  0.53463717  0.70789309  1
  Fe  Fe76  1  0.69762318  0.53217204  0.04741859  1
  Fe  Fe77  1  0.68969967  0.03627855  0.38229430  1
  Fe  Fe78  1  0.20085088  0.53089641  0.38058025  1
  Fe  Fe79  1  0.19226107  0.03678169  0.71380202  1
  Fe  Fe80  1  0.69189668  0.03508927  0.71351783  1
  Fe  Fe81  1  0.19415858  0.53549815  0.71797635  1
  Fe  Fe82  1  0.53859712  0.69082454  0.87885744  1
  Fe  Fe83  1  0.03821570  0.19049800  0.54752544  1
  Fe  Fe84  1  0.53143653  0.69606835  0.54096268  1
  Fe  Fe85  1  0.53524166  0.19386433  0.54690774  1
  Fe  Fe86  1  0.53326391  0.69128620  0.21144902  1
  Fe  Fe87  1  0.03600221  0.19143333  0.88035815  1
  Fe  Fe88  1  0.03441258  0.69548789  0.21917880  1
  Fe  Fe89  1  0.03395300  0.69408006  0.88493454  1
  Fe  Fe90  1  0.52702876  0.19577572  0.20751444  1
  Fe  Fe91  1  0.03790702  0.69293041  0.55131262  1
  Fe  Fe92  1  0.30655343  0.46273204  0.61856929  1
  Fe  Fe93  1  0.30797215  0.96505258  0.28214381  1
  Fe  Fe94  1  0.81073032  0.46484965  0.95096130  1
  Fe  Fe95  1  0.80700397  0.46207394  0.28322404  1
  Fe  Fe96  1  0.80564930  0.46369361  0.61397386  1
  Fe  Fe97  1  0.30782236  0.46623298  0.95472878  1
  Fe  Fe98  1  0.31084180  0.96710934  0.62504998  1
  Fe  Fe99  1  0.80275891  0.97073529  0.95895620  1
  Fe  Fe100  1  0.81261473  0.96480051  0.62475772  1
  Fe  Fe101  1  0.80214875  0.96697882  0.28616055  1
  S  S102  1  0.35845151  0.14536263  0.09241597  1
  S  S103  1  0.36103566  0.13991506  0.41688259  1
  S  S104  1  0.35566346  0.14312982  0.74941619  1
  S  S105  1  0.35984600  0.64124298  0.08315532  1
  S  S106  1  0.35659253  0.64223195  0.41857252  1
  S  S107  1  0.36187507  0.64029923  0.75124207  1
  S  S108  1  0.85857970  0.14517776  0.08278609  1
  S  S109  1  0.86048742  0.13809414  0.41829127  1
  S  S110  1  0.85804624  0.14282829  0.74847997  1
  S  S111  1  0.86251519  0.63933831  0.08481224  1
  S  S112  1  0.86285789  0.63807776  0.41632041  1
  S  S113  1  0.86022370  0.63831202  0.74996604  1
  S  S114  1  0.13524660  0.36334732  0.25082242  1
  S  S115  1  0.13882039  0.36135910  0.58454520  1
  S  S116  1  0.13457385  0.36398233  0.91445980  1
  S  S117  1  0.14227040  0.85688231  0.25461892  1
  S  S118  1  0.14341682  0.85690885  0.58561357  1
  S  S119  1  0.13816012  0.85442140  0.91452793  1
  S  S120  1  0.64673239  0.35700780  0.25057344  1
  S  S121  1  0.64108331  0.35989530  0.58374648  1
  S  S122  1  0.64664742  0.36025550  0.91467066  1
  S  S123  1  0.64017683  0.85790252  0.25018147  1
  S  S124  1  0.64395933  0.85871907  0.58304480  1
  S  S125  1  0.64382027  0.85400232  0.91563979  1
  S  S126  1  0.06531306  0.17446496  0.04670032  1
  S  S127  1  0.06295016  0.16661160  0.37745894  1
  S  S128  1  0.06943474  0.17590146  0.70996865  1
  S  S129  1  0.06492017  0.66893172  0.04487291  1
  S  S130  1  0.06747633  0.66871796  0.38032284  1
  S  S131  1  0.06524925  0.66464054  0.70922829  1
  S  S132  1  0.55429218  0.16165013  0.04079400  1
  S  S133  1  0.56687951  0.17175344  0.37743566  1
  S  S134  1  0.56692902  0.16709434  0.70358300  1
  S  S135  1  0.57174056  0.66763449  0.04091821  1
  S  S136  1  0.57239287  0.66672855  0.37356381  1
  S  S137  1  0.56747288  0.66786854  0.70624396  1
  S  S138  1  0.31999149  0.43927499  0.11978212  1
  S  S139  1  0.32656045  0.42975084  0.45890388  1
  S  S140  1  0.33097663  0.43679654  0.79001764  1
  S  S141  1  0.33913227  0.93247437  0.12846636  1
  S  S142  1  0.33056968  0.93822199  0.45958246  1
  S  S143  1  0.33135394  0.93977534  0.79279216  1
  S  S144  1  0.83039356  0.42771319  0.12151921  1
  S  S145  1  0.83502993  0.43403890  0.45678271  1
  S  S146  1  0.83326509  0.43461517  0.78839167  1
  S  S147  1  0.83338892  0.93094868  0.12822927  1
  S  S148  1  0.82805235  0.93091089  0.45760301  1
  S  S149  1  0.82643983  0.93121617  0.79093330  1
  S  S150  1  0.43726004  0.32858973  0.29252677  1
  S  S151  1  0.43190430  0.32861083  0.62686581  1
  S  S152  1  0.43695493  0.34898329  0.95835064  1
  S  S153  1  0.43617402  0.82866377  0.29150229  1
  S  S154  1  0.43326627  0.82527187  0.62630577  1
  S  S155  1  0.43527529  0.82211833  0.95192657  1
  S  S156  1  0.92993927  0.33241976  0.28953011  1
  S  S157  1  0.93423960  0.33363076  0.62365629  1
  S  S158  1  0.93180078  0.33136689  0.95697211  1
  S  S159  1  0.93023035  0.82890227  0.29394164  1
  S  S160  1  0.93112503  0.82433474  0.62362893  1
  S  S161  1  0.92639920  0.82643052  0.95885568  1
  S  S162  1  0.16991659  0.06064741  0.21878960  1
  S  S163  1  0.16772059  0.06338277  0.54258978  1
  S  S164  1  0.16873982  0.07576632  0.87167638  1
  S  S165  1  0.16009237  0.57088992  0.20903377  1
  S  S166  1  0.16912204  0.56583686  0.54448025  1
  S  S167  1  0.16484109  0.56675566  0.87385601  1
  S  S168  1  0.66918650  0.07053027  0.21469563  1
  S  S169  1  0.66950972  0.06460573  0.54199598  1
  S  S170  1  0.67340109  0.06523051  0.87310597  1
  S  S171  1  0.67499237  0.56769116  0.20857212  1
  S  S172  1  0.67301657  0.57049806  0.54183028  1
  S  S173  1  0.67284106  0.56582769  0.87364243  1
  O  O174  1  0.37258509  0.22602503  0.09388114  1
  O  O175  1  0.37025248  0.21845724  0.40816276  1
  O  O176  1  0.37010289  0.22219082  0.74121119  1
  O  O177  1  0.37099895  0.72087789  0.07804850  1
  O  O178  1  0.35979672  0.72276410  0.41735056  1
  O  O179  1  0.37145348  0.72024674  0.74651462  1
  O  O180  1  0.87292695  0.22333029  0.06922676  1
  O  O181  1  0.87053244  0.21597985  0.40811486  1
  O  O182  1  0.86859297  0.22112983  0.73794570  1
  O  O183  1  0.87102578  0.71848301  0.07795370  1
  O  O184  1  0.87262348  0.71750549  0.40956129  1
  O  O185  1  0.86876236  0.71774478  0.74291983  1
  O  O186  1  0.29003116  0.13448662  0.11488496  1
  O  O187  1  0.28319171  0.13026478  0.42511861  1
  O  O188  1  0.27127666  0.13774928  0.74580467  1
  O  O189  1  0.28194352  0.63360881  0.09393422  1
  O  O190  1  0.28189234  0.62701548  0.43528896  1
  O  O191  1  0.28351924  0.63083427  0.76105683  1
  O  O192  1  0.77805342  0.14141398  0.08368089  1
  O  O193  1  0.78191031  0.12977321  0.42582791  1
  O  O194  1  0.77761971  0.13462219  0.75302810  1
  O  O195  1  0.78283470  0.62905963  0.09152151  1
  O  O196  1  0.78417357  0.62945955  0.42473942  1
  O  O197  1  0.78131166  0.62861367  0.75782665  1
  O  O198  1  0.12325043  0.29069822  0.26569430  1
  O  O199  1  0.12911624  0.28505006  0.59697081  1
  O  O200  1  0.12576822  0.28561696  0.92099658  1
  O  O201  1  0.12975305  0.77983145  0.26684721  1
  O  O202  1  0.13387706  0.77740701  0.59369351  1
  O  O203  1  0.12635265  0.77254709  0.91757607  1
  O  O204  1  0.63551198  0.27684086  0.25727459  1
  O  O205  1  0.63231201  0.28124338  0.59291248  1
  O  O206  1  0.64263258  0.28426783  0.92563336  1
  O  O207  1  0.63217708  0.77843238  0.25800305  1
  O  O208  1  0.63406430  0.77790847  0.58782469  1
  O  O209  1  0.63769822  0.76960498  0.91498299  1
  O  O210  1  0.20718663  0.37304081  0.23459840  1
  O  O211  1  0.21807803  0.37016882  0.57957763  1
  O  O212  1  0.21060462  0.37475958  0.90171668  1
  O  O213  1  0.22357665  0.86123797  0.25084135  1
  O  O214  1  0.22239799  0.86442818  0.57664275  1
  O  O215  1  0.21016732  0.86323868  0.89766074  1
  O  O216  1  0.72888637  0.36409877  0.24767777  1
  O  O217  1  0.72037453  0.36981070  0.57689064  1
  O  O218  1  0.72398783  0.37422601  0.90331566  1
  O  O219  1  0.72082037  0.86768637  0.24499774  1
  O  O220  1  0.72709181  0.86773797  0.58290201  1
  O  O221  1  0.72359643  0.86543937  0.90884291  1
  O  O222  1  0.42883319  0.12656785  0.15520990  1
  O  O223  1  0.42130172  0.13284155  0.48558772  1
  O  O224  1  0.40635273  0.13679808  0.81957263  1
  O  O225  1  0.42049240  0.63028685  0.14899967  1
  O  O226  1  0.42098802  0.63094763  0.48346650  1
  O  O227  1  0.42243587  0.62736786  0.81617913  1
  O  O228  1  0.91465009  0.14052384  0.15207702  1
  O  O229  1  0.92008450  0.13112595  0.48663726  1
  O  O230  1  0.91493043  0.13897657  0.81865964  1
  O  O231  1  0.92040652  0.63013338  0.15300349  1
  O  O232  1  0.92254933  0.62749399  0.48301231  1
  O  O233  1  0.91950774  0.62907377  0.81754562  1
  O  O234  1  0.35920549  0.08992838  0.02097488  1
  O  O235  1  0.37351304  0.08003057  0.35117174  1
  O  O236  1  0.36574206  0.08418103  0.68173376  1
  O  O237  1  0.36348914  0.58418467  0.01261385  1
  O  O238  1  0.36065275  0.58588310  0.34921298  1
  O  O239  1  0.36735088  0.58227441  0.68122874  1
  O  O240  1  0.87001830  0.08324853  0.01724989  1
  O  O241  1  0.86988788  0.07693000  0.35174860  1
  O  O242  1  0.86621687  0.08239223  0.68150124  1
  O  O243  1  0.87211514  0.58019718  0.01719282  1
  O  O244  1  0.87030263  0.57937682  0.34758711  1
  O  O245  1  0.86916284  0.57968825  0.68194698  1
  O  O246  1  0.06802564  0.37302957  0.18386181  1
  O  O247  1  0.08046200  0.36791984  0.51476983  1
  O  O248  1  0.07258484  0.37437824  0.84751874  1
  O  O249  1  0.08744065  0.85905783  0.18223010  1
  O  O250  1  0.08455401  0.86223310  0.51595367  1
  O  O251  1  0.07226341  0.86513496  0.84923199  1
  O  O252  1  0.59285131  0.36732462  0.18332273  1
  O  O253  1  0.58179727  0.36699177  0.51648821  1
  O  O254  1  0.58627660  0.36612135  0.84597017  1
  O  O255  1  0.58360002  0.86361397  0.18041799  1
  O  O256  1  0.58925854  0.86968550  0.51640875  1
  O  O257  1  0.58559919  0.86114584  0.84643931  1
  O  O258  1  0.12698106  0.42918364  0.31729676  1
  O  O259  1  0.12662582  0.42340656  0.64974872  1
  O  O260  1  0.12520463  0.42364363  0.98200440  1
  O  O261  1  0.13102048  0.91785164  0.31908275  1
  O  O262  1  0.13582283  0.91541687  0.65285441  1
  O  O263  1  0.13330311  0.91029619  0.98365747  1
  O  O264  1  0.64086841  0.41456642  0.32073880  1
  O  O265  1  0.63450863  0.41860989  0.65301459  1
  O  O266  1  0.63716537  0.42205009  0.98122885  1
  O  O267  1  0.63101693  0.91676834  0.31727981  1
  O  O268  1  0.63341910  0.91543452  0.65159276  1
  O  O269  1  0.63503611  0.90632058  0.98340846  1
  O  O270  1  0.02704415  0.21439623  0.10437346  1
  O  O271  1  0.03486852  0.20404298  0.44637789  1
  O  O272  1  0.02904078  0.20346038  0.76875791  1
  O  O273  1  0.02877731  0.69888989  0.10586483  1
  O  O274  1  0.03213918  0.69964772  0.44193762  1
  O  O275  1  0.02741962  0.69337777  0.76839132  1
  O  O276  1  0.53878645  0.19718778  0.11482415  1
  O  O277  1  0.53147895  0.20266429  0.43898773  1
  O  O278  1  0.53361154  0.19523424  0.76494850  1
  O  O279  1  0.53524912  0.69617960  0.10168098  1
  O  O280  1  0.53714987  0.69030640  0.43367005  1
  O  O281  1  0.53055376  0.69663594  0.76631171  1
  O  O282  1  0.28534017  0.47176261  0.05206263  1
  O  O283  1  0.30028712  0.46695909  0.39961474  1
  O  O284  1  0.29722249  0.47171953  0.72740760  1
  O  O285  1  0.31891483  0.95939453  0.06456163  1
  O  O286  1  0.29592194  0.97391236  0.39906457  1
  O  O287  1  0.29775243  0.97127757  0.72660085  1
  O  O288  1  0.80536835  0.46684150  0.06193250  1
  O  O289  1  0.80510277  0.47183624  0.39719022  1
  O  O290  1  0.80306786  0.47085490  0.72774883  1
  O  O291  1  0.80986803  0.96454711  0.06701601  1
  O  O292  1  0.79568450  0.96765931  0.39722093  1
  O  O293  1  0.79858289  0.97181897  0.73221389  1
  O  O294  1  0.48226764  0.29270651  0.24013395  1
  O  O295  1  0.46938760  0.30159556  0.56613691  1
  O  O296  1  0.47167008  0.32430519  0.89632237  1
  O  O297  1  0.47063485  0.79865001  0.22801231  1
  O  O298  1  0.47373357  0.79925711  0.56965925  1
  O  O299  1  0.47830649  0.78994952  0.89465843  1
  O  O300  1  0.95841124  0.30831727  0.22428625  1
  O  O301  1  0.96707225  0.30316810  0.56086111  1
  O  O302  1  0.96934087  0.30185946  0.89744992  1
  O  O303  1  0.96695515  0.79989006  0.23287796  1
  O  O304  1  0.96931120  0.79410301  0.56300270  1
  O  O305  1  0.96241359  0.79542307  0.89731601  1
  O  O306  1  0.21102059  0.02293220  0.28035312  1
  O  O307  1  0.19681104  0.02455377  0.60158411  1
  O  O308  1  0.19086574  0.04366284  0.93282762  1
  O  O309  1  0.18918380  0.54334815  0.27354902  1
  O  O310  1  0.19874878  0.53012381  0.60610993  1
  O  O311  1  0.19621922  0.53552624  0.93733524  1
  O  O312  1  0.69777451  0.03339946  0.27730999  1
  O  O313  1  0.69745775  0.02637782  0.60176692  1
  O  O314  1  0.70375620  0.02521557  0.92977341  1
  O  O315  1  0.70531695  0.53096300  0.26964482  1
  O  O316  1  0.70240233  0.53274287  0.60286098  1
  O  O317  1  0.70499125  0.53277097  0.93656411  1
  O  O318  1  0.07340312  0.09555412  0.05187440  1
  O  O319  1  0.08338329  0.08747455  0.38243845  1
  O  O320  1  0.08943674  0.09647903  0.70300623  1
  O  O321  1  0.08118520  0.58600471  0.03955226  1
  O  O322  1  0.08216570  0.58596875  0.37454064  1
  O  O323  1  0.07991448  0.58080634  0.70263609  1
  O  O324  1  0.55545582  0.07693194  0.02548655  1
  O  O325  1  0.58156718  0.08847324  0.37252365  1
  O  O326  1  0.58420445  0.08432955  0.69265207  1
  O  O327  1  0.59265974  0.58683810  0.03610724  1
  O  O328  1  0.59286552  0.58515713  0.36260359  1
  O  O329  1  0.58462738  0.58570356  0.70325609  1
  O  O330  1  0.39568169  0.41629061  0.11639860  1
  O  O331  1  0.40878746  0.41314093  0.46564426  1
  O  O332  1  0.41409939  0.42692897  0.79657388  1
  O  O333  1  0.42319034  0.91132824  0.14366994  1
  O  O334  1  0.41296848  0.92927719  0.46583976  1
  O  O335  1  0.41073101  0.91685034  0.79078288  1
  O  O336  1  0.91264450  0.40789963  0.12696068  1
  O  O337  1  0.91737378  0.41671709  0.46081669  1
  O  O338  1  0.91643031  0.41943521  0.79416296  1
  O  O339  1  0.91666004  0.91411146  0.14172127  1
  O  O340  1  0.90848331  0.91263496  0.45841677  1
  O  O341  1  0.90445512  0.90773029  0.79089006  1
  O  O342  1  0.42215207  0.40592948  0.28765352  1
  O  O343  1  0.41317862  0.41053905  0.63375394  1
  O  O344  1  0.41628014  0.43141841  0.96285493  1
  O  O345  1  0.41100744  0.90849884  0.29325960  1
  O  O346  1  0.41093033  0.90499081  0.62721952  1
  O  O347  1  0.41433348  0.89754609  0.94664463  1
  O  O348  1  0.91603526  0.41769186  0.30250744  1
  O  O349  1  0.91726930  0.41673941  0.62815180  1
  O  O350  1  0.92035738  0.41622366  0.96353057  1
  O  O351  1  0.90931982  0.90913241  0.29956528  1
  O  O352  1  0.90945968  0.90266217  0.62416464  1
  O  O353  1  0.90390741  0.90486265  0.96109859  1
  O  O354  1  0.09416349  0.07696991  0.22877363  1
  O  O355  1  0.08600568  0.08162487  0.53747890  1
  O  O356  1  0.08408828  0.09205685  0.85788569  1
  O  O357  1  0.07511309  0.58630349  0.20121221  1
  O  O358  1  0.08546438  0.58068988  0.53906576  1
  O  O359  1  0.08142519  0.58238511  0.86922865  1
  O  O360  1  0.59246276  0.10007642  0.21931589  1
  O  O361  1  0.58801960  0.08402969  0.53538253  1
  O  O362  1  0.59862552  0.09229632  0.87493804  1
  O  O363  1  0.59427287  0.58640501  0.20377526  1
  O  O364  1  0.59404376  0.59194190  0.53759489  1
  O  O365  1  0.59000841  0.58058532  0.86790051  1
  O  O366  1  0.13801290  0.22175457  0.06057514  1
  O  O367  1  0.13266752  0.21605914  0.38719102  1
  O  O368  1  0.13879427  0.23221949  0.72950984  1
  O  O369  1  0.13542012  0.71938698  0.05897830  1
  O  O370  1  0.13929326  0.71871871  0.39526975  1
  O  O371  1  0.13809265  0.71332047  0.72525559  1
  O  O372  1  0.63134043  0.20410859  0.05289487  1
  O  O373  1  0.63838547  0.22150580  0.39252321  1
  O  O374  1  0.63928832  0.21837251  0.71856841  1
  O  O375  1  0.64154964  0.72160159  0.05631609  1
  O  O376  1  0.64362651  0.72095391  0.39084721  1
  O  O377  1  0.64055848  0.71815277  0.72314397  1
  O  O378  1  0.26417733  0.37211448  0.10547507  1
  O  O379  1  0.27475620  0.35906182  0.44336436  1
  O  O380  1  0.28285970  0.36258488  0.77228244  1
  O  O381  1  0.28600206  0.86548995  0.12185418  1
  O  O382  1  0.28199486  0.86342261  0.44147449  1
  O  O383  1  0.27903942  0.86850821  0.77775652  1
  O  O384  1  0.77632160  0.35880967  0.10460642  1
  O  O385  1  0.78386626  0.36395450  0.44274779  1
  O  O386  1  0.78368307  0.36221731  0.77227223  1
  O  O387  1  0.78147188  0.85836113  0.11146565  1
  O  O388  1  0.77671124  0.85887656  0.44202515  1
  O  O389  1  0.77021352  0.86135339  0.77171716  1
  O  O390  1  0.36562886  0.27665297  0.27577715  1
  O  O391  1  0.36202063  0.27582409  0.61032186  1
  O  O392  1  0.36530075  0.29764202  0.94110459  1
  O  O393  1  0.36661019  0.77292501  0.27437129  1
  O  O394  1  0.36244750  0.77079204  0.60851574  1
  O  O395  1  0.36801451  0.76480433  0.93442395  1
  O  O396  1  0.85977076  0.28226472  0.27785070  1
  O  O397  1  0.86434030  0.28389167  0.61288783  1
  O  O398  1  0.85813020  0.28403656  0.93924077  1
  O  O399  1  0.86043697  0.77391428  0.27686370  1
  O  O400  1  0.86113911  0.76884683  0.60574971  1
  O  O401  1  0.85746085  0.77022960  0.94312940  1
  O  O402  1  0.22113106  0.13258420  0.23578567  1
  O  O403  1  0.21970097  0.13437004  0.55956852  1
  O  O404  1  0.21865040  0.14674552  0.88306600  1
  O  O405  1  0.20747487  0.64151014  0.21616880  1
  O  O406  1  0.21843933  0.63863444  0.56172235  1
  O  O407  1  0.21356816  0.63602916  0.88193265  1
  O  O408  1  0.72762399  0.13805461  0.23283262  1
  O  O409  1  0.72355992  0.13388631  0.55854783  1
  O  O410  1  0.73237264  0.13203176  0.88683430  1
  O  O411  1  0.72809068  0.63867373  0.22526539  1
  O  O412  1  0.72919805  0.63977929  0.55942600  1
  O  O413  1  0.72303815  0.63772522  0.88836361  1
  O  O414  1  0.49666770  0.35465650  0.02955759  1
  O  O415  1  0.49147009  0.33595081  0.37077161  1
  O  O416  1  0.49231407  0.33186855  0.69965748  1
  O  O417  1  0.49239195  0.82839706  0.02753120  1
  O  O418  1  0.49610540  0.83730944  0.36274952  1
  O  O419  1  0.48956262  0.83006204  0.70116719  1
  O  O420  1  0.98808748  0.33303300  0.03145666  1
  O  O421  1  0.99326123  0.33180942  0.35915152  1
  O  O422  1  0.99612903  0.34008827  0.69639605  1
  O  O423  1  0.98697447  0.82993073  0.03097509  1
  O  O424  1  0.99047235  0.83152606  0.36612789  1
  O  O425  1  0.98965199  0.82671845  0.69570328  1
  O  O426  1  0.16362189  0.00294665  0.14664860  1
  O  O427  1  0.16428055  0.00491964  0.46898986  1
  O  O428  1  0.16865288  0.01405926  0.79957664  1
  O  O429  1  0.15351064  0.50751648  0.13680569  1
  O  O430  1  0.16651613  0.50726813  0.47200699  1
  O  O431  1  0.15883908  0.50381235  0.80125463  1
  O  O432  1  0.65938792  0.01133757  0.14358568  1
  O  O433  1  0.66583324  0.00500849  0.46845384  1
  O  O434  1  0.66546674  0.00721990  0.79664138  1
  O  O435  1  0.67305678  0.50764488  0.13687975  1
  O  O436  1  0.67250148  0.51020559  0.47062763  1
  O  O437  1  0.67114578  0.50618056  0.80173081  1
  O  O438  1  -0.00285904  0.16014237  0.31139518  1
  O  O439  1  0.01032987  0.17668384  0.63768056  1
  O  O440  1  0.00953131  0.16847644  0.96988482  1
  O  O441  1  0.00731871  0.66785922  0.30842616  1
  O  O442  1  0.00720093  0.66235455  0.63561163  1
  O  O443  1  0.00460813  0.66405338  0.97148531  1
  O  O444  1  0.50690257  0.16816547  0.30454600  1
  O  O445  1  0.50718969  0.16794661  0.63162651  1
  O  O446  1  0.49312560  0.17823668  0.98050268  1
  O  O447  1  0.51340617  0.66849711  0.30197945  1
  O  O448  1  0.51080842  0.66604376  0.63322644  1
  O  O449  1  0.51205208  0.66247649  0.96771977  1
  O  O450  1  0.32322116  0.50391378  0.18676960  1
  O  O451  1  0.32888579  0.48922296  0.53256976  1
  O  O452  1  0.32564387  0.49476332  0.86000859  1
  O  O453  1  0.34434708  0.99692525  0.20120231  1
  O  O454  1  0.32770285  0.99315240  0.53307981  1
  O  O455  1  0.33985246  1.00213939  0.86210450  1
  O  O456  1  0.83588659  0.48824522  0.19463179  1
  O  O457  1  0.83988526  0.49383791  0.53051801  1
  O  O458  1  0.83595878  0.49330303  0.86164423  1
  O  O459  1  0.82844672  0.98998354  0.19854659  1
  O  O460  1  0.83160538  0.98892856  0.53079116  1
  O  O461  1  0.83143603  0.98817478  0.86451441  1
