# generated using pymatgen
data_Na31Fe20(SO4)36
_symmetry_space_group_name_H-M   'P 1'
_cell_length_a   18.06356753
_cell_length_b   18.05711070
_cell_length_c   19.68366140
_cell_angle_alpha   107.57452179
_cell_angle_beta   107.59492792
_cell_angle_gamma   90.69698403
_symmetry_Int_Tables_number   1
_chemical_formula_structural   Na31Fe20(SO4)36
_chemical_formula_sum   'Na62 Fe40 S72 O288'
_cell_volume   5796.40515052
_cell_formula_units_Z   2
loop_
 _symmetry_equiv_pos_site_id
 _symmetry_equiv_pos_as_xyz
  1  'x, y, z'
loop_
 _atom_site_type_symbol
 _atom_site_label
 _atom_site_symmetry_multiplicity
 _atom_site_fract_x
 _atom_site_fract_y
 _atom_site_fract_z
 _atom_site_occupancy
  Na  Na0  1  0.13049514  0.36849975  0.08290556  1
  Na  Na1  1  0.13754086  0.35472307  0.41562114  1
  Na  Na2  1  0.13738935  0.37359495  0.74860612  1
  Na  Na3  1  0.13144753  0.87244082  0.08826839  1
  Na  Na4  1  0.13973305  0.86521239  0.41350660  1
  Na  Na5  1  0.13355753  0.85381441  0.75010107  1
  Na  Na6  1  0.62302592  0.36885008  0.08293350  1
  Na  Na7  1  0.64852121  0.37949792  0.43752106  1
  Na  Na8  1  0.63534810  0.36139427  0.74189369  1
  Na  Na9  1  0.63071164  0.86405418  0.07844660  1
  Na  Na10  1  0.63385235  0.86071924  0.41265326  1
  Na  Na11  1  0.63687647  0.85628806  0.74529941  1
  Na  Na12  1  0.37185392  0.13899505  0.25615536  1
  Na  Na13  1  0.34507129  0.12897795  0.55691686  1
  Na  Na14  1  0.36956052  0.13789615  0.92340886  1
  Na  Na15  1  0.36768242  0.63534458  0.25551020  1
  Na  Na16  1  0.37326363  0.63610883  0.58928324  1
  Na  Na17  1  0.36652442  0.63434419  0.90995051  1
  Na  Na18  1  0.86182277  0.12464662  0.24835525  1
  Na  Na19  1  0.86053376  0.14555173  0.58772505  1
  Na  Na20  1  0.86592694  0.13415016  0.91514876  1
  Na  Na21  1  0.86727880  0.63085882  0.24710972  1
  Na  Na22  1  0.87271418  0.63643354  0.60024199  1
  Na  Na23  1  0.84818381  0.63873886  0.90550055  1
  Na  Na24  1  0.49879830  0.54957392  0.75098108  1
  Na  Na25  1  0.48948469  0.00582939  0.75569674  1
  Na  Na26  1  0.96696116  0.01230016  0.40200284  1
  Na  Na27  1  0.48650111  0.53312479  0.47440968  1
  Na  Na28  1  0.98145381  0.51680471  0.74156484  1
  Na  Na29  1  1.00634960  -0.01571654  0.75823223  1
  Na  Na30  1  0.50087917  0.01621617  0.39353473  1
  Na  Na31  1  0.48173719  0.00813208  0.10751034  1
  Na  Na32  1  0.99870390  0.50442743  0.40383460  1
  Na  Na33  1  0.00787122  0.99264327  0.58152671  1
  Na  Na34  1  0.50633285  0.46554725  0.23342402  1
  Na  Na35  1  -0.00572612  0.50493602  0.92448739  1
  Na  Na36  1  0.02771365  0.98754350  0.25003937  1
  Na  Na37  1  0.51030883  0.98374600  0.57850592  1
  Na  Na38  1  0.50283126  0.50353416  0.92367694  1
  Na  Na39  1  0.02862481  0.48647198  0.58815822  1
  Na  Na40  1  0.50602096  0.97298720  0.92375085  1
  Na  Na41  1  0.00162763  0.96070706  0.91937248  1
  Na  Na42  1  0.74947390  0.75665587  -0.01465647  1
  Na  Na43  1  0.24478706  0.73471182  0.66995593  1
  Na  Na44  1  0.74970689  0.25454282  0.34000676  1
  Na  Na45  1  0.26655453  0.26383110  -0.00175283  1
  Na  Na46  1  0.75518800  0.76072902  0.32649158  1
  Na  Na47  1  0.25627857  0.25425125  0.65226487  1
  Na  Na48  1  0.74925414  0.25103364  -0.00199772  1
  Na  Na49  1  0.74587409  0.74406393  0.68051376  1
  Na  Na50  1  0.23956516  0.22585081  0.35453505  1
  Na  Na51  1  0.23923069  0.74231881  0.00617633  1
  Na  Na52  1  0.23906763  0.74040941  0.18419015  1
  Na  Na53  1  0.25739462  0.75526418  0.48880538  1
  Na  Na54  1  0.25520264  0.25135231  0.16791180  1
  Na  Na55  1  0.75736737  0.76519056  0.15845952  1
  Na  Na56  1  0.75549475  0.25794549  0.82227892  1
  Na  Na57  1  0.74259603  0.74264197  0.50981768  1
  Na  Na58  1  0.75173472  0.25368340  0.51283127  1
  Na  Na59  1  0.74386001  0.24617077  0.16859343  1
  Na  Na60  1  0.25706819  0.25896317  0.82580398  1
  Na  Na61  1  0.23803530  0.73412475  0.83780752  1
  Fe  Fe62  1  0.46619547  0.80571425  0.12103296  1
  Fe  Fe63  1  0.96520595  0.30736034  0.45205348  1
  Fe  Fe64  1  0.96600036  0.30776369  0.12035458  1
  Fe  Fe65  1  0.96278277  0.80911473  0.12065514  1
  Fe  Fe66  1  0.46895199  0.79489946  0.45325800  1
  Fe  Fe67  1  0.47662780  0.79089641  0.78571810  1
  Fe  Fe68  1  0.46237120  0.31330879  0.45537833  1
  Fe  Fe69  1  0.46514593  0.30787324  0.78425609  1
  Fe  Fe70  1  0.96433212  0.80914405  0.45026709  1
  Fe  Fe71  1  0.96502773  0.30885298  0.78144623  1
  Fe  Fe72  1  0.69303352  0.53488618  0.04696687  1
  Fe  Fe73  1  0.69305991  0.03774111  0.71334205  1
  Fe  Fe74  1  0.18579419  0.53317710  0.37442336  1
  Fe  Fe75  1  0.19330008  0.03554903  0.04997157  1
  Fe  Fe76  1  0.69610524  0.03159896  0.37386997  1
  Fe  Fe77  1  0.70038445  0.53278173  0.70967523  1
  Fe  Fe78  1  0.19432863  0.03319927  0.71627450  1
  Fe  Fe79  1  0.69734630  0.53474718  0.38507998  1
  Fe  Fe80  1  0.18945298  0.53795719  0.04837637  1
  Fe  Fe81  1  0.69546635  0.03493835  0.04894183  1
  Fe  Fe82  1  0.03261345  0.69373602  0.54870205  1
  Fe  Fe83  1  0.03415056  0.18734100  0.21401590  1
  Fe  Fe84  1  0.03541803  0.19404670  0.88213633  1
  Fe  Fe85  1  0.53756269  0.19739484  0.55040766  1
  Fe  Fe86  1  0.02793952  0.70036027  0.87629194  1
  Fe  Fe87  1  0.53509055  0.68671177  0.21111665  1
  Fe  Fe88  1  0.03624702  0.18796400  0.54606185  1
  Fe  Fe89  1  0.53181506  0.19538206  0.88166636  1
  Fe  Fe90  1  0.03686000  0.68919005  0.21382124  1
  Fe  Fe91  1  0.53137151  0.20420263  0.21136627  1
  Fe  Fe92  1  0.81031726  0.46600819  0.28674883  1
  Fe  Fe93  1  0.30638895  0.96477271  0.95426693  1
  Fe  Fe94  1  0.81025111  0.96846587  0.61933625  1
  Fe  Fe95  1  0.81151926  0.46568656  0.95455135  1
  Fe  Fe96  1  0.30361538  0.96577752  0.29103981  1
  Fe  Fe97  1  0.30581329  0.96427552  0.61544332  1
  Fe  Fe98  1  0.80896213  0.96417632  0.95216508  1
  Fe  Fe99  1  0.30725103  0.46772602  0.95531700  1
  Fe  Fe100  1  0.30696513  0.46351952  0.28566573  1
  Fe  Fe101  1  0.29821068  0.46692742  0.62077718  1
  S  S102  1  0.35866358  0.14041460  0.08440693  1
  S  S103  1  0.36934467  0.13872402  0.41479235  1
  S  S104  1  0.35856719  0.13877956  0.74932048  1
  S  S105  1  0.35738883  0.64302226  0.08260010  1
  S  S106  1  0.35187825  0.63759422  0.41432101  1
  S  S107  1  0.35919270  0.63994998  0.74831825  1
  S  S108  1  0.85911665  0.14102559  0.08159964  1
  S  S109  1  0.85812281  0.14400527  0.42038540  1
  S  S110  1  0.86134166  0.14247948  0.75005207  1
  S  S111  1  0.85887914  0.64164808  0.08434095  1
  S  S112  1  0.85951154  0.64328150  0.41458715  1
  S  S113  1  0.86031334  0.63669658  0.75286240  1
  S  S114  1  0.14059255  0.35439768  0.25066994  1
  S  S115  1  0.14034217  0.35373416  0.57955124  1
  S  S116  1  0.13885309  0.35965664  0.91667897  1
  S  S117  1  0.13980753  0.85751844  0.24894348  1
  S  S118  1  0.14024015  0.85919627  0.58551074  1
  S  S119  1  0.14037650  0.86296758  0.91596954  1
  S  S120  1  0.64785127  0.36195124  0.25440040  1
  S  S121  1  0.63582203  0.36424717  0.58465563  1
  S  S122  1  0.64108629  0.35779880  0.91660806  1
  S  S123  1  0.63784857  0.85744117  0.25003866  1
  S  S124  1  0.64360255  0.86341667  0.58124425  1
  S  S125  1  0.63937014  0.86336067  0.91668844  1
  S  S126  1  0.06721608  0.16754269  0.04184722  1
  S  S127  1  0.05647577  0.16191304  0.37334589  1
  S  S128  1  0.06739731  0.16621205  0.71022064  1
  S  S129  1  0.06498301  0.67510863  0.04299759  1
  S  S130  1  0.06435063  0.67150592  0.37703655  1
  S  S131  1  0.06389368  0.66824833  0.70957076  1
  S  S132  1  0.56731440  0.16633737  0.03954592  1
  S  S133  1  0.57610677  0.17902978  0.37819857  1
  S  S134  1  0.56320381  0.16649678  0.70804223  1
  S  S135  1  0.56577937  0.66774745  0.04302460  1
  S  S136  1  0.56721644  0.66431818  0.37281845  1
  S  S137  1  0.57250908  0.66407732  0.70262788  1
  S  S138  1  0.32473306  0.43518488  0.12157173  1
  S  S139  1  0.32264105  0.43097051  0.45412652  1
  S  S140  1  0.33128573  0.43165333  0.79161835  1
  S  S141  1  0.32703053  0.92979690  0.12516865  1
  S  S142  1  0.33583334  0.92730556  0.45933584  1
  S  S143  1  0.33201707  0.93151474  0.79060889  1
  S  S144  1  0.82595946  0.42890829  0.12129231  1
  S  S145  1  0.84371286  0.44197603  0.46109666  1
  S  S146  1  0.83320609  0.43374201  0.79465752  1
  S  S147  1  0.82733429  0.93481427  0.12414629  1
  S  S148  1  0.83095179  0.93712210  0.45714890  1
  S  S149  1  0.83140525  0.94074498  0.78965513  1
  S  S150  1  0.43690598  0.33558121  0.29434343  1
  S  S151  1  0.42575458  0.32762898  0.62359719  1
  S  S152  1  0.43286770  0.33092577  0.95485765  1
  S  S153  1  0.43020151  0.82685075  0.29119063  1
  S  S154  1  0.43355132  0.83167823  0.62510928  1
  S  S155  1  0.42996374  0.83391391  0.95868998  1
  S  S156  1  0.93298092  0.32557154  0.28826613  1
  S  S157  1  0.94405010  0.33250703  0.62364654  1
  S  S158  1  0.93350445  0.32892060  0.95582913  1
  S  S159  1  0.93924505  0.83140493  0.28894733  1
  S  S160  1  0.93684807  0.83746774  0.62333791  1
  S  S161  1  0.93131926  0.83027793  0.96080284  1
  S  S162  1  0.17392584  0.06914918  0.21255973  1
  S  S163  1  0.16510416  0.05921752  0.54284665  1
  S  S164  1  0.17146808  0.06923000  0.87827642  1
  S  S165  1  0.16935697  0.56517215  0.20785772  1
  S  S166  1  0.16371426  0.56341182  0.53630878  1
  S  S167  1  0.16487414  0.56603492  0.87723487  1
  S  S168  1  0.66564570  0.07385096  0.20830391  1
  S  S169  1  0.66851766  0.07152343  0.53926537  1
  S  S170  1  0.66859954  0.06908056  0.87359141  1
  S  S171  1  0.67356375  0.56617906  0.21142129  1
  S  S172  1  0.68039079  0.57536549  0.54912246  1
  S  S173  1  0.66952677  0.55694066  0.87591491  1
  O  O174  1  0.36538900  0.21633319  0.07405557  1
  O  O175  1  0.38105999  0.21489054  0.40045719  1
  O  O176  1  0.36663553  0.21894000  0.74415305  1
  O  O177  1  0.36909564  0.72141411  0.07332760  1
  O  O178  1  0.36637118  0.71740606  0.41053145  1
  O  O179  1  0.37523201  0.71653202  0.73485482  1
  O  O180  1  0.86866450  0.22034316  0.07329357  1
  O  O181  1  0.86533390  0.22638824  0.41814136  1
  O  O182  1  0.87172725  0.22149630  0.74331464  1
  O  O183  1  0.86498969  0.72262682  0.07905539  1
  O  O184  1  0.86771695  0.72070053  0.40256821  1
  O  O185  1  0.86288727  0.71362931  0.74400574  1
  O  O186  1  0.28056406  0.12814883  0.09475716  1
  O  O187  1  0.29370915  0.13313628  0.42580834  1
  O  O188  1  0.28121294  0.12979715  0.76110208  1
  O  O189  1  0.27709848  0.63785333  0.08954918  1
  O  O190  1  0.26834492  0.62975511  0.41301733  1
  O  O191  1  0.28110759  0.63885546  0.75578301  1
  O  O192  1  0.77931530  0.13375568  0.08937729  1
  O  O193  1  0.77913694  0.13310654  0.42854866  1
  O  O194  1  0.78242285  0.13390940  0.75852983  1
  O  O195  1  0.78025314  0.63098145  0.09349913  1
  O  O196  1  0.77915870  0.63380770  0.41886957  1
  O  O197  1  0.78234090  0.62129452  0.76572384  1
  O  O198  1  0.13144952  0.27670097  0.26182008  1
  O  O199  1  0.13234939  0.27206339  0.58350002  1
  O  O200  1  0.13177999  0.28148718  0.92792417  1
  O  O201  1  0.13345199  0.77441591  0.24802989  1
  O  O202  1  0.13053878  0.78001195  0.59302534  1
  O  O203  1  0.13142003  0.78256118  0.92143060  1
  O  O204  1  0.63572538  0.28011001  0.25533382  1
  O  O205  1  0.62212022  0.28945778  0.60008634  1
  O  O206  1  0.62881372  0.27968843  0.92627114  1
  O  O207  1  0.62385410  0.78067529  0.26287814  1
  O  O208  1  0.64376311  0.78816746  0.59382301  1
  O  O209  1  0.62959967  0.78947504  0.92962341  1
  O  O210  1  0.22025663  0.36425729  0.24416856  1
  O  O211  1  0.22024030  0.36508531  0.57471047  1
  O  O212  1  0.21966344  0.36943726  0.91226619  1
  O  O213  1  0.21735926  0.86987120  0.23817241  1
  O  O214  1  0.21925993  0.86791626  0.57765541  1
  O  O215  1  0.22026383  0.87078466  0.90772622  1
  O  O216  1  0.72908022  0.36783052  0.24893533  1
  O  O217  1  0.70800897  0.36634538  0.56664685  1
  O  O218  1  0.72304131  0.36416825  0.91487018  1
  O  O219  1  0.71537439  0.86172645  0.24208252  1
  O  O220  1  0.72006203  0.88030411  0.56936968  1
  O  O221  1  0.71767451  0.87571893  0.90857834  1
  O  O222  1  0.41920127  0.13292401  0.15287438  1
  O  O223  1  0.43212241  0.13158067  0.48202811  1
  O  O224  1  0.41968363  0.12737476  0.81516910  1
  O  O225  1  0.41432964  0.63490183  0.15121704  1
  O  O226  1  0.40334538  0.62628536  0.48283250  1
  O  O227  1  0.41935563  0.63099052  0.81386285  1
  O  O228  1  0.91675144  0.13314751  0.14980343  1
  O  O229  1  0.91706799  0.13407730  0.48887622  1
  O  O230  1  0.92030864  0.13256835  0.81761841  1
  O  O231  1  0.91857835  0.63282765  0.15115638  1
  O  O232  1  0.91602065  0.63909767  0.48530312  1
  O  O233  1  0.92047510  0.63212185  0.82396833  1
  O  O234  1  0.36682163  0.07764286  0.01747132  1
  O  O235  1  0.37755254  0.07585039  0.34789100  1
  O  O236  1  0.36413121  0.08118484  0.67955466  1
  O  O237  1  0.36355441  0.58324534  0.01419480  1
  O  O238  1  0.36268496  0.57933236  0.34649552  1
  O  O239  1  0.36354160  0.57764803  0.67864416  1
  O  O240  1  0.86512501  0.08247121  0.01279305  1
  O  O241  1  0.86758866  0.08895755  0.35297464  1
  O  O242  1  0.86871462  0.08397630  0.68126072  1
  O  O243  1  0.86595363  0.58547682  0.01454696  1
  O  O244  1  0.87247340  0.58237722  0.34947095  1
  O  O245  1  0.87117442  0.57534733  0.68952317  1
  O  O246  1  0.08309388  0.35746824  0.17939891  1
  O  O247  1  0.08289037  0.36137625  0.50917394  1
  O  O248  1  0.08253728  0.36257176  0.84514660  1
  O  O249  1  0.07875030  0.86901735  0.18210251  1
  O  O250  1  0.08113706  0.86930890  0.51847303  1
  O  O251  1  0.08201755  0.87694459  0.85237838  1
  O  O252  1  0.59175256  0.37758081  0.19071311  1
  O  O253  1  0.57043743  0.37542800  0.52208214  1
  O  O254  1  0.58651553  0.36216424  0.84473343  1
  O  O255  1  0.57819647  0.86425410  0.18087905  1
  O  O256  1  0.58091417  0.86597949  0.51205350  1
  O  O257  1  0.57962139  0.86986752  0.84672937  1
  O  O258  1  0.12968986  0.41527835  0.31587318  1
  O  O259  1  0.12748067  0.40993313  0.64472532  1
  O  O260  1  0.12529194  0.41998532  0.98075446  1
  O  O261  1  0.13165181  0.91201158  0.31705492  1
  O  O262  1  0.13235554  0.91770337  0.65447690  1
  O  O263  1  0.13556289  0.91961545  0.98768873  1
  O  O264  1  0.64347139  0.41646791  0.32687858  1
  O  O265  1  0.63751110  0.42720812  0.65591657  1
  O  O266  1  0.62841754  0.41885829  0.98108204  1
  O  O267  1  0.63022977  0.91958054  0.31723547  1
  O  O268  1  0.63168074  0.92587798  0.64665335  1
  O  O269  1  0.62775668  0.92788536  0.98159560  1
  O  O270  1  0.03069479  0.19519955  0.10310541  1
  O  O271  1  0.02131777  0.20053337  0.43475530  1
  O  O272  1  0.03269809  0.19888820  0.77209946  1
  O  O273  1  0.02677893  0.70171873  0.10287437  1
  O  O274  1  0.02757116  0.70161574  0.43847334  1
  O  O275  1  0.03235891  0.70314509  0.77180682  1
  O  O276  1  0.53340411  0.19159865  0.10049606  1
  O  O277  1  0.54241635  0.20863774  0.44121347  1
  O  O278  1  0.52663193  0.19688163  0.76909075  1
  O  O279  1  0.53290419  0.69884802  0.10812118  1
  O  O280  1  0.52753747  0.69118102  0.42994564  1
  O  O281  1  0.54107477  0.69395069  0.76714800  1
  O  O282  1  0.29000116  0.47362350  0.06129268  1
  O  O283  1  0.29291335  0.46940598  0.39390745  1
  O  O284  1  0.30662994  0.46513104  0.73050066  1
  O  O285  1  0.29866952  0.96870116  0.06521625  1
  O  O286  1  0.31164871  0.96201404  0.39856500  1
  O  O287  1  0.30091184  0.96928621  0.73030130  1
  O  O288  1  0.79747885  0.46903351  0.06243847  1
  O  O289  1  0.80807720  0.47354960  0.39575654  1
  O  O290  1  0.79672595  0.46531452  0.73312896  1
  O  O291  1  0.79866514  0.97026356  0.06014526  1
  O  O292  1  0.80014629  0.97155835  0.39676913  1
  O  O293  1  0.79657557  0.97733246  0.72797795  1
  O  O294  1  0.47654900  0.30808086  0.23679886  1
  O  O295  1  0.46010169  0.29743433  0.56079889  1
  O  O296  1  0.46649881  0.29868794  0.88975996  1
  O  O297  1  0.46558192  0.79954325  0.22913439  1
  O  O298  1  0.46998876  0.81017594  0.56553032  1
  O  O299  1  0.46239114  0.81645547  0.89630230  1
  O  O300  1  0.96817707  0.29458242  0.22623784  1
  O  O301  1  0.97782902  0.29308393  0.56159218  1
  O  O302  1  0.97042078  0.29933203  0.89481654  1
  O  O303  1  0.97494408  0.79162278  0.22845385  1
  O  O304  1  0.96632116  0.80262756  0.55682258  1
  O  O305  1  0.96914927  0.80308596  0.90213030  1
  O  O306  1  0.20463469  0.03197030  0.27095290  1
  O  O307  1  0.19813590  0.02878634  0.60991722  1
  O  O308  1  0.20117319  0.03361373  0.93976952  1
  O  O309  1  0.19781452  0.52288923  0.26480967  1
  O  O310  1  0.19258790  0.52649386  0.59507300  1
  O  O311  1  0.19815257  0.53305332  0.94217403  1
  O  O312  1  0.68933898  0.03923716  0.26897013  1
  O  O313  1  0.70027439  0.03897275  0.60285443  1
  O  O314  1  0.70033138  0.03599128  0.93615537  1
  O  O315  1  0.70429876  0.52848435  0.27197986  1
  O  O316  1  0.70255535  0.53827058  0.61021492  1
  O  O317  1  0.70759146  0.52114652  0.93768066  1
  O  O318  1  0.08429296  0.08515186  0.03229080  1
  O  O319  1  0.06230507  0.08006367  0.37063304  1
  O  O320  1  0.08336680  0.08363847  0.70696219  1
  O  O321  1  0.08418775  0.59334075  0.03650722  1
  O  O322  1  0.08154313  0.59000282  0.37338831  1
  O  O323  1  0.07141670  0.58504833  0.70002689  1
  O  O324  1  0.58595367  0.08328167  0.02760661  1
  O  O325  1  0.59363378  0.09717605  0.37275810  1
  O  O326  1  0.57892906  0.08335191  0.70289348  1
  O  O327  1  0.59165224  0.58875399  0.04364086  1
  O  O328  1  0.58764497  0.58271102  0.36592461  1
  O  O329  1  0.60645923  0.58874303  0.71230444  1
  O  O330  1  0.40272011  0.41722305  0.12136463  1
  O  O331  1  0.40556912  0.41772058  0.46018663  1
  O  O332  1  0.41489615  0.41389943  0.80477146  1
  O  O333  1  0.40806661  0.91098384  0.12837341  1
  O  O334  1  0.41699562  0.90443256  0.46817659  1
  O  O335  1  0.41431253  0.91678348  0.79575303  1
  O  O336  1  0.90293592  0.40347481  0.12000300  1
  O  O337  1  0.92302271  0.41793012  0.45609487  1
  O  O338  1  0.91494434  0.41628937  0.79384491  1
  O  O339  1  0.90790963  0.91292012  0.12823881  1
  O  O340  1  0.91422760  0.92039525  0.46136464  1
  O  O341  1  0.91380539  0.93269868  0.79538692  1
  O  O342  1  0.41563433  0.41624436  0.29527143  1
  O  O343  1  0.40366643  0.40700854  0.62777076  1
  O  O344  1  0.41004208  0.41019182  0.95409990  1
  O  O345  1  0.41149753  0.90884611  0.29928824  1
  O  O346  1  0.41631438  0.91637551  0.63855721  1
  O  O347  1  0.41509414  0.91975483  0.97701865  1
  O  O348  1  0.91470713  0.40682802  0.29248554  1
  O  O349  1  0.93984205  0.41453241  0.62768910  1
  O  O350  1  0.91614456  0.41041718  0.96024426  1
  O  O351  1  0.93223142  0.91224972  0.28965140  1
  O  O352  1  0.91896615  0.91998103  0.62442452  1
  O  O353  1  0.91131401  0.91150218  0.96266653  1
  O  O354  1  0.09273742  0.08760912  0.21120772  1
  O  O355  1  0.08229859  0.07719285  0.54014349  1
  O  O356  1  0.08932826  0.08664088  0.87202548  1
  O  O357  1  0.09201593  0.58946611  0.21008829  1
  O  O358  1  0.08122950  0.58267684  0.53241549  1
  O  O359  1  0.08516993  0.58915266  0.87803269  1
  O  O360  1  0.58494416  0.09767619  0.19877253  1
  O  O361  1  0.58459217  0.08469480  0.53285920  1
  O  O362  1  0.58646229  0.08666573  0.86867216  1
  O  O363  1  0.59230172  0.58237928  0.20712093  1
  O  O364  1  0.60206669  0.59793109  0.53693824  1
  O  O365  1  0.58589881  0.55560364  0.86776979  1
  O  O366  1  0.13862869  0.22007583  0.05920420  1
  O  O367  1  0.13080200  0.20756684  0.38821758  1
  O  O368  1  0.13931828  0.21559163  0.72367998  1
  O  O369  1  0.13691869  0.72829465  0.06280959  1
  O  O370  1  0.13482530  0.72377234  0.39349233  1
  O  O371  1  0.13920820  0.71493657  0.72398697  1
  O  O372  1  0.63831202  0.21895287  0.05449623  1
  O  O373  1  0.64772888  0.23104970  0.39393180  1
  O  O374  1  0.63560233  0.21641315  0.72523435  1
  O  O375  1  0.63381877  0.72277858  0.05620013  1
  O  O376  1  0.63840932  0.71830963  0.39088917  1
  O  O377  1  0.63564613  0.72064389  0.70968472  1
  O  O378  1  0.27023557  0.36465431  0.10543684  1
  O  O379  1  0.27386194  0.35685942  0.43398007  1
  O  O380  1  0.27907828  0.35909199  0.77455022  1
  O  O381  1  0.27376415  0.85889619  0.10671714  1
  O  O382  1  0.28018485  0.86120207  0.44814888  1
  O  O383  1  0.28079122  0.85960851  0.77388517  1
  O  O384  1  0.76825688  0.36161746  0.10547645  1
  O  O385  1  0.79186245  0.37210999  0.44965066  1
  O  O386  1  0.78571488  0.36403852  0.78897327  1
  O  O387  1  0.77261800  0.86294509  0.10310225  1
  O  O388  1  0.78274352  0.86403952  0.44402787  1
  O  O389  1  0.78309537  0.86751858  0.77229404  1
  O  O390  1  0.36613944  0.28190925  0.27683980  1
  O  O391  1  0.35998232  0.27137069  0.61218171  1
  O  O392  1  0.36133161  0.27672939  0.93702826  1
  O  O393  1  0.36019326  0.77367487  0.27481996  1
  O  O394  1  0.36063015  0.78036604  0.60594294  1
  O  O395  1  0.35754333  0.78270644  0.94066579  1
  O  O396  1  0.86240685  0.27341525  0.27394216  1
  O  O397  1  0.86892946  0.28802523  0.60932615  1
  O  O398  1  0.86154461  0.27674968  0.93817606  1
  O  O399  1  0.86418702  0.78485866  0.27294334  1
  O  O400  1  0.86556975  0.78913443  0.61267259  1
  O  O401  1  0.86122065  0.77876639  0.94781527  1
  O  O402  1  0.22493493  0.14130647  0.22731839  1
  O  O403  1  0.21435682  0.13144371  0.55777800  1
  O  O404  1  0.22336553  0.13978789  0.89269558  1
  O  O405  1  0.22631348  0.63151521  0.22271403  1
  O  O406  1  0.21475323  0.63479958  0.54998729  1
  O  O407  1  0.21863512  0.63683845  0.89278981  1
  O  O408  1  0.72207674  0.14241777  0.22361536  1
  O  O409  1  0.71631907  0.14409054  0.55299657  1
  O  O410  1  0.71909067  0.14053784  0.88636049  1
  O  O411  1  0.72547618  0.63827746  0.22890049  1
  O  O412  1  0.73892171  0.64360490  0.56831421  1
  O  O413  1  0.71110961  0.63482041  0.89667873  1
  O  O414  1  0.49233168  0.33426917  0.02429274  1
  O  O415  1  0.49332336  0.34230681  0.37001521  1
  O  O416  1  0.48990488  0.33269805  0.69572684  1
  O  O417  1  0.48966302  0.82842457  0.02830288  1
  O  O418  1  0.49084938  0.82701803  0.36265367  1
  O  O419  1  0.49181985  0.82865975  0.69662301  1
  O  O420  1  0.99158485  0.32962787  0.02814329  1
  O  O421  1  0.99394495  0.32868393  0.35999499  1
  O  O422  1  1.00072283  0.32827152  0.69625273  1
  O  O423  1  0.99102107  0.83704860  0.03527789  1
  O  O424  1  0.99475420  0.83116223  0.36339676  1
  O  O425  1  1.00031980  0.84554838  0.69288100  1
  O  O426  1  0.16758721  0.01183414  0.13718114  1
  O  O427  1  0.16304260  -0.00247961  0.47507540  1
  O  O428  1  0.16805367  0.00801614  0.80576262  1
  O  O429  1  0.15948611  0.50677658  0.13202644  1
  O  O430  1  0.15604065  0.50461532  0.46072043  1
  O  O431  1  0.15834959  0.50533420  0.80712610  1
  O  O432  1  0.66233762  0.01245320  0.13572404  1
  O  O433  1  0.66683959  0.01052809  0.46734668  1
  O  O434  1  0.66466922  0.00839604  0.80096932  1
  O  O435  1  0.67349712  0.50808555  0.13901923  1
  O  O436  1  0.68567361  0.51411748  0.47913510  1
  O  O437  1  0.67987334  0.50478142  0.80431336  1
  O  O438  1  -0.00035680  0.16350133  0.29973067  1
  O  O439  1  0.00744639  0.16223908  0.63755129  1
  O  O440  1  0.00764418  0.16881258  0.97016663  1
  O  O441  1  0.00530630  0.66885741  0.30442416  1
  O  O442  1  0.00715701  0.67475224  0.63757396  1
  O  O443  1  0.00713844  0.67404824  0.97070946  1
  O  O444  1  0.51580318  0.17858635  0.30689064  1
  O  O445  1  0.50502035  0.16437980  0.63532016  1
  O  O446  1  0.50659278  0.16622228  0.96751360  1
  O  O447  1  0.50976229  0.66116381  0.29777748  1
  O  O448  1  0.50830143  0.64230707  0.63142772  1
  O  O449  1  0.50277790  0.65665208  0.97262922  1
  O  O450  1  0.32668746  0.49312743  0.19530412  1
  O  O451  1  0.32078358  0.48741870  0.52618268  1
  O  O452  1  0.32891895  0.49117637  0.86302891  1
  O  O453  1  0.32940689  0.98789839  0.19794755  1
  O  O454  1  0.34115866  0.99098123  0.53244664  1
  O  O455  1  0.33361754  0.99012008  0.86409459  1
  O  O456  1  0.83403912  0.48824191  0.19569772  1
  O  O457  1  0.85631015  0.50395934  0.53158990  1
  O  O458  1  0.84575871  0.49584391  0.86997785  1
  O  O459  1  0.82867963  0.99335699  0.19372294  1
  O  O460  1  0.83557372  0.99644601  0.53116577  1
  O  O461  1  0.82897149  0.99749851  0.86262352  1
