# generated using pymatgen
data_Na31Fe20(SO4)36
_symmetry_space_group_name_H-M   'P 1'
_cell_length_a   18.07753720
_cell_length_b   18.08419504
_cell_length_c   19.71805211
_cell_angle_alpha   107.58220511
_cell_angle_beta   107.58306245
_cell_angle_gamma   90.71646687
_symmetry_Int_Tables_number   1
_chemical_formula_structural   Na31Fe20(SO4)36
_chemical_formula_sum   'Na62 Fe40 S72 O288'
_cell_volume   5819.63972587
_cell_formula_units_Z   2
loop_
 _symmetry_equiv_pos_site_id
 _symmetry_equiv_pos_as_xyz
  1  'x, y, z'
loop_
 _atom_site_type_symbol
 _atom_site_label
 _atom_site_symmetry_multiplicity
 _atom_site_fract_x
 _atom_site_fract_y
 _atom_site_fract_z
 _atom_site_occupancy
  Na  Na0  1  0.13427398  0.36958095  0.08390265  1
  Na  Na1  1  0.14001554  0.37055246  0.43007412  1
  Na  Na2  1  0.13162955  0.36800059  0.74885460  1
  Na  Na3  1  0.13715216  0.86118424  0.08475415  1
  Na  Na4  1  0.12342201  0.86823857  0.41725379  1
  Na  Na5  1  0.13528878  0.86716901  0.74982618  1
  Na  Na6  1  0.62798988  0.35092624  0.06982075  1
  Na  Na7  1  0.64119337  0.36611817  0.42723451  1
  Na  Na8  1  0.64194330  0.35296525  0.74544472  1
  Na  Na9  1  0.63346503  0.86781642  0.08222581  1
  Na  Na10  1  0.63381191  0.86310526  0.41194979  1
  Na  Na11  1  0.63499186  0.87055197  0.74795907  1
  Na  Na12  1  0.37038108  0.12963154  0.24780134  1
  Na  Na13  1  0.36627868  0.13048694  0.58462116  1
  Na  Na14  1  0.36227305  0.14583090  0.91801768  1
  Na  Na15  1  0.36629213  0.63262772  0.24884782  1
  Na  Na16  1  0.35720677  0.63623070  0.58421746  1
  Na  Na17  1  0.36761435  0.63163130  0.91193540  1
  Na  Na18  1  0.87136355  0.13387837  0.25274144  1
  Na  Na19  1  0.86048773  0.13985736  0.59027037  1
  Na  Na20  1  0.84224898  0.12877431  0.89434328  1
  Na  Na21  1  0.87050714  0.63687725  0.25650212  1
  Na  Na22  1  0.87845273  0.61687822  0.58604942  1
  Na  Na23  1  0.87095038  0.64025331  0.92260535  1
  Na  Na24  1  0.50760391  0.06903523  0.77991160  1
  Na  Na25  1  0.49498365  0.06666009  0.12182579  1
  Na  Na26  1  0.49406273  0.01863990  0.40135844  1
  Na  Na27  1  0.98733978  0.51564317  0.07246352  1
  Na  Na28  1  0.50230658  0.48517824  0.43800799  1
  Na  Na29  1  0.98447436  0.50602935  0.43931324  1
  Na  Na30  1  0.49715366  0.50647371  0.08264959  1
  Na  Na31  1  0.97787869  0.00442819  0.76387910  1
  Na  Na32  1  1.04211603  -0.01524575  0.03129111  1
  Na  Na33  1  0.00170846  0.95162937  0.23730467  1
  Na  Na34  1  0.51486178  0.48759530  0.89498533  1
  Na  Na35  1  0.46347741  0.51255878  0.64383007  1
  Na  Na36  1  0.00474022  0.50281996  0.88357739  1
  Na  Na37  1  0.55176515  0.99774324  0.59828835  1
  Na  Na38  1  0.49153143  1.00933284  0.92323682  1
  Na  Na39  1  0.00994145  0.48890806  0.25065873  1
  Na  Na40  1  0.00886018  0.97443384  0.56261752  1
  Na  Na41  1  0.50993516  0.47720340  0.25501172  1
  Na  Na42  1  0.24864671  0.24947068  -0.00725942  1
  Na  Na43  1  0.73255103  0.23691460  0.34019802  1
  Na  Na44  1  0.75920576  0.75027306  0.65959505  1
  Na  Na45  1  0.24501754  0.24666343  0.33620815  1
  Na  Na46  1  0.24182034  0.24881199  0.67814496  1
  Na  Na47  1  0.26063942  0.75897918  -0.00716625  1
  Na  Na48  1  0.76770080  0.76167031  0.32861612  1
  Na  Na49  1  0.76981015  0.76495657  -0.00282829  1
  Na  Na50  1  0.74613544  0.25088373  -0.01617831  1
  Na  Na51  1  0.24221171  0.74538145  0.34014201  1
  Na  Na52  1  0.24800458  0.24942028  0.50754482  1
  Na  Na53  1  0.23854838  0.74480046  0.51425653  1
  Na  Na54  1  0.74313470  0.25216533  0.51998233  1
  Na  Na55  1  0.76761585  0.76010055  0.15838324  1
  Na  Na56  1  0.76475912  0.75727995  0.49243756  1
  Na  Na57  1  0.73747482  0.24119946  0.17166364  1
  Na  Na58  1  0.24130336  0.23681151  0.16638857  1
  Na  Na59  1  0.26039930  0.75936309  0.81917740  1
  Na  Na60  1  0.25091495  0.74889862  0.16576180  1
  Na  Na61  1  0.76251367  0.75736608  0.82769437  1
  Fe  Fe62  1  0.96127561  0.30356708  0.77729537  1
  Fe  Fe63  1  0.46565744  0.80925732  0.45468550  1
  Fe  Fe64  1  0.96715273  0.80503791  0.78736332  1
  Fe  Fe65  1  0.46604046  0.81145522  0.78791005  1
  Fe  Fe66  1  0.46364085  0.30410078  0.45400890  1
  Fe  Fe67  1  0.46881004  0.29752994  0.11818241  1
  Fe  Fe68  1  0.96219369  0.31078209  0.45717159  1
  Fe  Fe69  1  0.46773286  0.80972420  0.12198393  1
  Fe  Fe70  1  0.96116516  0.30850348  0.11567596  1
  Fe  Fe71  1  0.46588274  0.30066406  0.78578802  1
  Fe  Fe72  1  0.19002303  0.03656377  0.71498581  1
  Fe  Fe73  1  0.19901306  0.53141338  0.70700282  1
  Fe  Fe74  1  0.19579695  0.53396487  0.38531009  1
  Fe  Fe75  1  0.19108651  0.03377792  0.37962168  1
  Fe  Fe76  1  0.69915369  0.53012957  0.71021380  1
  Fe  Fe77  1  0.69384538  0.53294557  0.04736199  1
  Fe  Fe78  1  0.68839868  0.03705626  0.37625466  1
  Fe  Fe79  1  0.68985962  0.03545737  0.04790740  1
  Fe  Fe80  1  0.19578674  0.53255709  0.04359683  1
  Fe  Fe81  1  0.69462159  0.53136944  0.38490002  1
  Fe  Fe82  1  0.53392509  0.69424385  0.54845110  1
  Fe  Fe83  1  0.03396651  0.19001588  0.20914469  1
  Fe  Fe84  1  0.53831701  0.19333082  0.55392618  1
  Fe  Fe85  1  0.03608731  0.69167498  0.87618442  1
  Fe  Fe86  1  0.03307073  0.70295279  0.54569023  1
  Fe  Fe87  1  0.03142902  0.19077469  0.54651921  1
  Fe  Fe88  1  0.03348886  0.19274475  0.88050510  1
  Fe  Fe89  1  0.53736273  0.69087675  0.87909398  1
  Fe  Fe90  1  0.02882965  0.69919927  0.20997815  1
  Fe  Fe91  1  0.53791716  0.69290094  0.21655755  1
  Fe  Fe92  1  0.29964069  0.97181196  0.95763462  1
  Fe  Fe93  1  0.80308717  0.45928466  0.93634920  1
  Fe  Fe94  1  0.30736480  0.46610132  0.28710103  1
  Fe  Fe95  1  0.30395472  0.96434936  0.28409481  1
  Fe  Fe96  1  0.79949785  0.97033703  0.62233285  1
  Fe  Fe97  1  0.81475494  0.96429109  0.29161266  1
  Fe  Fe98  1  0.31043375  0.96653563  0.62299675  1
  Fe  Fe99  1  0.81293067  0.96625683  0.95741743  1
  Fe  Fe100  1  0.80784138  0.46351695  0.28617479  1
  Fe  Fe101  1  0.30693861  0.46096894  0.94663383  1
  S  S102  1  0.34990875  0.14571897  0.07832679  1
  S  S103  1  0.35907113  0.13748471  0.41532495  1
  S  S104  1  0.35284984  0.14071636  0.74949920  1
  S  S105  1  0.36356634  0.63855479  0.08367867  1
  S  S106  1  0.35945751  0.64259096  0.41717666  1
  S  S107  1  0.36521689  0.64459355  0.75190474  1
  S  S108  1  0.85683257  0.14447521  0.08315998  1
  S  S109  1  0.85866194  0.14209254  0.41504828  1
  S  S110  1  0.85981082  0.13927446  0.75130762  1
  S  S111  1  0.85806946  0.63446042  0.08240827  1
  S  S112  1  0.85978920  0.63711365  0.41781261  1
  S  S113  1  0.86140950  0.63930778  0.75232891  1
  S  S114  1  0.13938097  0.36107953  0.24869829  1
  S  S115  1  0.13867889  0.35830015  0.58178965  1
  S  S116  1  0.13671151  0.36099524  0.91452718  1
  S  S117  1  0.14377860  0.85683949  0.25071573  1
  S  S118  1  0.14392422  0.86394397  0.58408493  1
  S  S119  1  0.14124517  0.85560549  0.91768761  1
  S  S120  1  0.64049040  0.36066689  0.24792021  1
  S  S121  1  0.63432579  0.36398120  0.58142613  1
  S  S122  1  0.63569199  0.36345972  0.91903966  1
  S  S123  1  0.64301176  0.85624295  0.24989052  1
  S  S124  1  0.64227624  0.85445854  0.57998264  1
  S  S125  1  0.64148332  0.85613376  0.91854934  1
  S  S126  1  0.06587215  0.17976891  0.04609884  1
  S  S127  1  0.06887906  0.16955048  0.37407940  1
  S  S128  1  0.06464855  0.16723113  0.70458884  1
  S  S129  1  0.06974802  0.66099085  0.03891781  1
  S  S130  1  0.06976189  0.66763691  0.37317648  1
  S  S131  1  0.07326796  0.67443795  0.70993303  1
  S  S132  1  0.56123229  0.16509289  0.04310539  1
  S  S133  1  0.56335339  0.17231371  0.37643972  1
  S  S134  1  0.56253487  0.16762930  0.70594387  1
  S  S135  1  0.56907599  0.66863852  0.04415209  1
  S  S136  1  0.56699456  0.66701405  0.37600275  1
  S  S137  1  0.57163562  0.67193765  0.71054875  1
  S  S138  1  0.33231770  0.43277510  0.12408544  1
  S  S139  1  0.32977828  0.43452647  0.45771064  1
  S  S140  1  0.33064543  0.43305237  0.78983830  1
  S  S141  1  0.33331515  0.92910819  0.12588947  1
  S  S142  1  0.33108143  0.93266461  0.45785383  1
  S  S143  1  0.33063751  0.93588492  0.79514187  1
  S  S144  1  0.82885397  0.43249292  0.12430102  1
  S  S145  1  0.82553819  0.42941761  0.45365461  1
  S  S146  1  0.83302165  0.43769826  0.79634038  1
  S  S147  1  0.82982077  0.93510816  0.12358265  1
  S  S148  1  0.82403474  0.93673928  0.45655753  1
  S  S149  1  0.83163612  0.92873768  0.79144207  1
  S  S150  1  0.43090067  0.33701086  0.29271956  1
  S  S151  1  0.42857210  0.31946898  0.62062496  1
  S  S152  1  0.42868551  0.33364424  0.95852461  1
  S  S153  1  0.43232080  0.82763477  0.29062799  1
  S  S154  1  0.43404794  0.83104984  0.62403482  1
  S  S155  1  0.43287929  0.83331230  0.95848581  1
  S  S156  1  0.93476759  0.33287578  0.29109330  1
  S  S157  1  0.93365832  0.32907247  0.62069779  1
  S  S158  1  0.93112776  0.33110644  0.95784991  1
  S  S159  1  0.93505758  0.82669106  0.29287667  1
  S  S160  1  0.93262662  0.83256413  0.62657173  1
  S  S161  1  0.93856035  0.83037191  0.95921382  1
  S  S162  1  0.16982951  0.06480303  0.20938552  1
  S  S163  1  0.16809789  0.06815123  0.54257868  1
  S  S164  1  0.16706201  0.06510327  0.87440584  1
  S  S165  1  0.16919357  0.56693371  0.20754666  1
  S  S166  1  0.16617100  0.57213984  0.54020037  1
  S  S167  1  0.17769892  0.56973739  0.87527431  1
  S  S168  1  0.67789098  0.06487717  0.21452182  1
  S  S169  1  0.66562002  0.06338525  0.53407376  1
  S  S170  1  0.66695987  0.05485994  0.88284468  1
  S  S171  1  0.66969604  0.56772190  0.21012309  1
  S  S172  1  0.66683767  0.57047530  0.54226213  1
  S  S173  1  0.67541154  0.57141801  0.87746988  1
  O  O174  1  0.36894835  0.22163767  0.06557921  1
  O  O175  1  0.36720986  0.21620104  0.40606360  1
  O  O176  1  0.36377108  0.21875578  0.74060690  1
  O  O177  1  0.37171647  0.71772514  0.07608940  1
  O  O178  1  0.37011475  0.72193472  0.40990827  1
  O  O179  1  0.37274594  0.72747532  0.75191117  1
  O  O180  1  0.86370042  0.22405764  0.07539503  1
  O  O181  1  0.87145799  0.21969913  0.40460964  1
  O  O182  1  0.87318431  0.21633747  0.74109174  1
  O  O183  1  0.86415929  0.71076894  0.07230565  1
  O  O184  1  0.86340421  0.71376185  0.40815204  1
  O  O185  1  0.86728818  0.72240425  0.74985562  1
  O  O186  1  0.26816273  0.14137636  0.07441125  1
  O  O187  1  0.27993112  0.12975639  0.42357602  1
  O  O188  1  0.27083650  0.13133523  0.74981840  1
  O  O189  1  0.28545254  0.62893377  0.09369429  1
  O  O190  1  0.27930028  0.63466320  0.42302440  1
  O  O191  1  0.28648808  0.63146058  0.75896618  1
  O  O192  1  0.77853395  0.13394472  0.09212329  1
  O  O193  1  0.77671239  0.13692060  0.41789401  1
  O  O194  1  0.78745261  0.13071738  0.76615629  1
  O  O195  1  0.78038568  0.62387829  0.09438521  1
  O  O196  1  0.78252565  0.62279192  0.42874198  1
  O  O197  1  0.78388178  0.62969413  0.76477268  1
  O  O198  1  0.13158721  0.28004226  0.25237596  1
  O  O199  1  0.12822575  0.27882353  0.59038054  1
  O  O200  1  0.12694511  0.28218200  0.92253037  1
  O  O201  1  0.13308250  0.77675683  0.25638299  1
  O  O202  1  0.13333073  0.78271119  0.58563214  1
  O  O203  1  0.13346327  0.77361925  0.92194719  1
  O  O204  1  0.63746566  0.28470404  0.25861302  1
  O  O205  1  0.62657718  0.28404417  0.58814610  1
  O  O206  1  0.62413105  0.29122549  0.93457569  1
  O  O207  1  0.63227798  0.77922119  0.26277462  1
  O  O208  1  0.63434478  0.77344963  0.58435110  1
  O  O209  1  0.63034896  0.77817109  0.92920807  1
  O  O210  1  0.21650134  0.37106705  0.23707612  1
  O  O211  1  0.21227464  0.36590160  0.56689066  1
  O  O212  1  0.21427282  0.37079831  0.90566311  1
  O  O213  1  0.22586554  0.86447845  0.24769181  1
  O  O214  1  0.22520054  0.87326268  0.57924424  1
  O  O215  1  0.22235081  0.86576880  0.91311520  1
  O  O216  1  0.71677620  0.37505619  0.23529143  1
  O  O217  1  0.70660492  0.37505138  0.56560632  1
  O  O218  1  0.71653174  0.37291602  0.91613765  1
  O  O219  1  0.72400573  0.86250461  0.24581544  1
  O  O220  1  0.72152383  0.86499664  0.57244219  1
  O  O221  1  0.72270314  0.86219637  0.91474862  1
  O  O222  1  0.40237114  0.14243303  0.15034119  1
  O  O223  1  0.41825010  0.12742414  0.48132437  1
  O  O224  1  0.40803280  0.13206502  0.81741904  1
  O  O225  1  0.42372071  0.63025526  0.15147352  1
  O  O226  1  0.41683156  0.63396428  0.48548388  1
  O  O227  1  0.42410991  0.63593124  0.82109427  1
  O  O228  1  0.91639010  0.13937201  0.15253584  1
  O  O229  1  0.91279420  0.13489147  0.48533518  1
  O  O230  1  0.92647147  0.12821915  0.81537358  1
  O  O231  1  0.91888750  0.62761782  0.15093608  1
  O  O232  1  0.92194545  0.63056740  0.48531775  1
  O  O233  1  0.92266375  0.63312860  0.82102694  1
  O  O234  1  0.36563857  0.08219591  0.01572272  1
  O  O235  1  0.36669321  0.07816776  0.34668785  1
  O  O236  1  0.36421109  0.08092221  0.68179787  1
  O  O237  1  0.37142537  0.57943228  0.01605988  1
  O  O238  1  0.36676184  0.58406598  0.34868996  1
  O  O239  1  0.37597680  0.59141579  0.68440811  1
  O  O240  1  0.86657943  0.08636377  0.01602636  1
  O  O241  1  0.86928506  0.08179577  0.34949520  1
  O  O242  1  0.86555334  0.07882739  0.68138909  1
  O  O243  1  0.86704902  0.57215606  0.01642453  1
  O  O244  1  0.86890681  0.57601995  0.35044868  1
  O  O245  1  0.86682191  0.58459993  0.68421528  1
  O  O246  1  0.07756150  0.37451834  0.18495819  1
  O  O247  1  0.07414660  0.36690430  0.51638435  1
  O  O248  1  0.07526999  0.37091788  0.84862283  1
  O  O249  1  0.08822829  0.86739872  0.18433453  1
  O  O250  1  0.08715279  0.87845005  0.52024975  1
  O  O251  1  0.08484835  0.86180276  0.84757297  1
  O  O252  1  0.57838138  0.36726148  0.17992451  1
  O  O253  1  0.56789700  0.37409226  0.51737269  1
  O  O254  1  0.57969131  0.36913355  0.84757454  1
  O  O255  1  0.58747750  0.85750638  0.17752187  1
  O  O256  1  0.58344335  0.86197264  0.51038870  1
  O  O257  1  0.58562622  0.86116269  0.84771184  1
  O  O258  1  0.13457822  0.41703751  0.31975245  1
  O  O259  1  0.13584881  0.41745137  0.65203881  1
  O  O260  1  0.13113174  0.42000207  0.98430204  1
  O  O261  1  0.13628742  0.91481849  0.32028368  1
  O  O262  1  0.13802984  0.91926239  0.65550544  1
  O  O263  1  0.13141880  0.91056663  0.98473485  1
  O  O264  1  0.62975840  0.42240897  0.31441206  1
  O  O265  1  0.62963560  0.42093839  0.65267905  1
  O  O266  1  0.62274498  0.43052318  0.98169252  1
  O  O267  1  0.63051195  0.91785146  0.31304404  1
  O  O268  1  0.63212753  0.91125430  0.64591971  1
  O  O269  1  0.63006661  0.91639222  0.98371040  1
  O  O270  1  0.02508801  0.21164080  0.10555287  1
  O  O271  1  0.03324377  0.19617994  0.43539363  1
  O  O272  1  0.03369149  0.20072263  0.76900266  1
  O  O273  1  0.03433230  0.67889450  0.09929767  1
  O  O274  1  0.03345719  0.68850954  0.43237073  1
  O  O275  1  0.02984616  0.69909905  0.76718553  1
  O  O276  1  0.53063265  0.19648185  0.10751770  1
  O  O277  1  0.52936588  0.20065721  0.44091549  1
  O  O278  1  0.52430013  0.20100169  0.76456681  1
  O  O279  1  0.53191844  0.69810858  0.10479590  1
  O  O280  1  0.52889291  0.69719809  0.43536420  1
  O  O281  1  0.53507148  0.70235075  0.77148840  1
  O  O282  1  0.30127961  0.46895816  0.06290241  1
  O  O283  1  0.29776556  0.46976453  0.39383036  1
  O  O284  1  0.30360282  0.47279142  0.73328307  1
  O  O285  1  0.31088136  0.96369297  0.06524822  1
  O  O286  1  0.30124629  0.96959725  0.39707803  1
  O  O287  1  0.30211258  0.97209831  0.73390492  1
  O  O288  1  0.79773458  0.46701210  0.06320437  1
  O  O289  1  0.79273791  0.46084276  0.38727427  1
  O  O290  1  0.79650200  0.46456693  0.73217511  1
  O  O291  1  0.79472604  0.97334502  0.06414035  1
  O  O292  1  0.79021722  0.97472029  0.39606730  1
  O  O293  1  0.80925095  0.96261796  0.72987153  1
  O  O294  1  0.46324696  0.31585580  0.23046742  1
  O  O295  1  0.46572799  0.28650302  0.55913150  1
  O  O296  1  0.46017234  0.31198196  0.89574902  1
  O  O297  1  0.47047231  0.79951075  0.23063264  1
  O  O298  1  0.47430251  0.80170502  0.56475874  1
  O  O299  1  0.47208741  0.80582116  0.89946870  1
  O  O300  1  0.97150914  0.30314852  0.23038151  1
  O  O301  1  0.97005475  0.28996303  0.55903394  1
  O  O302  1  0.96590637  0.29943450  0.89637908  1
  O  O303  1  0.96994574  0.79880088  0.23075650  1
  O  O304  1  0.97066482  0.80396941  0.56839809  1
  O  O305  1  0.97051510  0.79863675  0.89441587  1
  O  O306  1  0.20098991  0.03001389  0.27328670  1
  O  O307  1  0.19851448  0.03029673  0.60218369  1
  O  O308  1  0.19377872  0.02460481  0.93048013  1
  O  O309  1  0.19940024  0.53061297  0.26850605  1
  O  O310  1  0.19123858  0.53959578  0.60201358  1
  O  O311  1  0.20694617  0.53130344  0.93581099  1
  O  O312  1  0.71214778  0.02395406  0.27220950  1
  O  O313  1  0.69352313  0.02762605  0.59414891  1
  O  O314  1  0.71018913  0.02176912  0.94624343  1
  O  O315  1  0.70075833  0.53491634  0.27292596  1
  O  O316  1  0.69171325  0.54093083  0.60585541  1
  O  O317  1  0.70558043  0.53331627  0.93746601  1
  O  O318  1  0.09007913  0.10495288  0.05077208  1
  O  O319  1  0.08649125  0.08733247  0.36420324  1
  O  O320  1  0.08084499  0.08498320  0.69969101  1
  O  O321  1  0.08596853  0.57609128  0.02225308  1
  O  O322  1  0.09119634  0.58491663  0.36051242  1
  O  O323  1  0.09890190  0.59719639  0.70796561  1
  O  O324  1  0.58282714  0.08390118  0.04470611  1
  O  O325  1  0.58652515  0.09211105  0.37529156  1
  O  O326  1  0.58150682  0.08968165  0.71010213  1
  O  O327  1  0.58343101  0.58540339  0.03759104  1
  O  O328  1  0.58358484  0.58474826  0.36993607  1
  O  O329  1  0.59101787  0.59163724  0.70713011  1
  O  O330  1  0.41473591  0.41742300  0.13007014  1
  O  O331  1  0.40790203  0.40960238  0.45530091  1
  O  O332  1  0.40964618  0.40735492  0.79212650  1
  O  O333  1  0.41563788  0.90995066  0.13876538  1
  O  O334  1  0.41337266  0.91615952  0.46295322  1
  O  O335  1  0.41316353  0.91815252  0.80151451  1
  O  O336  1  0.91242329  0.41807160  0.12995849  1
  O  O337  1  0.90634087  0.41099970  0.45307785  1
  O  O338  1  0.90848902  0.40727800  0.79117183  1
  O  O339  1  0.90711717  0.91572328  0.12140061  1
  O  O340  1  0.90353712  0.92251333  0.45951075  1
  O  O341  1  0.91417719  0.90989679  0.80286380  1
  O  O342  1  0.41634125  0.42291739  0.30738325  1
  O  O343  1  0.40617885  0.39573395  0.61896484  1
  O  O344  1  0.41434252  0.41927654  0.97443451  1
  O  O345  1  0.41172660  0.90824102  0.29704482  1
  O  O346  1  0.41597529  0.91167415  0.62722981  1
  O  O347  1  0.41203600  0.91350159  0.96310729  1
  O  O348  1  0.92067066  0.41663323  0.29708514  1
  O  O349  1  0.91855639  0.40625109  0.61858755  1
  O  O350  1  0.91213771  0.41249760  0.96067923  1
  O  O351  1  0.91065181  0.90616451  0.29032165  1
  O  O352  1  0.91148745  0.91327729  0.62957893  1
  O  O353  1  0.91392975  0.90990618  0.95969772  1
  O  O354  1  0.09247419  0.09172169  0.21173621  1
  O  O355  1  0.08662307  0.08484095  0.53875201  1
  O  O356  1  0.08569304  0.08595558  0.86865899  1
  O  O357  1  0.08656695  0.58197236  0.20049541  1
  O  O358  1  0.08555945  0.59558759  0.53013380  1
  O  O359  1  0.09707010  0.58851826  0.87269025  1
  O  O360  1  0.60197607  0.08553721  0.21975977  1
  O  O361  1  0.58308778  0.08193877  0.53001000  1
  O  O362  1  0.58840439  0.06523686  0.89011392  1
  O  O363  1  0.58630096  0.58309152  0.20438305  1
  O  O364  1  0.58432176  0.59150373  0.53150240  1
  O  O365  1  0.59300707  0.58612659  0.87369821  1
  O  O366  1  0.13334880  0.23770626  0.06304265  1
  O  O367  1  0.14097245  0.22248983  0.39210038  1
  O  O368  1  0.13391328  0.21745076  0.71437164  1
  O  O369  1  0.14216231  0.71310765  0.05899289  1
  O  O370  1  0.14050201  0.72246426  0.39213199  1
  O  O371  1  0.13961735  0.73383457  0.73009146  1
  O  O372  1  0.63276669  0.21533378  0.05522774  1
  O  O373  1  0.63476144  0.22614457  0.39525659  1
  O  O374  1  0.62904362  0.21930539  0.71297674  1
  O  O375  1  0.64168926  0.71853096  0.06151598  1
  O  O376  1  0.63869666  0.71807450  0.39213819  1
  O  O377  1  0.64098951  0.72542971  0.72428906  1
  O  O378  1  0.28103782  0.36150167  0.10849172  1
  O  O379  1  0.27527636  0.36504203  0.44175015  1
  O  O380  1  0.27429719  0.36665047  0.77738054  1
  O  O381  1  0.27971058  0.85745166  0.10858823  1
  O  O382  1  0.27976793  0.86093612  0.44125671  1
  O  O383  1  0.27863115  0.86588347  0.77978999  1
  O  O384  1  0.77999783  0.36002554  0.10993993  1
  O  O385  1  0.77572186  0.35692855  0.43825843  1
  O  O386  1  0.78104000  0.37963571  0.80488435  1
  O  O387  1  0.77488383  0.86458778  0.10748864  1
  O  O388  1  0.77192681  0.86330926  0.43679142  1
  O  O389  1  0.77773558  0.85734288  0.77319847  1
  O  O390  1  0.35805446  0.28746662  0.27690724  1
  O  O391  1  0.36005961  0.26376381  0.60597609  1
  O  O392  1  0.35630889  0.28514212  0.94373048  1
  O  O393  1  0.36270083  0.77261346  0.27311951  1
  O  O394  1  0.36407678  0.77710278  0.60514829  1
  O  O395  1  0.36292168  0.77765303  0.93971768  1
  O  O396  1  0.86121617  0.28403538  0.27326991  1
  O  O397  1  0.86418176  0.27580565  0.60788154  1
  O  O398  1  0.86252526  0.27996500  0.94801078  1
  O  O399  1  0.86299322  0.77266372  0.27400085  1
  O  O400  1  0.86267752  0.77826733  0.61131440  1
  O  O401  1  0.86831633  0.77676156  0.94469018  1
  O  O402  1  0.22644924  0.13310253  0.22468809  1
  O  O403  1  0.21970413  0.14008366  0.55957053  1
  O  O404  1  0.22017666  0.13542844  0.89075631  1
  O  O405  1  0.22065670  0.63925719  0.22489759  1
  O  O406  1  0.22187195  0.63800099  0.55048511  1
  O  O407  1  0.23098776  0.64069263  0.89405111  1
  O  O408  1  0.73283245  0.13472564  0.23044887  1
  O  O409  1  0.71625318  0.13321427  0.54571268  1
  O  O410  1  0.71225250  0.12966965  0.89763153  1
  O  O411  1  0.71884217  0.63962233  0.22330309  1
  O  O412  1  0.72061333  0.63774636  0.55195923  1
  O  O413  1  0.72513317  0.64486974  0.89640058  1
  O  O414  1  0.49004523  0.33054981  0.02868286  1
  O  O415  1  0.49083764  0.33506562  0.36371701  1
  O  O416  1  0.48899277  0.32341801  0.69325506  1
  O  O417  1  0.49088518  0.83416818  0.03138053  1
  O  O418  1  0.49170182  0.82988351  0.36316868  1
  O  O419  1  0.49207383  0.83339261  0.69722133  1
  O  O420  1  0.99320250  0.34038781  0.03179678  1
  O  O421  1  0.99204272  0.33382219  0.36392665  1
  O  O422  1  0.99418477  0.32964353  0.69342337  1
  O  O423  1  1.00083041  0.83808920  0.02873269  1
  O  O424  1  0.99120904  0.83369806  0.36522902  1
  O  O425  1  0.99069837  0.83913581  0.70195528  1
  O  O426  1  0.15989140  0.00296677  0.13872208  1
  O  O427  1  0.16674290  0.01062631  0.46932395  1
  O  O428  1  0.16214982  0.00764914  0.79888078  1
  O  O429  1  0.16966103  0.50906716  0.13509452  1
  O  O430  1  0.16150179  0.50778625  0.46813415  1
  O  O431  1  0.17576641  0.51192988  0.80297514  1
  O  O432  1  0.67121655  0.00775652  0.13921758  1
  O  O433  1  0.65747562  0.00290157  0.45952628  1
  O  O434  1  0.66241707  -0.00186469  0.81091982  1
  O  O435  1  0.66614580  0.50704539  0.13788923  1
  O  O436  1  0.66070107  0.50594067  0.47027897  1
  O  O437  1  0.67587319  0.51425796  0.80569370  1
  O  O438  1  0.01023140  0.17234881  0.30304950  1
  O  O439  1  0.00136459  0.16245355  0.63329409  1
  O  O440  1  0.00730966  0.17377320  0.97224535  1
  O  O441  1  0.01118709  0.66709746  0.30044762  1
  O  O442  1  0.01467969  0.67173785  0.63662346  1
  O  O443  1  0.01171469  0.66585916  0.96845206  1
  O  O444  1  0.50376746  0.16788485  0.30653840  1
  O  O445  1  0.50156559  0.15468584  0.62893794  1
  O  O446  1  0.49978730  0.15531310  0.97177358  1
  O  O447  1  0.50819390  0.66523084  0.30281492  1
  O  O448  1  0.51000727  0.66768770  0.63806767  1
  O  O449  1  0.51098398  0.66818094  0.97170923  1
  O  O450  1  0.33387776  0.49208896  0.19702456  1
  O  O451  1  0.33885478  0.49612145  0.52833722  1
  O  O452  1  0.34208282  0.49234895  0.86697923  1
  O  O453  1  0.32993057  0.98846732  0.19659761  1
  O  O454  1  0.33185411  0.99109105  0.53001365  1
  O  O455  1  0.33393011  0.99601639  0.86788198  1
  O  O456  1  0.83252355  0.49191048  0.19769996  1
  O  O457  1  0.82773846  0.49052398  0.52144025  1
  O  O458  1  0.85510383  0.50592891  0.86922929  1
  O  O459  1  0.83457670  0.99219885  0.19828332  1
  O  O460  1  0.82133526  0.99255794  0.52919516  1
  O  O461  1  0.82918598  0.98778559  0.86218898  1
