# generated using pymatgen
data_Na31Fe20(SO4)36
_symmetry_space_group_name_H-M   'P 1'
_cell_length_a   18.08336966
_cell_length_b   18.07909386
_cell_length_c   19.72390145
_cell_angle_alpha   107.58914421
_cell_angle_beta   107.56373622
_cell_angle_gamma   90.72209470
_symmetry_Int_Tables_number   1
_chemical_formula_structural   Na31Fe20(SO4)36
_chemical_formula_sum   'Na62 Fe40 S72 O288'
_cell_volume   5821.97878016
_cell_formula_units_Z   2
loop_
 _symmetry_equiv_pos_site_id
 _symmetry_equiv_pos_as_xyz
  1  'x, y, z'
loop_
 _atom_site_type_symbol
 _atom_site_label
 _atom_site_symmetry_multiplicity
 _atom_site_fract_x
 _atom_site_fract_y
 _atom_site_fract_z
 _atom_site_occupancy
  Na  Na0  1  0.14254705  0.35980843  0.08973498  1
  Na  Na1  1  0.12047639  0.35527492  0.41225585  1
  Na  Na2  1  0.12240323  0.36913769  0.74483803  1
  Na  Na3  1  0.14471533  0.86274457  0.08262303  1
  Na  Na4  1  0.16563560  0.84460021  0.42714196  1
  Na  Na5  1  0.13282211  0.85534161  0.73082150  1
  Na  Na6  1  0.63394242  0.36300204  0.08444432  1
  Na  Na7  1  0.62956544  0.37481364  0.41844221  1
  Na  Na8  1  0.62965070  0.36223573  0.74254257  1
  Na  Na9  1  0.63559410  0.87763033  0.08286693  1
  Na  Na10  1  0.63598460  0.87047955  0.42567101  1
  Na  Na11  1  0.63695699  0.86377393  0.74727955  1
  Na  Na12  1  0.33724331  0.12953416  0.21917839  1
  Na  Na13  1  0.36861788  0.13336633  0.58207922  1
  Na  Na14  1  0.36190864  0.13526097  0.91780096  1
  Na  Na15  1  0.36564111  0.66457543  0.28310861  1
  Na  Na16  1  0.32783544  0.65190233  0.57005052  1
  Na  Na17  1  0.36323533  0.63555986  0.91110344  1
  Na  Na18  1  0.86909652  0.13800762  0.25751870  1
  Na  Na19  1  0.86753871  0.13874543  0.58025978  1
  Na  Na20  1  0.86882331  0.12999587  0.91821635  1
  Na  Na21  1  0.86571960  0.62859233  0.24434026  1
  Na  Na22  1  0.87878347  0.63187697  0.58225031  1
  Na  Na23  1  0.87006186  0.62603541  0.91373363  1
  Na  Na24  1  0.98730504  0.51848851  0.41684917  1
  Na  Na25  1  0.99988458  0.50093143  0.08795037  1
  Na  Na26  1  1.00729304  0.06900310  0.45068409  1
  Na  Na27  1  0.48886592  0.51970616  0.72786146  1
  Na  Na28  1  0.44690464  0.00856349  0.06309903  1
  Na  Na29  1  0.48536552  0.51068847  0.09169025  1
  Na  Na30  1  0.48946965  0.00801594  0.74797957  1
  Na  Na31  1  0.49215258  0.01195839  0.41511632  1
  Na  Na32  1  1.01902130  -0.00607564  0.06823465  1
  Na  Na33  1  0.51145531  0.94926134  0.57017172  1
  Na  Na34  1  0.50781668  0.49127468  0.91392902  1
  Na  Na35  1  0.51510917  0.99821116  0.24909727  1
  Na  Na36  1  0.52300154  0.98599186  0.92414527  1
  Na  Na37  1  -0.03319178  1.01631462  0.63875555  1
  Na  Na38  1  0.01135458  0.98395229  0.25033844  1
  Na  Na39  1  0.00740103  0.44998983  0.56808280  1
  Na  Na40  1  0.05727506  0.99409547  0.91466503  1
  Na  Na41  1  0.47232102  0.51164168  0.28990104  1
  Na  Na42  1  0.74242240  0.23589878  0.00299007  1
  Na  Na43  1  0.75419348  0.75474754  0.33406169  1
  Na  Na44  1  0.75830489  0.25584133  0.66175212  1
  Na  Na45  1  0.23557873  0.24170975  0.67214987  1
  Na  Na46  1  0.75933673  0.26031770  0.32884845  1
  Na  Na47  1  0.24897335  0.25046782  0.32227303  1
  Na  Na48  1  0.75761475  0.75579530  -0.00624163  1
  Na  Na49  1  0.26079778  0.76618366  -0.01118400  1
  Na  Na50  1  0.76487653  0.76452834  0.65913862  1
  Na  Na51  1  0.23602906  0.22542828  0.01671725  1
  Na  Na52  1  0.24862773  0.74460514  0.17786361  1
  Na  Na53  1  0.75378233  0.24795855  0.82950697  1
  Na  Na54  1  0.76022830  0.76103980  0.82882116  1
  Na  Na55  1  0.75197283  0.75408609  0.16113316  1
  Na  Na56  1  0.74154191  0.23410741  0.16603840  1
  Na  Na57  1  0.24029420  0.24242178  0.84030331  1
  Na  Na58  1  0.23948616  0.24598430  0.50142104  1
  Na  Na59  1  0.76893005  0.26462750  0.49207860  1
  Na  Na60  1  0.76095216  0.76307110  0.49906629  1
  Na  Na61  1  0.25881802  0.76832997  0.81800767  1
  Fe  Fe62  1  0.46311851  0.31018966  0.45164820  1
  Fe  Fe63  1  0.96855644  0.80515812  0.78480668  1
  Fe  Fe64  1  0.46544696  0.30473670  0.78250397  1
  Fe  Fe65  1  0.96227362  0.30739937  0.11925669  1
  Fe  Fe66  1  0.46559926  0.80893410  0.11697815  1
  Fe  Fe67  1  0.46300483  0.80873431  0.78082213  1
  Fe  Fe68  1  0.46442721  0.31192844  0.12110637  1
  Fe  Fe69  1  0.97412894  0.80011578  0.46135795  1
  Fe  Fe70  1  0.96663473  0.31099455  0.78881543  1
  Fe  Fe71  1  0.96851916  0.80112761  0.12175853  1
  Fe  Fe72  1  0.68892668  0.53871341  0.71125924  1
  Fe  Fe73  1  0.19219070  0.53519079  0.04760000  1
  Fe  Fe74  1  0.69093795  0.54080483  0.38235395  1
  Fe  Fe75  1  0.18563687  0.53233601  0.38531693  1
  Fe  Fe76  1  0.19377169  0.03468104  0.70942731  1
  Fe  Fe77  1  0.70467922  0.02513493  0.70867619  1
  Fe  Fe78  1  0.19424477  0.03288085  0.38267135  1
  Fe  Fe79  1  0.69086813  0.53399652  0.04752007  1
  Fe  Fe80  1  0.18893664  0.53768377  0.71267402  1
  Fe  Fe81  1  0.69765676  0.03404743  0.38292030  1
  Fe  Fe82  1  0.53509749  0.19230559  0.21266538  1
  Fe  Fe83  1  0.53236532  0.70004990  0.21824967  1
  Fe  Fe84  1  0.53609209  0.69167994  0.87886603  1
  Fe  Fe85  1  0.53643665  0.19555038  0.54749071  1
  Fe  Fe86  1  0.03485299  0.18988661  0.87838705  1
  Fe  Fe87  1  0.03973159  0.69099947  0.22274486  1
  Fe  Fe88  1  0.53591694  0.19149114  0.88135054  1
  Fe  Fe89  1  0.03448025  0.18940198  0.21256831  1
  Fe  Fe90  1  0.03636850  0.68253817  0.87624166  1
  Fe  Fe91  1  0.52616540  0.69601627  0.54285146  1
  Fe  Fe92  1  0.30716661  0.46463487  0.95123273  1
  Fe  Fe93  1  0.30347969  0.46400390  0.61603310  1
  Fe  Fe94  1  0.81248871  0.96646056  0.29131707  1
  Fe  Fe95  1  0.80453211  0.47144520  0.62113620  1
  Fe  Fe96  1  0.31070089  0.96007234  0.61266398  1
  Fe  Fe97  1  0.30723293  0.96582923  0.28322179  1
  Fe  Fe98  1  0.30120712  0.46220714  0.28816862  1
  Fe  Fe99  1  0.80590243  0.46228668  0.95139621  1
  Fe  Fe100  1  0.80311918  0.96980061  0.96064411  1
  Fe  Fe101  1  0.80480923  0.46516382  0.28470171  1
  S  S102  1  0.36162042  0.14669199  0.08231955  1
  S  S103  1  0.36012502  0.14209212  0.41492468  1
  S  S104  1  0.36272174  0.14157280  0.74943847  1
  S  S105  1  0.36060668  0.64116048  0.08182637  1
  S  S106  1  0.35696386  0.63211943  0.41931199  1
  S  S107  1  0.36080370  0.63860611  0.74879933  1
  S  S108  1  0.85951742  0.14107467  0.08406144  1
  S  S109  1  0.85802277  0.14322819  0.41885799  1
  S  S110  1  0.86064603  0.14448976  0.74996399  1
  S  S111  1  0.85891556  0.63693452  0.08284352  1
  S  S112  1  0.85591484  0.64073126  0.41161202  1
  S  S113  1  0.85766525  0.64267003  0.75254500  1
  S  S114  1  0.13459704  0.36052901  0.24752332  1
  S  S115  1  0.14580758  0.35778246  0.58908211  1
  S  S116  1  0.14285527  0.35958096  0.92072902  1
  S  S117  1  0.14180034  0.85722261  0.25045535  1
  S  S118  1  0.14317633  0.86051709  0.58098415  1
  S  S119  1  0.13815641  0.85157741  0.91773184  1
  S  S120  1  0.63735404  0.36268164  0.25062736  1
  S  S121  1  0.63879525  0.36229602  0.58218207  1
  S  S122  1  0.63914183  0.35810732  0.91586648  1
  S  S123  1  0.64202219  0.86152896  0.24854497  1
  S  S124  1  0.64358301  0.85338881  0.58648316  1
  S  S125  1  0.64048710  0.85742112  0.91596168  1
  S  S126  1  0.06160771  0.16949701  0.04188045  1
  S  S127  1  0.07077425  0.16354336  0.37155254  1
  S  S128  1  0.06617261  0.17564913  0.71177080  1
  S  S129  1  0.06745561  0.66787058  0.04499764  1
  S  S130  1  0.06181620  0.66345083  0.37197537  1
  S  S131  1  0.06618972  0.66791766  0.71215500  1
  S  S132  1  0.56220540  0.16947692  0.04198998  1
  S  S133  1  0.56985466  0.17213461  0.37713458  1
  S  S134  1  0.56642492  0.16684903  0.70753273  1
  S  S135  1  0.56548747  0.66719764  0.04073319  1
  S  S136  1  0.56914219  0.67361763  0.37618048  1
  S  S137  1  0.56827127  0.67420069  0.71093276  1
  S  S138  1  0.33227708  0.43660074  0.12635516  1
  S  S139  1  0.32079148  0.42347572  0.45426249  1
  S  S140  1  0.33546534  0.43284759  0.79221422  1
  S  S141  1  0.33699457  0.93311302  0.12446436  1
  S  S142  1  0.33916985  0.94160019  0.45525261  1
  S  S143  1  0.33767468  0.94028043  0.79085366  1
  S  S144  1  0.82407361  0.42983054  0.11863215  1
  S  S145  1  0.82701338  0.44055523  0.45478869  1
  S  S146  1  0.82137423  0.43062066  0.78945890  1
  S  S147  1  0.83430347  0.92793830  0.12760005  1
  S  S148  1  0.83534767  0.92843582  0.45869127  1
  S  S149  1  0.83371777  0.93252260  0.79874362  1
  S  S150  1  0.42921111  0.32541701  0.28980002  1
  S  S151  1  0.43234050  0.32941053  0.62225488  1
  S  S152  1  0.43556983  0.33449376  0.95758283  1
  S  S153  1  0.44078099  0.83997108  0.29151420  1
  S  S154  1  0.43538731  0.83232453  0.62587477  1
  S  S155  1  0.43931175  0.82926457  0.95278896  1
  S  S156  1  0.92782528  0.33103855  0.28794636  1
  S  S157  1  0.92621659  0.34052639  0.62987353  1
  S  S158  1  0.93292833  0.33266838  0.95854716  1
  S  S159  1  0.93202922  0.82283505  0.29197608  1
  S  S160  1  0.93240921  0.82542589  0.62133049  1
  S  S161  1  0.93084768  0.82718271  0.96018659  1
  S  S162  1  0.16224718  0.05889265  0.20769583  1
  S  S163  1  0.17977096  0.07086579  0.54917606  1
  S  S164  1  0.17000011  0.07002908  0.87130713  1
  S  S165  1  0.17329062  0.56725241  0.20875656  1
  S  S166  1  0.15697060  0.55161229  0.53911755  1
  S  S167  1  0.17672986  0.56745905  0.88091319  1
  S  S168  1  0.67124086  0.06713471  0.21132869  1
  S  S169  1  0.66837616  0.06893129  0.54265102  1
  S  S170  1  0.67038772  0.06595045  0.87141383  1
  S  S171  1  0.66566023  0.56892978  0.20723651  1
  S  S172  1  0.67187072  0.57520590  0.54502216  1
  S  S173  1  0.66512172  0.56384476  0.87397614  1
  O  O174  1  0.37402806  0.22794659  0.07666182  1
  O  O175  1  0.36859609  0.22144692  0.40795523  1
  O  O176  1  0.37050590  0.21986153  0.73870165  1
  O  O177  1  0.37062011  0.71766400  0.06921982  1
  O  O178  1  0.36244827  0.70489149  0.40386191  1
  O  O179  1  0.36974149  0.71923460  0.74616211  1
  O  O180  1  0.86930563  0.21800275  0.07007497  1
  O  O181  1  0.85738265  0.21725453  0.40299512  1
  O  O182  1  0.86584167  0.22840959  0.75101296  1
  O  O183  1  0.86710626  0.71763509  0.07843302  1
  O  O184  1  0.87232351  0.72201556  0.40827689  1
  O  O185  1  0.86511725  0.72396994  0.74917473  1
  O  O186  1  0.28666756  0.14030799  0.09452226  1
  O  O187  1  0.28299529  0.13300254  0.42604244  1
  O  O188  1  0.28270675  0.13312049  0.75496643  1
  O  O189  1  0.28124158  0.63296001  0.08837516  1
  O  O190  1  0.27943225  0.61609129  0.42865455  1
  O  O191  1  0.28446857  0.62825614  0.76149547  1
  O  O192  1  0.78135483  0.13172785  0.08898774  1
  O  O193  1  0.77913281  0.12742344  0.42811515  1
  O  O194  1  0.77936542  0.12946082  0.75238320  1
  O  O195  1  0.78059872  0.62790166  0.09325933  1
  O  O196  1  0.77433848  0.63988923  0.41597353  1
  O  O197  1  0.77944730  0.63156622  0.76278441  1
  O  O198  1  0.12491986  0.28128344  0.25553726  1
  O  O199  1  0.13381329  0.28322708  0.60057700  1
  O  O200  1  0.13381571  0.28058131  0.92880852  1
  O  O201  1  0.13359791  0.77536650  0.25037638  1
  O  O202  1  0.13947846  0.79036395  0.60042831  1
  O  O203  1  0.12210296  0.77269847  0.92682269  1
  O  O204  1  0.62936525  0.28322134  0.25847756  1
  O  O205  1  0.63138297  0.28493903  0.59506419  1
  O  O206  1  0.63017297  0.27997066  0.92573926  1
  O  O207  1  0.63242046  0.78233427  0.25634122  1
  O  O208  1  0.62540850  0.77802047  0.59926637  1
  O  O209  1  0.63345684  0.77645662  0.92221829  1
  O  O210  1  0.21326202  0.36902798  0.23867529  1
  O  O211  1  0.22914496  0.36568082  0.58696010  1
  O  O212  1  0.22259825  0.36857595  0.91294385  1
  O  O213  1  0.21842840  0.86943860  0.23860874  1
  O  O214  1  0.21675708  0.87438510  0.56429724  1
  O  O215  1  0.21738422  0.85452497  0.91334884  1
  O  O216  1  0.71589923  0.37027362  0.24061483  1
  O  O217  1  0.71725026  0.37078674  0.57302777  1
  O  O218  1  0.71834536  0.36622694  0.90896955  1
  O  O219  1  0.72158879  0.86976078  0.24191053  1
  O  O220  1  0.72465223  0.85648469  0.58671245  1
  O  O221  1  0.72162711  0.86730944  0.91191562  1
  O  O222  1  0.42458213  0.13593545  0.14934534  1
  O  O223  1  0.42186886  0.13338788  0.48153004  1
  O  O224  1  0.41982891  0.13841384  0.82075920  1
  O  O225  1  0.41918758  0.63618305  0.15174757  1
  O  O226  1  0.41658377  0.63050222  0.49032905  1
  O  O227  1  0.42321535  0.62501571  0.81307166  1
  O  O228  1  0.91849765  0.13814374  0.15484469  1
  O  O229  1  0.91782177  0.14270038  0.48753767  1
  O  O230  1  0.91601835  0.13717009  0.82020452  1
  O  O231  1  0.91970796  0.62454446  0.14687394  1
  O  O232  1  0.91094840  0.62402009  0.47436563  1
  O  O233  1  0.91724834  0.63229912  0.81872496  1
  O  O234  1  0.36943725  0.09048770  0.01445701  1
  O  O235  1  0.36684721  0.08369304  0.34593866  1
  O  O236  1  0.37707613  0.08154764  0.68595053  1
  O  O237  1  0.37173642  0.57880638  0.01675574  1
  O  O238  1  0.36881225  0.56697615  0.35438469  1
  O  O239  1  0.36610087  0.58177811  0.67807866  1
  O  O240  1  0.87250759  0.07963129  0.01950776  1
  O  O241  1  0.86912725  0.07983237  0.35305086  1
  O  O242  1  0.87324706  0.09307814  0.68272835  1
  O  O243  1  0.86246116  0.58048941  0.01168785  1
  O  O244  1  0.85786337  0.58392892  0.33915924  1
  O  O245  1  0.86220843  0.58751608  0.68193988  1
  O  O246  1  0.07621751  0.36809767  0.17907334  1
  O  O247  1  0.09243138  0.36681085  0.52057553  1
  O  O248  1  0.08476720  0.36764811  0.85287322  1
  O  O249  1  0.07904618  0.87032738  0.18641635  1
  O  O250  1  0.07948026  0.85862772  0.50828118  1
  O  O251  1  0.08208554  0.85968004  0.84654073  1
  O  O252  1  0.57847611  0.37110992  0.18286285  1
  O  O253  1  0.57953245  0.36567671  0.51291776  1
  O  O254  1  0.58123724  0.36518185  0.84673755  1
  O  O255  1  0.58420576  0.86890199  0.17966274  1
  O  O256  1  0.58903702  0.86236768  0.51822882  1
  O  O257  1  0.58413349  0.86335348  0.84519677  1
  O  O258  1  0.12672674  0.41903692  0.31525175  1
  O  O259  1  0.13772204  0.42220075  0.65610675  1
  O  O260  1  0.13670951  0.41819608  0.98965689  1
  O  O261  1  0.13641751  0.91140334  0.32188876  1
  O  O262  1  0.13117424  0.92840786  0.64166094  1
  O  O263  1  0.12569052  0.91169212  0.98173371  1
  O  O264  1  0.63040357  0.42142969  0.31870401  1
  O  O265  1  0.63044561  0.42311164  0.64880303  1
  O  O266  1  0.62849012  0.41820775  0.98215154  1
  O  O267  1  0.63230498  0.92122305  0.31541949  1
  O  O268  1  0.63377462  0.91732999  0.65287181  1
  O  O269  1  0.62820465  0.91516250  0.98034385  1
  O  O270  1  0.02596832  0.20275921  0.10371986  1
  O  O271  1  0.04339565  0.18762626  0.43568493  1
  O  O272  1  0.03218577  0.20671095  0.77646703  1
  O  O273  1  0.02744606  0.69740132  0.10389370  1
  O  O274  1  0.02576434  0.69963508  0.43137795  1
  O  O275  1  0.02669691  0.69855370  0.77308142  1
  O  O276  1  0.53330561  0.21118942  0.10646064  1
  O  O277  1  0.53281419  0.20230694  0.43773730  1
  O  O278  1  0.53068396  0.19892834  0.76969752  1
  O  O279  1  0.53175212  0.69973789  0.10285684  1
  O  O280  1  0.53617065  0.69425253  0.43746946  1
  O  O281  1  0.52920395  0.70245435  0.77072567  1
  O  O282  1  0.30350228  0.47557212  0.06711378  1
  O  O283  1  0.28663876  0.45650711  0.39161939  1
  O  O284  1  0.30792987  0.46934260  0.73222916  1
  O  O285  1  0.31868846  0.96614933  0.06415038  1
  O  O286  1  0.29790003  0.97509755  0.39249644  1
  O  O287  1  0.30396085  0.96721629  0.72259050  1
  O  O288  1  0.79228005  0.46703490  0.05753470  1
  O  O289  1  0.79042031  0.47844980  0.39467674  1
  O  O290  1  0.79232302  0.46997036  0.73067093  1
  O  O291  1  0.81094803  0.96331356  0.06786549  1
  O  O292  1  0.80329676  0.95927906  0.39273394  1
  O  O293  1  0.80828542  0.97081615  0.74065145  1
  O  O294  1  0.46839178  0.29874881  0.23047876  1
  O  O295  1  0.47062731  0.30157833  0.56237133  1
  O  O296  1  0.47206173  0.30473033  0.89672221  1
  O  O297  1  0.47074343  0.80398255  0.22477162  1
  O  O298  1  0.46705933  0.80095207  0.56358737  1
  O  O299  1  0.47549800  0.79249522  0.89213563  1
  O  O300  1  0.96038454  0.30227339  0.22339049  1
  O  O301  1  0.95829863  0.32588494  0.56875396  1
  O  O302  1  0.97091246  0.30514548  0.89923907  1
  O  O303  1  0.97124052  0.79205197  0.23246575  1
  O  O304  1  0.96930958  0.79861527  0.55995652  1
  O  O305  1  0.96431028  0.80071525  0.89795658  1
  O  O306  1  0.19749116  0.02839800  0.27325654  1
  O  O307  1  0.21962720  0.03434324  0.60853886  1
  O  O308  1  0.18921342  0.03622786  0.93135518  1
  O  O309  1  0.19992182  0.53277938  0.27094056  1
  O  O310  1  0.20423364  0.52666006  0.60601340  1
  O  O311  1  0.20638312  0.52839810  0.94112098  1
  O  O312  1  0.70388649  0.03406547  0.27574743  1
  O  O313  1  0.68642287  0.03033360  0.60041332  1
  O  O314  1  0.69987767  0.03070290  0.93121760  1
  O  O315  1  0.69467613  0.53172663  0.26697970  1
  O  O316  1  0.70152760  0.53459349  0.60414082  1
  O  O317  1  0.69411780  0.52694105  0.93473781  1
  O  O318  1  0.07170290  0.08731085  0.03475066  1
  O  O319  1  0.08741275  0.07820540  0.35886202  1
  O  O320  1  0.09152536  0.09712343  0.71115413  1
  O  O321  1  0.08565346  0.58711124  0.04357744  1
  O  O322  1  0.07908169  0.58398835  0.37634910  1
  O  O323  1  0.09019118  0.58990748  0.71660838  1
  O  O324  1  0.56621118  0.08760039  0.03776839  1
  O  O325  1  0.58722873  0.08984730  0.37296040  1
  O  O326  1  0.57974134  0.08466018  0.70103397  1
  O  O327  1  0.57994021  0.58387157  0.03587056  1
  O  O328  1  0.58868787  0.59039241  0.36138722  1
  O  O329  1  0.58471434  0.59190670  0.70746419  1
  O  O330  1  0.41555532  0.42178567  0.13118734  1
  O  O331  1  0.39991728  0.40348593  0.45442792  1
  O  O332  1  0.41793698  0.41411222  0.79762768  1
  O  O333  1  0.42254881  0.91600805  0.14045359  1
  O  O334  1  0.42135466  0.94023287  0.45759770  1
  O  O335  1  0.41976492  0.91843383  0.79173069  1
  O  O336  1  0.90481580  0.41372825  0.12128673  1
  O  O337  1  0.90665149  0.42886414  0.45471835  1
  O  O338  1  0.90019681  0.40893602  0.79493986  1
  O  O339  1  0.91610097  0.90556137  0.13776516  1
  O  O340  1  0.90932843  0.89348559  0.45367753  1
  O  O341  1  0.91488671  0.91165069  0.80741747  1
  O  O342  1  0.40499221  0.40416321  0.29077182  1
  O  O343  1  0.41250433  0.41028115  0.62840629  1
  O  O344  1  0.42003391  0.41780756  0.96338483  1
  O  O345  1  0.42205457  0.92160248  0.29245962  1
  O  O346  1  0.42037643  0.91620822  0.62893769  1
  O  O347  1  0.43087085  0.91024809  0.95489669  1
  O  O348  1  0.90538230  0.41227370  0.29229618  1
  O  O349  1  0.90344081  0.42246354  0.64723698  1
  O  O350  1  0.91328524  0.41439703  0.96497541  1
  O  O351  1  0.91880362  0.90526675  0.29731363  1
  O  O352  1  0.90784631  0.90242812  0.62667865  1
  O  O353  1  0.90927560  0.90808824  0.96941468  1
  O  O354  1  0.07919882  0.07529528  0.20379373  1
  O  O355  1  0.10424796  0.08922833  0.55718576  1
  O  O356  1  0.08627032  0.08967489  0.85799980  1
  O  O357  1  0.09163214  0.58720504  0.20122983  1
  O  O358  1  0.07521444  0.54802489  0.53742994  1
  O  O359  1  0.09677352  0.58479031  0.87805893  1
  O  O360  1  0.59012933  0.08704153  0.21137887  1
  O  O361  1  0.58560470  0.08972749  0.52909191  1
  O  O362  1  0.58692231  0.08287224  0.86649018  1
  O  O363  1  0.58512896  0.59051569  0.20269007  1
  O  O364  1  0.59525237  0.59935835  0.54645130  1
  O  O365  1  0.58220144  0.57999505  0.86893369  1
  O  O366  1  0.13407499  0.21927008  0.05917299  1
  O  O367  1  0.14241241  0.21210009  0.38076376  1
  O  O368  1  0.13589008  0.23146907  0.72921919  1
  O  O369  1  0.13915338  0.72050142  0.06453713  1
  O  O370  1  0.13098832  0.71098264  0.37824068  1
  O  O371  1  0.13585642  0.72275769  0.73094360  1
  O  O372  1  0.63817128  0.21337653  0.05466005  1
  O  O373  1  0.64112337  0.22398030  0.39346633  1
  O  O374  1  0.63872215  0.21787402  0.72457467  1
  O  O375  1  0.63832692  0.71510415  0.05424072  1
  O  O376  1  0.63845293  0.72701972  0.38974547  1
  O  O377  1  0.64178785  0.72427115  0.73173514  1
  O  O378  1  0.28205731  0.36443732  0.10780945  1
  O  O379  1  0.26889002  0.35325544  0.44246425  1
  O  O380  1  0.28418572  0.36255606  0.77921396  1
  O  O381  1  0.28702971  0.85996431  0.10903225  1
  O  O382  1  0.29812446  0.86632318  0.44165088  1
  O  O383  1  0.28765748  0.87138935  0.78220263  1
  O  O384  1  0.77251725  0.35786513  0.10180319  1
  O  O385  1  0.77596752  0.36739637  0.43666200  1
  O  O386  1  0.76523256  0.36125532  0.77211843  1
  O  O387  1  0.77903597  0.85783337  0.11033077  1
  O  O388  1  0.77550823  0.86538436  0.44891602  1
  O  O389  1  0.77881297  0.86107027  0.77915140  1
  O  O390  1  0.36227886  0.27005456  0.27606390  1
  O  O391  1  0.36355243  0.27475198  0.60575306  1
  O  O392  1  0.36371313  0.28454084  0.94127372  1
  O  O393  1  0.36896795  0.79110878  0.27848350  1
  O  O394  1  0.36511378  0.78700488  0.61970528  1
  O  O395  1  0.36513523  0.78088075  0.93547152  1
  O  O396  1  0.85608677  0.27763968  0.27049017  1
  O  O397  1  0.85653448  0.28350607  0.61190507  1
  O  O398  1  0.86203354  0.27956566  0.94158903  1
  O  O399  1  0.85727616  0.77291206  0.26986268  1
  O  O400  1  0.86543961  0.76605069  0.60383310  1
  O  O401  1  0.86141150  0.77174950  0.94495539  1
  O  O402  1  0.20953734  0.13190723  0.22123240  1
  O  O403  1  0.23183158  0.14118292  0.56061860  1
  O  O404  1  0.22254114  0.14329145  0.88983152  1
  O  O405  1  0.22681959  0.63530912  0.22109985  1
  O  O406  1  0.19279285  0.62753138  0.54658044  1
  O  O407  1  0.23021168  0.63864095  0.90016382  1
  O  O408  1  0.72170529  0.14021590  0.22748634  1
  O  O409  1  0.72303286  0.13913316  0.56241527  1
  O  O410  1  0.71931342  0.13961457  0.88658211  1
  O  O411  1  0.71940687  0.63817767  0.22106715  1
  O  O412  1  0.72987077  0.64123358  0.55970117  1
  O  O413  1  0.71629084  0.63551003  0.89110755  1
  O  O414  1  0.49427490  0.33814386  0.03078251  1
  O  O415  1  0.49077635  0.33358800  0.36317474  1
  O  O416  1  0.49261087  0.33256017  0.69506253  1
  O  O417  1  0.49481966  0.82795018  0.02662478  1
  O  O418  1  0.50360711  0.84527813  0.35990454  1
  O  O419  1  0.49848504  0.84024400  0.69920772  1
  O  O420  1  0.99141436  0.33676718  0.03215072  1
  O  O421  1  0.98772749  0.33381007  0.35705008  1
  O  O422  1  0.98618306  0.33682575  0.70074898  1
  O  O423  1  0.99215351  0.82940360  0.03222692  1
  O  O424  1  0.98704846  0.81831626  0.36327363  1
  O  O425  1  0.99238805  0.82594331  0.69335745  1
  O  O426  1  0.15805450  -0.00273071  0.13811463  1
  O  O427  1  0.17062526  0.01234939  0.47366825  1
  O  O428  1  0.17354257  0.01252217  0.79951400  1
  O  O429  1  0.16850809  0.50470150  0.13640937  1
  O  O430  1  0.16191642  0.49185631  0.46848090  1
  O  O431  1  0.17765030  0.50965062  0.80924728  1
  O  O432  1  0.66775724  0.00811691  0.14156314  1
  O  O433  1  0.66988611  0.01005659  0.47052204  1
  O  O434  1  0.66699487  0.00886002  0.79740059  1
  O  O435  1  0.65988387  0.50796059  0.13368706  1
  O  O436  1  0.66427029  0.51489871  0.47093527  1
  O  O437  1  0.66162830  0.50610669  0.80056816  1
  O  O438  1  0.00839952  0.16376729  0.30070682  1
  O  O439  1  0.00431917  0.16863540  0.64230967  1
  O  O440  1  0.00436691  0.17258134  0.96937434  1
  O  O441  1  0.00094252  0.65260230  0.29650662  1
  O  O442  1  0.00830375  0.65931012  0.64035075  1
  O  O443  1  0.01081639  0.66468482  0.97136654  1
  O  O444  1  0.51065941  0.16826236  0.30448084  1
  O  O445  1  0.50812532  0.16976725  0.63619536  1
  O  O446  1  0.50519892  0.17446567  0.97036267  1
  O  O447  1  0.50619354  0.67266671  0.30481256  1
  O  O448  1  0.51126663  0.67426528  0.63970518  1
  O  O449  1  0.50621657  0.66397174  0.96799317  1
  O  O450  1  0.33586370  0.49368395  0.20060786  1
  O  O451  1  0.32698694  0.48547537  0.52607480  1
  O  O452  1  0.34095203  0.49302172  0.86592913  1
  O  O453  1  0.33309548  0.99176516  0.19624974  1
  O  O454  1  0.33708652  0.99861659  0.52832399  1
  O  O455  1  0.34770004  1.00542354  0.85881500  1
  O  O456  1  0.82361193  0.48852279  0.18991919  1
  O  O457  1  0.82728133  0.49548660  0.52875378  1
  O  O458  1  0.82290423  0.48978403  0.86244923  1
  O  O459  1  0.83681234  0.98745053  0.20058593  1
  O  O460  1  0.85152797  0.99425314  0.52773205  1
  O  O461  1  0.83312820  0.98937807  0.87210512  1
