# generated using pymatgen
data_Na31Fe20(SO4)36
_symmetry_space_group_name_H-M   'P 1'
_cell_length_a   18.08277439
_cell_length_b   18.09171198
_cell_length_c   19.72309981
_cell_angle_alpha   107.60544723
_cell_angle_beta   107.61136970
_cell_angle_gamma   90.67573624
_symmetry_Int_Tables_number   1
_chemical_formula_structural   Na31Fe20(SO4)36
_chemical_formula_sum   'Na62 Fe40 S72 O288'
_cell_volume   5823.88668041
_cell_formula_units_Z   2
loop_
 _symmetry_equiv_pos_site_id
 _symmetry_equiv_pos_as_xyz
  1  'x, y, z'
loop_
 _atom_site_type_symbol
 _atom_site_label
 _atom_site_symmetry_multiplicity
 _atom_site_fract_x
 _atom_site_fract_y
 _atom_site_fract_z
 _atom_site_occupancy
  Na  Na0  1  0.13551556  0.36552421  0.08693896  1
  Na  Na1  1  0.17093952  0.33910538  0.44140674  1
  Na  Na2  1  0.12474540  0.36289267  0.74202945  1
  Na  Na3  1  0.13694326  0.86474765  0.07933755  1
  Na  Na4  1  0.13441288  0.86985136  0.41837113  1
  Na  Na5  1  0.14650990  0.86911840  0.75723929  1
  Na  Na6  1  0.63339362  0.36087195  0.07640987  1
  Na  Na7  1  0.64476416  0.35004868  0.42304812  1
  Na  Na8  1  0.62481552  0.36274755  0.72935521  1
  Na  Na9  1  0.63043856  0.86700477  0.07694417  1
  Na  Na10  1  0.62594251  0.86756552  0.41783119  1
  Na  Na11  1  0.63237157  0.87137790  0.75399826  1
  Na  Na12  1  0.36649252  0.15164264  0.26760972  1
  Na  Na13  1  0.37422363  0.13614308  0.56806148  1
  Na  Na14  1  0.35478483  0.12670913  0.90478758  1
  Na  Na15  1  0.36003383  0.63067579  0.24473481  1
  Na  Na16  1  0.37116257  0.62948122  0.58750669  1
  Na  Na17  1  0.37422872  0.63153202  0.91368671  1
  Na  Na18  1  0.86761867  0.13779791  0.25938198  1
  Na  Na19  1  0.85928128  0.13797795  0.58131264  1
  Na  Na20  1  0.86288394  0.13795928  0.91451119  1
  Na  Na21  1  0.87026509  0.62933241  0.25096407  1
  Na  Na22  1  0.87195229  0.63642793  0.58847823  1
  Na  Na23  1  0.86524875  0.63601112  0.92133079  1
  Na  Na24  1  0.48053011  0.01908358  0.73384507  1
  Na  Na25  1  0.50870893  0.50561700  0.04734059  1
  Na  Na26  1  0.47214761  0.00573060  0.10600067  1
  Na  Na27  1  0.99158366  0.02100444  0.41933983  1
  Na  Na28  1  0.99350179  0.01125317  0.75068393  1
  Na  Na29  1  0.96130673  0.50336840  0.08150177  1
  Na  Na30  1  0.52430657  0.46858144  0.43803859  1
  Na  Na31  1  1.02485600  0.46485947  0.41768268  1
  Na  Na32  1  0.99932555  0.01228083  0.08064576  1
  Na  Na33  1  0.01188891  0.98925777  0.24465212  1
  Na  Na34  1  0.05953046  0.99725246  0.60239888  1
  Na  Na35  1  0.47587556  0.45264476  0.58333947  1
  Na  Na36  1  0.04945921  0.99564018  0.92779807  1
  Na  Na37  1  0.49057364  1.03555077  0.38830117  1
  Na  Na38  1  -0.00591507  0.49648551  0.90476830  1
  Na  Na39  1  0.00407818  0.46251419  0.58608219  1
  Na  Na40  1  0.50615757  0.98139326  0.92419643  1
  Na  Na41  1  0.50941160  0.48864132  0.24630299  1
  Na  Na42  1  0.26302714  0.75972722  -0.01801999  1
  Na  Na43  1  0.23859335  0.23131801  0.00545823  1
  Na  Na44  1  0.24606912  0.73659981  0.68095787  1
  Na  Na45  1  0.76282255  0.25484410  0.33742198  1
  Na  Na46  1  0.75870769  0.26866321  -0.01263299  1
  Na  Na47  1  0.74423009  0.74596395  0.67410239  1
  Na  Na48  1  0.72742041  0.73246531  0.00136938  1
  Na  Na49  1  0.24486241  0.74435584  0.33476933  1
  Na  Na50  1  0.74373115  0.74456563  0.33815770  1
  Na  Na51  1  0.25798912  0.26662630  0.64422591  1
  Na  Na52  1  0.74908022  0.74924095  0.50326647  1
  Na  Na53  1  0.74390369  0.74205702  0.17101944  1
  Na  Na54  1  0.71436319  0.24229453  0.53832484  1
  Na  Na55  1  0.24590423  0.74279835  0.50763319  1
  Na  Na56  1  0.73547428  0.74105300  0.84318604  1
  Na  Na57  1  0.75598105  0.27156661  0.81796684  1
  Na  Na58  1  0.25424272  0.75353032  0.15895411  1
  Na  Na59  1  0.24326773  0.24489325  0.82547843  1
  Na  Na60  1  0.75645091  0.25551902  0.16325878  1
  Na  Na61  1  0.23914982  0.23554486  0.18377060  1
  Fe  Fe62  1  0.46631541  0.80675329  0.12111536  1
  Fe  Fe63  1  0.96350034  0.80452522  0.11367842  1
  Fe  Fe64  1  0.96881202  0.80740089  0.45276093  1
  Fe  Fe65  1  0.46061124  0.81694512  0.46069923  1
  Fe  Fe66  1  0.95582749  0.30866342  0.78275059  1
  Fe  Fe67  1  0.96642764  0.31211912  0.12200619  1
  Fe  Fe68  1  0.46646074  0.30506543  0.11485834  1
  Fe  Fe69  1  0.96909846  0.80666091  0.78497247  1
  Fe  Fe70  1  0.46563298  0.79989231  0.79178392  1
  Fe  Fe71  1  0.46413592  0.30831608  0.78324901  1
  Fe  Fe72  1  0.69534394  0.53571121  0.37931405  1
  Fe  Fe73  1  0.68005141  0.03956827  0.70749448  1
  Fe  Fe74  1  0.19176835  0.53278287  0.04409126  1
  Fe  Fe75  1  0.69502633  0.03104545  0.38371611  1
  Fe  Fe76  1  0.20401863  0.53137449  0.71057309  1
  Fe  Fe77  1  0.69554408  0.53223907  0.03502217  1
  Fe  Fe78  1  0.69576943  0.03752527  0.04838530  1
  Fe  Fe79  1  0.19421477  0.53119835  0.38026506  1
  Fe  Fe80  1  0.69607847  0.54237578  0.72126376  1
  Fe  Fe81  1  0.19365371  0.04412070  0.38486059  1
  Fe  Fe82  1  0.02866699  0.20250747  0.54783900  1
  Fe  Fe83  1  0.53157848  0.69393689  0.54510304  1
  Fe  Fe84  1  0.03564732  0.68669902  0.54456987  1
  Fe  Fe85  1  0.53416681  0.19170610  0.88064631  1
  Fe  Fe86  1  0.03747524  0.19639967  0.22226555  1
  Fe  Fe87  1  0.53421625  0.69157955  0.21334723  1
  Fe  Fe88  1  0.53664162  0.19483302  0.21671434  1
  Fe  Fe89  1  0.03971169  0.68551943  0.87448196  1
  Fe  Fe90  1  0.03153578  0.19245435  0.87967102  1
  Fe  Fe91  1  0.03461011  0.69106432  0.21267758  1
  Fe  Fe92  1  0.31451250  0.46168639  0.28776601  1
  Fe  Fe93  1  0.29859092  0.96869015  0.95417270  1
  Fe  Fe94  1  0.29863474  0.96508967  0.28570748  1
  Fe  Fe95  1  0.80492951  0.96254964  0.28275356  1
  Fe  Fe96  1  0.80702157  0.96595871  0.61915852  1
  Fe  Fe97  1  0.81608626  0.46337624  0.29129021  1
  Fe  Fe98  1  0.80821137  0.46793925  0.62018147  1
  Fe  Fe99  1  0.30462732  0.46118300  0.95108744  1
  Fe  Fe100  1  0.80863179  0.96750881  0.94885130  1
  Fe  Fe101  1  0.29852465  0.97211637  0.62372908  1
  S  S102  1  0.36008457  0.14218741  0.08375138  1
  S  S103  1  0.36316569  0.13558973  0.41093156  1
  S  S104  1  0.35996803  0.14279868  0.74955287  1
  S  S105  1  0.36125910  0.63695902  0.08209559  1
  S  S106  1  0.35846451  0.64307941  0.41344298  1
  S  S107  1  0.36094232  0.63861984  0.75093763  1
  S  S108  1  0.86133849  0.14114652  0.08290770  1
  S  S109  1  0.86082779  0.13308816  0.41639943  1
  S  S110  1  0.85446489  0.13929391  0.75143688  1
  S  S111  1  0.86085988  0.64366970  0.08440627  1
  S  S112  1  0.85995121  0.64417047  0.41426817  1
  S  S113  1  0.86328280  0.64404899  0.75048185  1
  S  S114  1  0.14115976  0.36063063  0.24995903  1
  S  S115  1  0.13675186  0.36250987  0.58505305  1
  S  S116  1  0.13883763  0.35743942  0.91649805  1
  S  S117  1  0.13612010  0.85782184  0.24815320  1
  S  S118  1  0.14153648  0.85339740  0.58310765  1
  S  S119  1  0.14018510  0.85490479  0.91542919  1
  S  S120  1  0.64209877  0.36229901  0.24729897  1
  S  S121  1  0.63485699  0.37791564  0.58126465  1
  S  S122  1  0.63353917  0.35888742  0.91880784  1
  S  S123  1  0.64134469  0.85852871  0.25122284  1
  S  S124  1  0.64092035  0.85874210  0.58462216  1
  S  S125  1  0.64245346  0.86479593  0.91549365  1
  S  S126  1  0.06050728  0.17202262  0.04448580  1
  S  S127  1  0.06439413  0.16044204  0.37309985  1
  S  S128  1  0.05330271  0.17140160  0.70941263  1
  S  S129  1  0.06692528  0.66774875  0.04000107  1
  S  S130  1  0.06947084  0.66970778  0.37658430  1
  S  S131  1  0.07325215  0.66797762  0.70631959  1
  S  S132  1  0.56803193  0.16737774  0.04251298  1
  S  S133  1  0.58772689  0.17098301  0.37016369  1
  S  S134  1  0.56308070  0.17283873  0.71231270  1
  S  S135  1  0.56803868  0.67561818  0.04652833  1
  S  S136  1  0.56726971  0.66884598  0.37465805  1
  S  S137  1  0.57065091  0.67816904  0.70904637  1
  S  S138  1  0.32944691  0.42952986  0.12093714  1
  S  S139  1  0.33495931  0.44182093  0.45171493  1
  S  S140  1  0.32225872  0.42642926  0.79151878  1
  S  S141  1  0.32734386  0.92571168  0.12342954  1
  S  S142  1  0.32027880  0.92878671  0.45668345  1
  S  S143  1  0.33437461  0.93121934  0.79152133  1
  S  S144  1  0.82674614  0.43288732  0.12508489  1
  S  S145  1  0.83629151  0.44305486  0.45791282  1
  S  S146  1  0.82953696  0.44151194  0.79237744  1
  S  S147  1  0.83196272  0.93268485  0.12221279  1
  S  S148  1  0.83314931  0.92860220  0.45882690  1
  S  S149  1  0.83937222  0.93380254  0.79158622  1
  S  S150  1  0.44219147  0.33479933  0.28628402  1
  S  S151  1  0.42691388  0.33078343  0.62847979  1
  S  S152  1  0.42847954  0.32525871  0.95376612  1
  S  S153  1  0.42810522  0.82590957  0.29110064  1
  S  S154  1  0.42914261  0.83005801  0.62598732  1
  S  S155  1  0.43501090  0.84070925  0.96501835  1
  S  S156  1  0.93573850  0.32631810  0.29033154  1
  S  S157  1  0.92438743  0.32838766  0.62285201  1
  S  S158  1  0.93726726  0.33492389  0.95661464  1
  S  S159  1  0.93370102  0.83104954  0.28950646  1
  S  S160  1  0.93482467  0.83082682  0.62344843  1
  S  S161  1  0.93317686  0.83298249  0.95565419  1
  S  S162  1  0.16095321  0.06047676  0.20585715  1
  S  S163  1  0.16622024  0.06886579  0.54219822  1
  S  S164  1  0.16423626  0.06399335  0.87019562  1
  S  S165  1  0.16641600  0.56686135  0.20492086  1
  S  S166  1  0.16901742  0.56513179  0.54197889  1
  S  S167  1  0.17402107  0.56565033  0.87569271  1
  S  S168  1  0.67245134  0.06700721  0.20786673  1
  S  S169  1  0.66761439  0.05936021  0.54267130  1
  S  S170  1  0.67081553  0.07076637  0.87707699  1
  S  S171  1  0.66936217  0.56599562  0.20614465  1
  S  S172  1  0.67575800  0.57640072  0.54152588  1
  S  S173  1  0.67387467  0.57266081  0.88016798  1
  O  O174  1  0.37412664  0.21813210  0.07031603  1
  O  O175  1  0.37004711  0.20750523  0.39443571  1
  O  O176  1  0.37237693  0.22366009  0.74468070  1
  O  O177  1  0.37014609  0.71610839  0.07473874  1
  O  O178  1  0.37059110  0.72274735  0.40713767  1
  O  O179  1  0.36736187  0.72275677  0.75062285  1
  O  O180  1  0.86643116  0.21937535  0.07296508  1
  O  O181  1  0.86699555  0.20615865  0.40137124  1
  O  O182  1  0.85930476  0.22077499  0.75021267  1
  O  O183  1  0.86791766  0.72361555  0.07605091  1
  O  O184  1  0.87180089  0.72173591  0.40359122  1
  O  O185  1  0.87422557  0.72083894  0.73747509  1
  O  O186  1  0.28385039  0.13960258  0.09430448  1
  O  O187  1  0.28705989  0.12493159  0.42615475  1
  O  O188  1  0.28506487  0.13433845  0.76092494  1
  O  O189  1  0.28109741  0.62710397  0.08795290  1
  O  O190  1  0.27794130  0.63654684  0.41912616  1
  O  O191  1  0.27517476  0.62736687  0.75177038  1
  O  O192  1  0.78297476  0.13052919  0.09252560  1
  O  O193  1  0.78503624  0.12032486  0.42932432  1
  O  O194  1  0.77751931  0.12405228  0.76113691  1
  O  O195  1  0.78046593  0.63457981  0.08955875  1
  O  O196  1  0.77803025  0.63846666  0.41680560  1
  O  O197  1  0.78386502  0.64029200  0.75863941  1
  O  O198  1  0.13222963  0.27945997  0.25285058  1
  O  O199  1  0.12002653  0.28929940  0.60289367  1
  O  O200  1  0.12938236  0.27867314  0.92514229  1
  O  O201  1  0.12822217  0.77887561  0.25711332  1
  O  O202  1  0.13289765  0.77023279  0.58143186  1
  O  O203  1  0.13052711  0.77408689  0.92053106  1
  O  O204  1  0.63316115  0.28228762  0.25155391  1
  O  O205  1  0.62921610  0.30429544  0.59623992  1
  O  O206  1  0.61965841  0.28420318  0.93566135  1
  O  O207  1  0.63367962  0.77901832  0.25902458  1
  O  O208  1  0.63178600  0.77909482  0.59119200  1
  O  O209  1  0.64018607  0.78883087  0.92625632  1
  O  O210  1  0.21918300  0.37076299  0.23948039  1
  O  O211  1  0.21375383  0.36148153  0.57611654  1
  O  O212  1  0.21794377  0.36424817  0.90836393  1
  O  O213  1  0.21487560  0.86577485  0.23945241  1
  O  O214  1  0.22091370  0.86660962  0.57772567  1
  O  O215  1  0.22006370  0.86573198  0.91101526  1
  O  O216  1  0.72205898  0.37248821  0.24166560  1
  O  O217  1  0.71445159  0.38576402  0.56945488  1
  O  O218  1  0.71137748  0.36068091  0.91178526  1
  O  O219  1  0.72069539  0.86715469  0.24233761  1
  O  O220  1  0.71917294  0.86658200  0.57445220  1
  O  O221  1  0.71853921  0.87870339  0.90152181  1
  O  O222  1  0.42221122  0.13344237  0.15087254  1
  O  O223  1  0.42716351  0.12317088  0.47146499  1
  O  O224  1  0.42337854  0.13059649  0.81459258  1
  O  O225  1  0.41836885  0.63008504  0.15181907  1
  O  O226  1  0.41584020  0.63473884  0.48174925  1
  O  O227  1  0.41372264  0.63036433  0.81892978  1
  O  O228  1  0.92130645  0.13267412  0.14981580  1
  O  O229  1  0.92331865  0.12664318  0.48388401  1
  O  O230  1  0.91661357  0.12742564  0.81647699  1
  O  O231  1  0.91690513  0.64075236  0.15727269  1
  O  O232  1  0.91417087  0.63973810  0.48576222  1
  O  O233  1  0.92104226  0.64042319  0.82074285  1
  O  O234  1  0.36551888  0.07954952  0.01581436  1
  O  O235  1  0.36272258  0.06908034  0.33923649  1
  O  O236  1  0.36648805  0.08530294  0.67940822  1
  O  O237  1  0.37222784  0.57737010  0.01606334  1
  O  O238  1  0.36545010  0.58507808  0.34446660  1
  O  O239  1  0.36740092  0.58703599  0.68118768  1
  O  O240  1  0.86912253  0.08145987  0.01460753  1
  O  O241  1  0.86963953  0.06801784  0.35019319  1
  O  O242  1  0.86341807  0.08474148  0.68131019  1
  O  O243  1  0.87612246  0.58509278  0.02259635  1
  O  O244  1  0.87011513  0.58320344  0.34914630  1
  O  O245  1  0.87056381  0.58231973  0.68453659  1
  O  O246  1  0.08142756  0.37086080  0.18301940  1
  O  O247  1  0.07625095  0.37222226  0.52035402  1
  O  O248  1  0.07967668  0.36764561  0.84996687  1
  O  O249  1  0.07698127  0.86369790  0.17876764  1
  O  O250  1  0.08341838  0.86508429  0.51469939  1
  O  O251  1  0.08322093  0.86164934  0.84452036  1
  O  O252  1  0.58398475  0.37293205  0.17938720  1
  O  O253  1  0.57691895  0.38633062  0.51404813  1
  O  O254  1  0.57390460  0.36405199  0.84970652  1
  O  O255  1  0.58274700  0.86666837  0.18406004  1
  O  O256  1  0.58044695  0.86604442  0.51736850  1
  O  O257  1  0.57904604  0.87195891  0.84961954  1
  O  O258  1  0.13405569  0.41671277  0.31935250  1
  O  O259  1  0.13361173  0.42815726  0.65509626  1
  O  O260  1  0.13305427  0.41691517  0.98567820  1
  O  O261  1  0.12625335  0.91733756  0.31423818  1
  O  O262  1  0.13003010  0.90641377  0.65037768  1
  O  O263  1  0.12680306  0.91170964  0.98002488  1
  O  O264  1  0.63238148  0.42006382  0.31547312  1
  O  O265  1  0.62863392  0.44185766  0.64844458  1
  O  O266  1  0.62542666  0.42302175  0.98462809  1
  O  O267  1  0.63548636  0.91599080  0.32045613  1
  O  O268  1  0.63639398  0.91680269  0.65452712  1
  O  O269  1  0.63571648  0.92640334  0.98380033  1
  O  O270  1  0.02607738  0.20849865  0.10620312  1
  O  O271  1  0.03584029  0.18754302  0.43757681  1
  O  O272  1  0.01767768  0.20879356  0.77106113  1
  O  O273  1  0.02842161  0.69655378  0.09976811  1
  O  O274  1  0.02961835  0.69863803  0.43536851  1
  O  O275  1  0.03485282  0.69368402  0.76647895  1
  O  O276  1  0.53393216  0.19914698  0.10464949  1
  O  O277  1  0.57838761  0.21002189  0.44243401  1
  O  O278  1  0.52980895  0.20894015  0.77756665  1
  O  O279  1  0.53400022  0.70388190  0.11189936  1
  O  O280  1  0.53161177  0.69692890  0.43524678  1
  O  O281  1  0.53303681  0.70624793  0.76710021  1
  O  O282  1  0.29932731  0.46777473  0.06121804  1
  O  O283  1  0.29563901  0.47747815  0.38751063  1
  O  O284  1  0.29541849  0.46691551  0.73453359  1
  O  O285  1  0.30898265  0.96144985  0.06327414  1
  O  O286  1  0.28814156  0.96270145  0.39431689  1
  O  O287  1  0.32088771  0.97112123  0.73420468  1
  O  O288  1  0.79827768  0.47153454  0.06782859  1
  O  O289  1  0.79851826  0.47958066  0.39632285  1
  O  O290  1  0.79740341  0.47323484  0.72709882  1
  O  O291  1  0.80279025  0.96899953  0.06128597  1
  O  O292  1  0.79906196  0.95983894  0.39508474  1
  O  O293  1  0.80895612  0.96535530  0.72799684  1
  O  O294  1  0.47269272  0.30024548  0.21999538  1
  O  O295  1  0.46740421  0.31650617  0.57317898  1
  O  O296  1  0.46282999  0.29833526  0.89133742  1
  O  O297  1  0.46906982  0.79836019  0.23303062  1
  O  O298  1  0.46815651  0.80166932  0.56547382  1
  O  O299  1  0.47459139  0.82011033  0.90801043  1
  O  O300  1  0.96548030  0.29436557  0.22361779  1
  O  O301  1  0.95793455  0.29694248  0.56170236  1
  O  O302  1  0.97148173  0.29583865  0.89512952  1
  O  O303  1  0.96946772  0.80138072  0.22836456  1
  O  O304  1  0.97027669  0.80116447  0.56184774  1
  O  O305  1  0.96872686  0.80415271  0.89454751  1
  O  O306  1  0.19197559  0.02894055  0.27136532  1
  O  O307  1  0.19194959  0.02734041  0.59865573  1
  O  O308  1  0.19517534  0.03030213  0.93235530  1
  O  O309  1  0.19482040  0.53310550  0.26687128  1
  O  O310  1  0.19274821  0.53154555  0.60388774  1
  O  O311  1  0.20038120  0.52324819  0.93315815  1
  O  O312  1  0.70122645  0.02939509  0.26813334  1
  O  O313  1  0.70246245  0.02276292  0.60506483  1
  O  O314  1  0.70448042  0.03680521  0.93950547  1
  O  O315  1  0.69987053  0.53164406  0.26825121  1
  O  O316  1  0.70845772  0.54788440  0.60633795  1
  O  O317  1  0.70757670  0.53310193  0.93754043  1
  O  O318  1  0.06969384  0.09045239  0.04094140  1
  O  O319  1  0.07700230  0.07451139  0.36137063  1
  O  O320  1  0.05926238  0.08972971  0.70719867  1
  O  O321  1  0.08366722  0.58539042  0.03330805  1
  O  O322  1  0.09192807  0.59100182  0.37532594  1
  O  O323  1  0.09913685  0.58910632  0.70255348  1
  O  O324  1  0.58511650  0.08532012  0.03748265  1
  O  O325  1  0.59672232  0.08547084  0.36119657  1
  O  O326  1  0.58279907  0.09320244  0.71898536  1
  O  O327  1  0.59574090  0.59807477  0.04739924  1
  O  O328  1  0.58756822  0.58729455  0.36747655  1
  O  O329  1  0.59476777  0.59974661  0.70490927  1
  O  O330  1  0.41177964  0.41372896  0.12610545  1
  O  O331  1  0.41425283  0.42992066  0.44814572  1
  O  O332  1  0.40037293  0.39976317  0.79370041  1
  O  O333  1  0.41117057  0.90851042  0.14012264  1
  O  O334  1  0.40127553  0.91197349  0.46027781  1
  O  O335  1  0.41698705  0.91068539  0.80832092  1
  O  O336  1  0.90730862  0.41233848  0.12630497  1
  O  O337  1  0.91760041  0.43567715  0.46044262  1
  O  O338  1  0.90549156  0.40961740  0.78789132  1
  O  O339  1  0.91451125  0.91542836  0.12703923  1
  O  O340  1  0.91571265  0.91468445  0.46290797  1
  O  O341  1  0.92339047  0.91968909  0.80009098  1
  O  O342  1  0.42443201  0.41689446  0.28743031  1
  O  O343  1  0.40152874  0.40855599  0.64506003  1
  O  O344  1  0.41024122  0.40718200  0.96328592  1
  O  O345  1  0.40649528  0.90556792  0.29597328  1
  O  O346  1  0.40616477  0.90902772  0.62727367  1
  O  O347  1  0.41334188  0.92312507  0.97457598  1
  O  O348  1  0.91610173  0.40775942  0.29418836  1
  O  O349  1  0.90806720  0.41024821  0.62489035  1
  O  O350  1  0.92984955  0.41622441  0.95865726  1
  O  O351  1  0.91746026  0.91360834  0.29522989  1
  O  O352  1  0.91780333  0.91318601  0.63064321  1
  O  O353  1  0.91765023  0.91634395  0.96416147  1
  O  O354  1  0.08096463  0.08585798  0.20734900  1
  O  O355  1  0.08469162  0.08884401  0.54014499  1
  O  O356  1  0.08357416  0.08781418  0.87358665  1
  O  O357  1  0.08358598  0.58411144  0.19472066  1
  O  O358  1  0.08524893  0.58254986  0.52960412  1
  O  O359  1  0.09206474  0.58156827  0.87174192  1
  O  O360  1  0.59087352  0.08551875  0.19965669  1
  O  O361  1  0.58843207  0.07391560  0.53863467  1
  O  O362  1  0.58761822  0.08266871  0.87178375  1
  O  O363  1  0.58641007  0.58187706  0.20069686  1
  O  O364  1  0.59388055  0.59385727  0.53420015  1
  O  O365  1  0.60045077  0.60029061  0.88445026  1
  O  O366  1  0.13529448  0.21921378  0.06072957  1
  O  O367  1  0.13615989  0.20517560  0.38169070  1
  O  O368  1  0.12866155  0.21659151  0.72710408  1
  O  O369  1  0.13843195  0.71982876  0.05860507  1
  O  O370  1  0.13831413  0.72575860  0.39375655  1
  O  O371  1  0.13769862  0.72603174  0.71998062  1
  O  O372  1  0.63996872  0.21766979  0.05746674  1
  O  O373  1  0.65619009  0.20970550  0.36235076  1
  O  O374  1  0.63492802  0.22197441  0.72673400  1
  O  O375  1  0.63728991  0.73256074  0.06505746  1
  O  O376  1  0.63748482  0.72281491  0.39054706  1
  O  O377  1  0.64060416  0.73416852  0.72524320  1
  O  O378  1  0.27816171  0.35795371  0.10358233  1
  O  O379  1  0.28731801  0.36945008  0.43529156  1
  O  O380  1  0.26518010  0.35865357  0.77512779  1
  O  O381  1  0.27511752  0.85180236  0.10095814  1
  O  O382  1  0.26979236  0.85616271  0.44097041  1
  O  O383  1  0.27780128  0.86200712  0.76730489  1
  O  O384  1  0.77477723  0.36069027  0.10853638  1
  O  O385  1  0.78880161  0.36883092  0.43969540  1
  O  O386  1  0.77235698  0.37925707  0.78516161  1
  O  O387  1  0.78061221  0.86182931  0.10728427  1
  O  O388  1  0.78477495  0.85609501  0.44667781  1
  O  O389  1  0.79074829  0.86155621  0.77855439  1
  O  O390  1  0.37054186  0.28632042  0.27318616  1
  O  O391  1  0.36477906  0.26788303  0.61182654  1
  O  O392  1  0.35868973  0.27240741  0.93878873  1
  O  O393  1  0.35790417  0.77009757  0.27064287  1
  O  O394  1  0.36117575  0.77329709  0.60849012  1
  O  O395  1  0.36742161  0.78494494  0.94837447  1
  O  O396  1  0.86323722  0.27549254  0.27498335  1
  O  O397  1  0.85312871  0.27989825  0.61241649  1
  O  O398  1  0.86216338  0.28814281  0.94034203  1
  O  O399  1  0.86189275  0.78045447  0.27414946  1
  O  O400  1  0.86302178  0.77971814  0.60739959  1
  O  O401  1  0.86130088  0.78305896  0.94058130  1
  O  O402  1  0.21445488  0.12670519  0.21537209  1
  O  O403  1  0.21937536  0.13779831  0.55803364  1
  O  O404  1  0.21559203  0.13537413  0.88412845  1
  O  O405  1  0.21770251  0.63907550  0.22050282  1
  O  O406  1  0.22130819  0.63620819  0.55812375  1
  O  O407  1  0.22726825  0.63669007  0.89825884  1
  O  O408  1  0.72560084  0.13765447  0.22439392  1
  O  O409  1  0.72245972  0.12814539  0.55868472  1
  O  O410  1  0.71857280  0.14442330  0.89289293  1
  O  O411  1  0.72006873  0.63917629  0.22376889  1
  O  O412  1  0.72673587  0.64663865  0.55152999  1
  O  O413  1  0.73343876  0.64004613  0.89442871  1
  O  O414  1  0.49083832  0.32698801  0.02504528  1
  O  O415  1  0.50603293  0.33996512  0.35432099  1
  O  O416  1  0.49079971  0.32897885  0.70395909  1
  O  O417  1  0.49426269  0.84490961  0.03977752  1
  O  O418  1  0.48540662  0.82757972  0.36466316  1
  O  O419  1  0.48826082  0.83574693  0.69920644  1
  O  O420  1  0.99291256  0.33454254  0.03051815  1
  O  O421  1  0.99813149  0.32916031  0.35830540  1
  O  O422  1  0.98535161  0.33394320  0.69627576  1
  O  O423  1  0.99297040  0.83338929  0.02774327  1
  O  O424  1  0.99306727  0.83257726  0.36184128  1
  O  O425  1  0.99435644  0.83092588  0.69490609  1
  O  O426  1  0.14628316  -0.00407200  0.13574731  1
  O  O427  1  0.15817991  0.01088733  0.46598389  1
  O  O428  1  0.15128847  0.00502678  0.79700172  1
  O  O429  1  0.16784579  0.50747964  0.13359403  1
  O  O430  1  0.16812959  0.50456639  0.47045104  1
  O  O431  1  0.17348498  0.51156927  0.80129052  1
  O  O432  1  0.67214409  0.00724118  0.13577185  1
  O  O433  1  0.66906707  -0.00080974  0.47047049  1
  O  O434  1  0.67198515  0.01177333  0.80569790  1
  O  O435  1  0.66783930  0.50843944  0.13368982  1
  O  O436  1  0.67168107  0.51280992  0.47012476  1
  O  O437  1  0.66857467  0.51432717  0.80537199  1
  O  O438  1  0.00120590  0.16024111  0.30248194  1
  O  O439  1  -0.00154290  0.17351913  0.63642705  1
  O  O440  1  0.00376230  0.17333405  0.97151066  1
  O  O441  1  0.01089896  0.66551226  0.30307293  1
  O  O442  1  0.01013147  0.66082248  0.63358845  1
  O  O443  1  0.00939254  0.66649670  0.96690503  1
  O  O444  1  0.51599088  0.16997318  0.30528183  1
  O  O445  1  0.50278540  0.16368712  0.64247570  1
  O  O446  1  0.50781401  0.16436840  0.97032946  1
  O  O447  1  0.50795083  0.66519480  0.30145415  1
  O  O448  1  0.51224137  0.67277151  0.63400629  1
  O  O449  1  0.50675640  0.67144791  0.97842298  1
  O  O450  1  0.33079237  0.48810196  0.19376083  1
  O  O451  1  0.33919718  0.50132623  0.52278592  1
  O  O452  1  0.33136722  0.48562970  0.86650909  1
  O  O453  1  0.31866915  0.98267094  0.19168002  1
  O  O454  1  0.32085414  0.98761201  0.52831352  1
  O  O455  1  0.32860205  0.98873424  0.86263030  1
  O  O456  1  0.83244421  0.48929551  0.20044675  1
  O  O457  1  0.83432639  0.49917411  0.53068258  1
  O  O458  1  0.84984448  0.50691578  0.86234211  1
  O  O459  1  0.83601106  0.99198896  0.19538505  1
  O  O460  1  0.83445703  0.98906797  0.53022561  1
  O  O461  1  0.83829848  0.99479382  0.86213773  1
