# generated using pymatgen
data_Na31Fe20(SO4)36
_symmetry_space_group_name_H-M   'P 1'
_cell_length_a   18.08433411
_cell_length_b   18.09621380
_cell_length_c   19.73224442
_cell_angle_alpha   107.59351197
_cell_angle_beta   107.57266415
_cell_angle_gamma   90.73887653
_symmetry_Int_Tables_number   1
_chemical_formula_structural   Na31Fe20(SO4)36
_chemical_formula_sum   'Na62 Fe40 S72 O288'
_cell_volume   5829.56606056
_cell_formula_units_Z   2
loop_
 _symmetry_equiv_pos_site_id
 _symmetry_equiv_pos_as_xyz
  1  'x, y, z'
loop_
 _atom_site_type_symbol
 _atom_site_label
 _atom_site_symmetry_multiplicity
 _atom_site_fract_x
 _atom_site_fract_y
 _atom_site_fract_z
 _atom_site_occupancy
  Na  Na0  1  0.13762281  0.37037712  0.09127964  1
  Na  Na1  1  0.13287216  0.36508911  0.41454120  1
  Na  Na2  1  0.13039418  0.36640043  0.74469035  1
  Na  Na3  1  0.13514348  0.86690117  0.08680155  1
  Na  Na4  1  0.13105074  0.86186181  0.41823744  1
  Na  Na5  1  0.13117453  0.86437429  0.74679265  1
  Na  Na6  1  0.63391184  0.36098329  0.07484488  1
  Na  Na7  1  0.62980783  0.33829698  0.38811005  1
  Na  Na8  1  0.63742832  0.34965224  0.75022941  1
  Na  Na9  1  0.63071295  0.86893490  0.07980297  1
  Na  Na10  1  0.64477901  0.86954463  0.42127944  1
  Na  Na11  1  0.62927573  0.87359493  0.75072728  1
  Na  Na12  1  0.37280293  0.13029984  0.24759669  1
  Na  Na13  1  0.37309817  0.13735982  0.59208865  1
  Na  Na14  1  0.37817574  0.13218750  0.91555106  1
  Na  Na15  1  0.35075392  0.63581120  0.24024940  1
  Na  Na16  1  0.36600025  0.63570564  0.58450761  1
  Na  Na17  1  0.36544484  0.63327863  0.91477257  1
  Na  Na18  1  0.85840929  0.13707281  0.24961069  1
  Na  Na19  1  0.85808005  0.12725897  0.56871150  1
  Na  Na20  1  0.85689766  0.14569887  0.91503876  1
  Na  Na21  1  0.87387185  0.63566418  0.26068743  1
  Na  Na22  1  0.86186680  0.62310719  0.57526478  1
  Na  Na23  1  0.86483099  0.63259731  0.91439783  1
  Na  Na24  1  0.49768745  0.49047341  0.10794755  1
  Na  Na25  1  0.98974806  0.50855624  0.08098242  1
  Na  Na26  1  0.98306905  0.50590364  0.43836069  1
  Na  Na27  1  0.50519153  0.07130667  0.77559166  1
  Na  Na28  1  0.95159601  0.50850118  0.71067670  1
  Na  Na29  1  0.50865076  0.05596516  0.10262287  1
  Na  Na30  1  0.50100276  0.00353038  0.43347278  1
  Na  Na31  1  0.98806895  -0.00699097  0.42376300  1
  Na  Na32  1  0.51176734  0.48030477  0.75251437  1
  Na  Na33  1  0.01433889  0.48441866  0.25510279  1
  Na  Na34  1  0.56527360  1.00571469  0.28075558  1
  Na  Na35  1  0.01121854  0.48947697  0.90917035  1
  Na  Na36  1  0.00683194  0.96242715  0.59376274  1
  Na  Na37  1  -0.01667709  1.00823692  0.92709613  1
  Na  Na38  1  0.45919928  0.51650176  0.31243462  1
  Na  Na39  1  0.01384508  1.00035402  0.24001750  1
  Na  Na40  1  0.50142392  0.43813490  0.90351894  1
  Na  Na41  1  0.52340425  0.49344964  0.56526199  1
  Na  Na42  1  0.26032483  0.26259715  0.32375244  1
  Na  Na43  1  0.25271303  0.25438064  -0.00428407  1
  Na  Na44  1  0.76568726  0.75694060  0.33077192  1
  Na  Na45  1  0.74302863  0.24257921  0.66840142  1
  Na  Na46  1  0.24437154  0.74447442  0.00855918  1
  Na  Na47  1  0.75558787  0.75654228  -0.00609853  1
  Na  Na48  1  0.72212157  0.22631102  -0.00098401  1
  Na  Na49  1  0.75383827  0.75257437  0.66304899  1
  Na  Na50  1  0.26061007  0.25960244  0.65928758  1
  Na  Na51  1  0.25291699  0.75313452  0.32949266  1
  Na  Na52  1  0.26024966  0.25920543  0.49422940  1
  Na  Na53  1  0.75053942  0.75526473  0.82758273  1
  Na  Na54  1  0.75379778  0.75042575  0.16340946  1
  Na  Na55  1  0.71592521  0.22182428  0.17520978  1
  Na  Na56  1  0.75217940  0.25343706  0.48953992  1
  Na  Na57  1  0.25763627  0.76097754  0.82426850  1
  Na  Na58  1  0.26590356  0.26058114  0.82446230  1
  Na  Na59  1  0.76452828  0.75505506  0.49378610  1
  Na  Na60  1  0.24310823  0.74261873  0.51137992  1
  Na  Na61  1  0.26155944  0.26436425  0.16301301  1
  Fe  Fe62  1  0.96270377  0.30418684  0.77879477  1
  Fe  Fe63  1  0.46540836  0.30839812  0.45068553  1
  Fe  Fe64  1  0.46629352  0.81155868  0.78935706  1
  Fe  Fe65  1  0.96574810  0.81062762  0.79062200  1
  Fe  Fe66  1  0.46744529  0.81211145  0.45639300  1
  Fe  Fe67  1  0.96426688  0.30675820  0.11340461  1
  Fe  Fe68  1  0.96460899  0.80747726  0.12116922  1
  Fe  Fe69  1  0.46544080  0.80957790  0.12159431  1
  Fe  Fe70  1  0.46806611  0.30268656  0.12638249  1
  Fe  Fe71  1  0.96257710  0.30883478  0.45216930  1
  Fe  Fe72  1  0.68721609  0.03931781  0.71326787  1
  Fe  Fe73  1  0.70099035  0.52871088  0.70811184  1
  Fe  Fe74  1  0.18648043  0.54071744  0.71153530  1
  Fe  Fe75  1  0.19300704  0.03550155  0.04758183  1
  Fe  Fe76  1  0.19343736  0.03300385  0.71682346  1
  Fe  Fe77  1  0.69382328  0.53436789  0.04484281  1
  Fe  Fe78  1  0.19465958  0.03428387  0.38216031  1
  Fe  Fe79  1  0.19413827  0.53496896  0.05030599  1
  Fe  Fe80  1  0.20056433  0.53141121  0.37862645  1
  Fe  Fe81  1  0.69409801  0.53152947  0.38103344  1
  Fe  Fe82  1  0.53465902  0.69317724  0.54525730  1
  Fe  Fe83  1  0.03516228  0.18979470  0.87637614  1
  Fe  Fe84  1  0.53416868  0.68855854  0.87789066  1
  Fe  Fe85  1  0.03426312  0.69339816  0.88107634  1
  Fe  Fe86  1  0.03896587  0.19126908  0.54732496  1
  Fe  Fe87  1  0.03079035  0.19130572  0.21110947  1
  Fe  Fe88  1  0.03410108  0.69584217  0.21727206  1
  Fe  Fe89  1  0.53437341  0.69279060  0.21271466  1
  Fe  Fe90  1  0.53510221  0.19245051  0.54904885  1
  Fe  Fe91  1  0.03452594  0.69962442  0.54768962  1
  Fe  Fe92  1  0.81108865  0.46246563  0.94864065  1
  Fe  Fe93  1  0.30728846  0.46854794  0.62187159  1
  Fe  Fe94  1  0.80310310  0.96749370  0.96160680  1
  Fe  Fe95  1  0.80662519  0.96857895  0.62119203  1
  Fe  Fe96  1  0.80731611  0.45976341  0.28275093  1
  Fe  Fe97  1  0.30922914  0.96786704  0.95350286  1
  Fe  Fe98  1  0.31088493  0.96398104  0.62237400  1
  Fe  Fe99  1  0.30589175  0.46798565  0.95417526  1
  Fe  Fe100  1  0.79959964  0.96790874  0.29107661  1
  Fe  Fe101  1  0.30803854  0.96377730  0.28481735  1
  S  S102  1  0.35465619  0.14238793  0.08230233  1
  S  S103  1  0.35657612  0.13932007  0.41597918  1
  S  S104  1  0.35193037  0.14068693  0.74768012  1
  S  S105  1  0.35929180  0.64112465  0.08510613  1
  S  S106  1  0.36073097  0.64788873  0.41663442  1
  S  S107  1  0.35936592  0.64313892  0.75134468  1
  S  S108  1  0.86051465  0.14303570  0.08140711  1
  S  S109  1  0.86893657  0.13534224  0.41519889  1
  S  S110  1  0.86015353  0.14002334  0.74998647  1
  S  S111  1  0.86182680  0.63822739  0.08135927  1
  S  S112  1  0.86281474  0.63329814  0.41703723  1
  S  S113  1  0.85820692  0.64734073  0.75312769  1
  S  S114  1  0.13608711  0.35717813  0.25014154  1
  S  S115  1  0.13908551  0.36239070  0.58295055  1
  S  S116  1  0.13787840  0.36092300  0.91248332  1
  S  S117  1  0.13966485  0.86182120  0.25155022  1
  S  S118  1  0.14230966  0.86170765  0.58441143  1
  S  S119  1  0.14221977  0.85938060  0.91946338  1
  S  S120  1  0.63668706  0.36614259  0.24354873  1
  S  S121  1  0.64106205  0.35948716  0.58323090  1
  S  S122  1  0.64657294  0.36272126  0.91720325  1
  S  S123  1  0.64251622  0.85195774  0.24946090  1
  S  S124  1  0.64314136  0.85823737  0.58237803  1
  S  S125  1  0.63957992  0.85167787  0.91642761  1
  S  S126  1  0.07083035  0.17356638  0.04163910  1
  S  S127  1  0.07228144  0.16914107  0.37515743  1
  S  S128  1  0.06894467  0.16937255  0.70808602  1
  S  S129  1  0.06642946  0.66902782  0.04162774  1
  S  S130  1  0.07293459  0.66760991  0.37676956  1
  S  S131  1  0.06420337  0.67248281  0.71143741  1
  S  S132  1  0.56052210  0.17758216  0.04116468  1
  S  S133  1  0.55739828  0.16511294  0.38376450  1
  S  S134  1  0.56798058  0.16822396  0.70463649  1
  S  S135  1  0.56690590  0.66741221  0.04196343  1
  S  S136  1  0.57094590  0.67361184  0.37662893  1
  S  S137  1  0.56772137  0.66402836  0.70616485  1
  S  S138  1  0.32864731  0.43421652  0.12657751  1
  S  S139  1  0.32883842  0.43457857  0.45946659  1
  S  S140  1  0.32777808  0.44029967  0.78854908  1
  S  S141  1  0.32883258  0.93297496  0.12219855  1
  S  S142  1  0.32854428  0.93358050  0.45650556  1
  S  S143  1  0.32722161  0.93068426  0.79164298  1
  S  S144  1  0.83584100  0.43451099  0.12302575  1
  S  S145  1  0.82628107  0.42779259  0.45276161  1
  S  S146  1  0.83544854  0.43546522  0.78864689  1
  S  S147  1  0.83030802  0.92707090  0.12856041  1
  S  S148  1  0.83588405  0.93231106  0.45906447  1
  S  S149  1  0.82894498  0.93356999  0.79371074  1
  S  S150  1  0.42727273  0.32684174  0.28763616  1
  S  S151  1  0.43353682  0.33348859  0.62365258  1
  S  S152  1  0.42553118  0.33690161  0.96438771  1
  S  S153  1  0.43420975  0.83079377  0.29326807  1
  S  S154  1  0.43372550  0.82794841  0.62304021  1
  S  S155  1  0.43021162  0.82680784  0.95711087  1
  S  S156  1  0.93166421  0.33149420  0.28894928  1
  S  S157  1  0.93258575  0.32192126  0.61649078  1
  S  S158  1  0.93914136  0.33396765  0.95716291  1
  S  S159  1  0.93207193  0.83077972  0.29210414  1
  S  S160  1  0.92979265  0.82616137  0.62693542  1
  S  S161  1  0.93193001  0.83066166  0.95877103  1
  S  S162  1  0.16988611  0.06906212  0.20985873  1
  S  S163  1  0.17058235  0.06585676  0.54242383  1
  S  S164  1  0.16843869  0.06631436  0.87840629  1
  S  S165  1  0.16173553  0.56658007  0.20791775  1
  S  S166  1  0.17063774  0.56989058  0.54118202  1
  S  S167  1  0.16645517  0.56760057  0.87586484  1
  S  S168  1  0.67156741  0.05742714  0.21001299  1
  S  S169  1  0.66926563  0.06388523  0.54416865  1
  S  S170  1  0.67342728  0.06092084  0.87733561  1
  S  S171  1  0.67592301  0.57240464  0.20933684  1
  S  S172  1  0.66680039  0.56910974  0.53963073  1
  S  S173  1  0.67475926  0.56830629  0.87347530  1
  O  O174  1  0.36469085  0.22556329  0.08101412  1
  O  O175  1  0.36316640  0.21903754  0.40939228  1
  O  O176  1  0.35630828  0.21626241  0.73561203  1
  O  O177  1  0.36866256  0.72174136  0.08140620  1
  O  O178  1  0.36892544  0.73128650  0.41734225  1
  O  O179  1  0.37169550  0.72271065  0.74719295  1
  O  O180  1  0.87689408  0.21854113  0.06732762  1
  O  O181  1  0.88505408  0.20898262  0.40056143  1
  O  O182  1  0.86883620  0.21918846  0.74126378  1
  O  O183  1  0.87063482  0.71571400  0.07036028  1
  O  O184  1  0.86753176  0.70825850  0.40439008  1
  O  O185  1  0.86419022  0.73146419  0.75690533  1
  O  O186  1  0.27371061  0.13482913  0.08751777  1
  O  O187  1  0.27837408  0.13013352  0.42663266  1
  O  O188  1  0.27156374  0.12810823  0.75506462  1
  O  O189  1  0.28168423  0.63004428  0.09495390  1
  O  O190  1  0.28043813  0.63470819  0.42109902  1
  O  O191  1  0.28069900  0.63466829  0.76051911  1
  O  O192  1  0.78259447  0.14035178  0.08801126  1
  O  O193  1  0.79685159  0.13408725  0.43297283  1
  O  O194  1  0.78252443  0.12946114  0.75813898  1
  O  O195  1  0.78164598  0.62959717  0.08654117  1
  O  O196  1  0.78625827  0.62165251  0.43026001  1
  O  O197  1  0.77974175  0.63250121  0.76039449  1
  O  O198  1  0.12155666  0.27988187  0.26086517  1
  O  O199  1  0.13264047  0.28465854  0.59468537  1
  O  O200  1  0.13010914  0.28185100  0.91991821  1
  O  O201  1  0.12866662  0.78372019  0.26068892  1
  O  O202  1  0.13232823  0.78278618  0.59153458  1
  O  O203  1  0.13121349  0.78004183  0.92685490  1
  O  O204  1  0.63420477  0.28953168  0.25264599  1
  O  O205  1  0.62629685  0.28247912  0.59420396  1
  O  O206  1  0.63613203  0.28908800  0.92985226  1
  O  O207  1  0.63615818  0.76998429  0.25156583  1
  O  O208  1  0.63344798  0.77834998  0.58873619  1
  O  O209  1  0.62963309  0.76938222  0.92052554  1
  O  O210  1  0.21262772  0.36081757  0.24054145  1
  O  O211  1  0.21863241  0.37128926  0.57519081  1
  O  O212  1  0.21558229  0.37137077  0.90247492  1
  O  O213  1  0.21888275  0.87036117  0.24541844  1
  O  O214  1  0.22347210  0.87073172  0.57992732  1
  O  O215  1  0.22218382  0.86800839  0.91398920  1
  O  O216  1  0.71001702  0.38140904  0.22638449  1
  O  O217  1  0.71712298  0.36411818  0.57350157  1
  O  O218  1  0.72733901  0.37485639  0.91269789  1
  O  O219  1  0.72420069  0.86405125  0.24547731  1
  O  O220  1  0.72229014  0.86631110  0.57337036  1
  O  O221  1  0.72174504  0.85937080  0.91373847  1
  O  O222  1  0.41186103  0.12806609  0.14544700  1
  O  O223  1  0.41645041  0.12839898  0.48154066  1
  O  O224  1  0.41015415  0.13489616  0.81489446  1
  O  O225  1  0.42055300  0.62881214  0.14989515  1
  O  O226  1  0.41790811  0.63779889  0.48481000  1
  O  O227  1  0.41857046  0.63115785  0.81780979  1
  O  O228  1  0.91914017  0.13881595  0.15277101  1
  O  O229  1  0.93413009  0.12107210  0.47709747  1
  O  O230  1  0.92009898  0.13520137  0.81931448  1
  O  O231  1  0.91913786  0.63304129  0.15160959  1
  O  O232  1  0.92517374  0.62807458  0.48511235  1
  O  O233  1  0.91838473  0.63467299  0.81900276  1
  O  O234  1  0.35945130  0.08850031  0.01017998  1
  O  O235  1  0.36098062  0.08126444  0.34590233  1
  O  O236  1  0.36041215  0.07834548  0.67999697  1
  O  O237  1  0.36378855  0.58541458  0.01396751  1
  O  O238  1  0.37048960  0.59630550  0.34776755  1
  O  O239  1  0.36490353  0.58495247  0.68194610  1
  O  O240  1  0.87120579  0.07966822  0.01721626  1
  O  O241  1  0.86866817  0.07084468  0.34457184  1
  O  O242  1  0.87005793  0.08169790  0.68252180  1
  O  O243  1  0.87396257  0.57765261  0.01617027  1
  O  O244  1  0.87155277  0.56980767  0.35123672  1
  O  O245  1  0.86714380  0.59741381  0.68329775  1
  O  O246  1  0.07524104  0.36777510  0.18331648  1
  O  O247  1  0.08054069  0.36629201  0.51312814  1
  O  O248  1  0.07694983  0.37011568  0.84579079  1
  O  O249  1  0.08114335  0.86917375  0.18269484  1
  O  O250  1  0.08532246  0.87325336  0.51913584  1
  O  O251  1  0.08452542  0.86667327  0.85072576  1
  O  O252  1  0.57131786  0.37411440  0.17717564  1
  O  O253  1  0.57859119  0.37133694  0.51830561  1
  O  O254  1  0.58989287  0.37368801  0.85044862  1
  O  O255  1  0.58575927  0.85968183  0.17995643  1
  O  O256  1  0.58423658  0.86625733  0.51444833  1
  O  O257  1  0.58515371  0.85429798  0.84315518  1
  O  O258  1  0.12961762  0.41862391  0.31805797  1
  O  O259  1  0.13040365  0.42276137  0.64938289  1
  O  O260  1  0.13060751  0.41997619  0.98124867  1
  O  O261  1  0.12915766  0.92205943  0.31784284  1
  O  O262  1  0.13393324  0.92010223  0.65419761  1
  O  O263  1  0.13308582  0.91831238  0.98703047  1
  O  O264  1  0.62939542  0.42621811  0.31168326  1
  O  O265  1  0.63532187  0.41997039  0.65322617  1
  O  O266  1  0.63660056  0.42662649  0.98526272  1
  O  O267  1  0.63118380  0.90630461  0.31605585  1
  O  O268  1  0.63753314  0.91580815  0.65114108  1
  O  O269  1  0.62710817  0.90775145  0.98023831  1
  O  O270  1  0.03752025  0.20399146  0.10439348  1
  O  O271  1  0.04382580  0.20146492  0.44040247  1
  O  O272  1  0.03177078  0.20010554  0.76887554  1
  O  O273  1  0.03257315  0.69966997  0.10438576  1
  O  O274  1  0.03894995  0.68884643  0.43771207  1
  O  O275  1  0.02456791  0.70250689  0.77092957  1
  O  O276  1  0.52055479  0.21063897  0.10216566  1
  O  O277  1  0.52389962  0.20899171  0.44664267  1
  O  O278  1  0.53755386  0.19479684  0.76666514  1
  O  O279  1  0.52772630  0.69790634  0.10094267  1
  O  O280  1  0.53241971  0.70388653  0.43592746  1
  O  O281  1  0.53066706  0.69193901  0.76645078  1
  O  O282  1  0.29807239  0.46678134  0.06144491  1
  O  O283  1  0.30030585  0.47112668  0.40045140  1
  O  O284  1  0.29021675  0.47721444  0.72872744  1
  O  O285  1  0.30221244  0.97406822  0.06399026  1
  O  O286  1  0.29838238  0.97083414  0.39549860  1
  O  O287  1  0.29744791  0.96785364  0.73103988  1
  O  O288  1  0.80711674  0.47355151  0.06416218  1
  O  O289  1  0.79226421  0.45744304  0.38566735  1
  O  O290  1  0.80992985  0.47568973  0.73196567  1
  O  O291  1  0.80809360  0.96251949  0.06900312  1
  O  O292  1  0.80635528  0.96288790  0.39446515  1
  O  O293  1  0.80301579  0.96837035  0.73181894  1
  O  O294  1  0.46579219  0.30475093  0.22773360  1
  O  O295  1  0.46126434  0.30116700  0.55685754  1
  O  O296  1  0.45735507  0.31641869  0.90316844  1
  O  O297  1  0.47059251  0.80034968  0.23171831  1
  O  O298  1  0.47588792  0.80150307  0.56544784  1
  O  O299  1  0.46891484  0.79891816  0.89758929  1
  O  O300  1  0.96564436  0.30193253  0.22637404  1
  O  O301  1  0.97130699  0.28779038  0.55655683  1
  O  O302  1  0.97283458  0.30117565  0.89469663  1
  O  O303  1  0.96457409  0.80062135  0.22694348  1
  O  O304  1  0.96786550  0.79808576  0.56869527  1
  O  O305  1  0.97306297  0.80227861  0.90116419  1
  O  O306  1  0.19922018  0.03042318  0.26932928  1
  O  O307  1  0.19902704  0.02938706  0.60270684  1
  O  O308  1  0.19963043  0.02759936  0.93797336  1
  O  O309  1  0.18514670  0.52861294  0.26579679  1
  O  O310  1  0.19961950  0.53392999  0.60316498  1
  O  O311  1  0.19735361  0.53177687  0.93743759  1
  O  O312  1  0.70563484  0.02025842  0.27261721  1
  O  O313  1  0.70394395  0.03178488  0.60965840  1
  O  O314  1  0.70514747  0.01558233  0.92911198  1
  O  O315  1  0.70614896  0.54204817  0.27371790  1
  O  O316  1  0.68880326  0.53569016  0.60149519  1
  O  O317  1  0.70667732  0.53517419  0.93627895  1
  O  O318  1  0.08866070  0.09191785  0.03564865  1
  O  O319  1  0.08749863  0.08584242  0.36800710  1
  O  O320  1  0.08789108  0.08884221  0.70449571  1
  O  O321  1  0.08179131  0.58581477  0.03522476  1
  O  O322  1  0.09330980  0.58528559  0.36312259  1
  O  O323  1  0.08038838  0.59091450  0.70913641  1
  O  O324  1  0.58142392  0.10170991  0.04757152  1
  O  O325  1  0.56782484  0.08708410  0.39221217  1
  O  O326  1  0.58240095  0.08361659  0.69304959  1
  O  O327  1  0.58566356  0.58681465  0.03924646  1
  O  O328  1  0.58886419  0.59261197  0.37231047  1
  O  O329  1  0.58691211  0.58245902  0.70029160  1
  O  O330  1  0.40668046  0.40583003  0.12705457  1
  O  O331  1  0.41004167  0.41436678  0.46578678  1
  O  O332  1  0.40869118  0.43094910  0.79035488  1
  O  O333  1  0.40920891  0.91249151  0.12730133  1
  O  O334  1  0.40915996  0.91516903  0.45798034  1
  O  O335  1  0.40576855  0.90836527  0.79253022  1
  O  O336  1  0.91967794  0.42007817  0.12839052  1
  O  O337  1  0.90694399  0.40715398  0.45045946  1
  O  O338  1  0.91775128  0.41574588  0.79293568  1
  O  O339  1  0.91452285  0.91138176  0.14342726  1
  O  O340  1  0.91944559  0.92404759  0.47296136  1
  O  O341  1  0.91057487  0.91283548  0.80227803  1
  O  O342  1  0.39894943  0.40255813  0.29401075  1
  O  O343  1  0.41157103  0.41482407  0.62738636  1
  O  O344  1  0.41131690  0.42323791  0.98093739  1
  O  O345  1  0.41501031  0.91196987  0.29702993  1
  O  O346  1  0.41296892  0.90762212  0.62661142  1
  O  O347  1  0.40910349  0.90667622  0.96222292  1
  O  O348  1  0.92067856  0.41645893  0.29812714  1
  O  O349  1  0.91446634  0.39934918  0.61512244  1
  O  O350  1  0.92472658  0.41717931  0.96068522  1
  O  O351  1  0.90322711  0.90897821  0.29283107  1
  O  O352  1  0.90664042  0.90536734  0.62756375  1
  O  O353  1  0.91036781  0.90982356  0.96044849  1
  O  O354  1  0.08859610  0.08666113  0.20657168  1
  O  O355  1  0.08837120  0.08336478  0.53614641  1
  O  O356  1  0.08806534  0.08491906  0.87737844  1
  O  O357  1  0.07769133  0.58395208  0.19666208  1
  O  O358  1  0.09061205  0.59137536  0.53817721  1
  O  O359  1  0.08422791  0.58364263  0.87236669  1
  O  O360  1  0.59648867  0.08161342  0.21936916  1
  O  O361  1  0.59111862  0.08814676  0.54642351  1
  O  O362  1  0.59678371  0.08038119  0.88105864  1
  O  O363  1  0.59417416  0.59140805  0.20281592  1
  O  O364  1  0.58408663  0.58910217  0.52901666  1
  O  O365  1  0.59190101  0.58303143  0.86673490  1
  O  O366  1  0.14070318  0.22605079  0.05481116  1
  O  O367  1  0.14356585  0.21812512  0.38574913  1
  O  O368  1  0.13888037  0.22343901  0.72420295  1
  O  O369  1  0.13714617  0.71872809  0.05452646  1
  O  O370  1  0.14251422  0.72246069  0.39287665  1
  O  O371  1  0.13618046  0.72390541  0.73106909  1
  O  O372  1  0.63260100  0.23295054  0.06351045  1
  O  O373  1  0.63173866  0.21071781  0.39792636  1
  O  O374  1  0.64027118  0.21500997  0.71371976  1
  O  O375  1  0.63803753  0.72015727  0.05908837  1
  O  O376  1  0.64220402  0.72575290  0.39284313  1
  O  O377  1  0.63784840  0.71750080  0.72169197  1
  O  O378  1  0.27199380  0.36664820  0.11194173  1
  O  O379  1  0.27585833  0.36275501  0.44274694  1
  O  O380  1  0.27928874  0.36593457  0.77103682  1
  O  O381  1  0.27318995  0.86383951  0.10257251  1
  O  O382  1  0.27545273  0.86289704  0.43923942  1
  O  O383  1  0.27179582  0.86368450  0.77871165  1
  O  O384  1  0.78664450  0.36210199  0.10516973  1
  O  O385  1  0.77661542  0.35759266  0.44145993  1
  O  O386  1  0.78313159  0.36530275  0.77251522  1
  O  O387  1  0.77967820  0.85340671  0.10939250  1
  O  O388  1  0.78751436  0.85761959  0.44187713  1
  O  O389  1  0.77381167  0.86377333  0.77666934  1
  O  O390  1  0.36172577  0.26536316  0.26910489  1
  O  O391  1  0.36263842  0.28162306  0.61113554  1
  O  O392  1  0.35200066  0.28761313  0.94846806  1
  O  O393  1  0.36512044  0.77802956  0.27954928  1
  O  O394  1  0.36465770  0.77222128  0.60291735  1
  O  O395  1  0.36016738  0.77163186  0.93909499  1
  O  O396  1  0.85807190  0.28498234  0.27321270  1
  O  O397  1  0.86351597  0.26759348  0.60189986  1
  O  O398  1  0.86843457  0.28671818  0.94676683  1
  O  O399  1  0.86518562  0.77351868  0.27785148  1
  O  O400  1  0.86044703  0.77139510  0.61246460  1
  O  O401  1  0.86231388  0.77494279  0.93994113  1
  O  O402  1  0.22156258  0.14011085  0.22602293  1
  O  O403  1  0.22159100  0.13732835  0.55733354  1
  O  O404  1  0.22051610  0.13723795  0.89440560  1
  O  O405  1  0.21299584  0.63813853  0.22519421  1
  O  O406  1  0.22522847  0.63754127  0.55485768  1
  O  O407  1  0.21683072  0.63985968  0.89238009  1
  O  O408  1  0.72741744  0.12466680  0.22421476  1
  O  O409  1  0.72298689  0.13261949  0.55645502  1
  O  O410  1  0.72842767  0.13066431  0.89510657  1
  O  O411  1  0.72873970  0.64160737  0.22079954  1
  O  O412  1  0.72035907  0.63980230  0.55639844  1
  O  O413  1  0.72490562  0.64064703  0.88887024  1
  O  O414  1  0.48411362  0.33461533  0.03693703  1
  O  O415  1  0.48832290  0.32817846  0.35957165  1
  O  O416  1  0.49688383  0.34061240  0.69270895  1
  O  O417  1  0.48866638  0.82818215  0.02983264  1
  O  O418  1  0.49546755  0.83694437  0.36622306  1
  O  O419  1  0.49108241  0.82967218  0.69630821  1
  O  O420  1  1.00076620  0.33970186  0.03019124  1
  O  O421  1  0.99180200  0.33009557  0.35998526  1
  O  O422  1  0.99205305  0.32619719  0.69067423  1
  O  O423  1  0.98932961  0.83410083  0.03265527  1
  O  O424  1  0.99533286  0.84171419  0.36176719  1
  O  O425  1  0.98855434  0.83410309  0.70184286  1
  O  O426  1  0.16710753  0.01049563  0.13672245  1
  O  O427  1  0.16736777  0.00639279  0.46938691  1
  O  O428  1  0.16466673  0.00757516  0.80551447  1
  O  O429  1  0.16145829  0.50851426  0.13428350  1
  O  O430  1  0.16486821  0.50824959  0.46848693  1
  O  O431  1  0.16447958  0.50967762  0.80322440  1
  O  O432  1  0.65854238  -0.00232673  0.13719809  1
  O  O433  1  0.65922391  0.00034289  0.47469228  1
  O  O434  1  0.66586609  0.00826337  0.79806396  1
  O  O435  1  0.67206680  0.50977085  0.13819789  1
  O  O436  1  0.66689627  0.50858657  0.46909947  1
  O  O437  1  0.67401907  0.50859945  0.80197947  1
  O  O438  1  0.00930723  0.16620798  0.30450481  1
  O  O439  1  0.00964720  0.16548766  0.63538013  1
  O  O440  1  0.00904398  0.17015622  0.96982797  1
  O  O441  1  0.01167107  0.66919008  0.30566704  1
  O  O442  1  0.00824060  0.67054024  0.63807077  1
  O  O443  1  0.00496377  0.66655057  0.96980818  1
  O  O444  1  0.50037214  0.15930177  0.31154222  1
  O  O445  1  0.50587937  0.16928733  0.63296322  1
  O  O446  1  0.50595069  0.17482298  0.96905540  1
  O  O447  1  0.51148149  0.66995682  0.30331921  1
  O  O448  1  0.50838894  0.66155512  0.63330897  1
  O  O449  1  0.50918970  0.66385207  0.96826328  1
  O  O450  1  0.33827721  0.49763220  0.19613288  1
  O  O451  1  0.33138196  0.49281356  0.53314919  1
  O  O452  1  0.32760001  0.49471994  0.86297893  1
  O  O453  1  0.33050573  0.99050759  0.19549099  1
  O  O454  1  0.33163040  0.99160718  0.52919946  1
  O  O455  1  0.33339194  0.99218784  0.86457680  1
  O  O456  1  0.83895803  0.49206806  0.19695980  1
  O  O457  1  0.83490158  0.49167570  0.52118842  1
  O  O458  1  0.84236850  0.49309468  0.86469759  1
  O  O459  1  0.82532394  0.98428818  0.20003000  1
  O  O460  1  0.82622492  0.99035182  0.52771626  1
  O  O461  1  0.83330809  0.99335149  0.86638564  1
