# generated using pymatgen
data_Na31Fe20(SO4)36
_symmetry_space_group_name_H-M   'P 1'
_cell_length_a   18.07488791
_cell_length_b   18.07073913
_cell_length_c   19.71116490
_cell_angle_alpha   107.55694688
_cell_angle_beta   107.63272585
_cell_angle_gamma   90.71584909
_symmetry_Int_Tables_number   1
_chemical_formula_structural   Na31Fe20(SO4)36
_chemical_formula_sum   'Na62 Fe40 S72 O288'
_cell_volume   5811.54584088
_cell_formula_units_Z   2
loop_
 _symmetry_equiv_pos_site_id
 _symmetry_equiv_pos_as_xyz
  1  'x, y, z'
loop_
 _atom_site_type_symbol
 _atom_site_label
 _atom_site_symmetry_multiplicity
 _atom_site_fract_x
 _atom_site_fract_y
 _atom_site_fract_z
 _atom_site_occupancy
  Na  Na0  1  0.14001965  0.35787582  0.07905975  1
  Na  Na1  1  0.12270499  0.37227109  0.40761032  1
  Na  Na2  1  0.11986260  0.37592106  0.74717645  1
  Na  Na3  1  0.13290586  0.86790955  0.08216881  1
  Na  Na4  1  0.13290356  0.86697668  0.41815100  1
  Na  Na5  1  0.15095196  0.86496203  0.77138337  1
  Na  Na6  1  0.62942459  0.36465194  0.08055598  1
  Na  Na7  1  0.63623120  0.36067557  0.41276103  1
  Na  Na8  1  0.62689270  0.36938388  0.74467222  1
  Na  Na9  1  0.63156731  0.86185087  0.08255690  1
  Na  Na10  1  0.63745175  0.86554455  0.41150131  1
  Na  Na11  1  0.64339837  0.86613632  0.75877025  1
  Na  Na12  1  0.36590078  0.13585451  0.24825533  1
  Na  Na13  1  0.36276667  0.13337670  0.58180868  1
  Na  Na14  1  0.35709188  0.13522318  0.91956711  1
  Na  Na15  1  0.36733511  0.64020260  0.24944196  1
  Na  Na16  1  0.37186030  0.63165556  0.58929865  1
  Na  Na17  1  0.33194036  0.63368711  0.88584983  1
  Na  Na18  1  0.86336079  0.13487184  0.25332606  1
  Na  Na19  1  0.85951877  0.12629847  0.57167825  1
  Na  Na20  1  0.87684872  0.14364131  0.92908161  1
  Na  Na21  1  0.87432653  0.62863840  0.25346449  1
  Na  Na22  1  0.87535389  0.63328926  0.58754634  1
  Na  Na23  1  0.86372597  0.63734804  0.91402568  1
  Na  Na24  1  0.98251121  0.01114975  0.10369168  1
  Na  Na25  1  0.45372189  0.00510674  0.07564351  1
  Na  Na26  1  0.50920655  0.00135827  0.41689379  1
  Na  Na27  1  0.49073819  0.00802862  0.75321574  1
  Na  Na28  1  0.46112255  0.50557294  0.41882139  1
  Na  Na29  1  1.01708998  0.45647935  0.14660833  1
  Na  Na30  1  0.98963791  0.02065889  0.75091584  1
  Na  Na31  1  0.48906174  0.53887016  0.09272306  1
  Na  Na32  1  0.98702145  0.01616660  0.39758154  1
  Na  Na33  1  0.00600761  0.45626614  0.89102901  1
  Na  Na34  1  0.49178572  0.51663087  0.89689885  1
  Na  Na35  1  0.49179556  0.51149220  0.25660169  1
  Na  Na36  1  0.05513061  0.51297066  0.60639410  1
  Na  Na37  1  0.49529778  0.98949367  0.92096123  1
  Na  Na38  1  0.54762213  0.99206275  0.25929683  1
  Na  Na39  1  0.01507055  0.97346229  0.57942852  1
  Na  Na40  1  0.51273404  0.99008674  0.58338216  1
  Na  Na41  1  0.01777559  0.98850841  0.92001289  1
  Na  Na42  1  0.22807775  0.72339674  0.68190592  1
  Na  Na43  1  0.75306027  0.75412301  -0.00978024  1
  Na  Na44  1  0.25966802  0.26698045  0.32248328  1
  Na  Na45  1  0.24561176  0.25027984  0.66902537  1
  Na  Na46  1  0.76692304  0.26085272  0.65722528  1
  Na  Na47  1  0.25661131  0.76684683  -0.01988150  1
  Na  Na48  1  0.76956040  0.26464126  0.00066811  1
  Na  Na49  1  0.74449339  0.74303412  0.67696869  1
  Na  Na50  1  0.73804725  0.73630220  0.33511906  1
  Na  Na51  1  0.24551931  0.74781323  0.33680149  1
  Na  Na52  1  0.73640766  0.74008139  0.17165052  1
  Na  Na53  1  0.23728178  0.73555290  0.51065250  1
  Na  Na54  1  0.25263270  0.25917857  0.49296676  1
  Na  Na55  1  0.77025174  0.26544516  0.82708731  1
  Na  Na56  1  0.75095902  0.74741240  0.50403636  1
  Na  Na57  1  0.75957417  0.25165574  0.47914768  1
  Na  Na58  1  0.23830624  0.24255545  0.84319819  1
  Na  Na59  1  0.25634742  0.75674375  0.16231224  1
  Na  Na60  1  0.74646888  0.24358324  0.17300581  1
  Na  Na61  1  0.26696954  0.27000484  0.15563410  1
  Fe  Fe62  1  0.46655059  0.80550214  0.44987676  1
  Fe  Fe63  1  0.46244420  0.80604358  0.78246374  1
  Fe  Fe64  1  0.96289741  0.80968354  0.12086472  1
  Fe  Fe65  1  0.46488745  0.31421350  0.12243574  1
  Fe  Fe66  1  0.46779869  0.80015285  0.11972085  1
  Fe  Fe67  1  0.96236456  0.30799816  0.45081197  1
  Fe  Fe68  1  0.46590550  0.31157853  0.45561958  1
  Fe  Fe69  1  0.96470451  0.80614141  0.78650272  1
  Fe  Fe70  1  0.46589643  0.30636771  0.78682151  1
  Fe  Fe71  1  0.97119625  0.79410302  0.45530581  1
  Fe  Fe72  1  0.19347681  0.53426176  0.04763910  1
  Fe  Fe73  1  0.68996089  0.53754906  0.71259612  1
  Fe  Fe74  1  0.69332241  0.53376185  0.37903343  1
  Fe  Fe75  1  0.20309066  0.03367422  0.04453932  1
  Fe  Fe76  1  0.19753287  0.53122294  0.37247542  1
  Fe  Fe77  1  0.19621728  0.02971615  0.71636991  1
  Fe  Fe78  1  0.69469431  0.03612755  0.71872445  1
  Fe  Fe79  1  0.69064231  0.03437718  0.05001977  1
  Fe  Fe80  1  0.18772294  0.03790712  0.37605005  1
  Fe  Fe81  1  0.68878112  0.53451308  0.04628971  1
  Fe  Fe82  1  0.53572335  0.19578402  0.88528108  1
  Fe  Fe83  1  0.53740913  0.19330260  0.21860766  1
  Fe  Fe84  1  0.53518257  0.69129668  0.87637863  1
  Fe  Fe85  1  0.03128585  0.20157900  0.21043593  1
  Fe  Fe86  1  0.03388015  0.69044255  0.20767140  1
  Fe  Fe87  1  0.04039159  0.67698578  0.87495093  1
  Fe  Fe88  1  0.03421200  0.20091414  0.88071394  1
  Fe  Fe89  1  0.53570033  0.19368564  0.54959020  1
  Fe  Fe90  1  0.53551405  0.69244751  0.54843472  1
  Fe  Fe91  1  0.03423808  0.19349677  0.54773838  1
  Fe  Fe92  1  0.30654390  0.96869742  0.28662660  1
  Fe  Fe93  1  0.80707826  0.96731779  0.61910163  1
  Fe  Fe94  1  0.30730539  0.46765609  0.95090118  1
  Fe  Fe95  1  0.79701643  0.96638608  0.28788195  1
  Fe  Fe96  1  0.81194712  0.46578432  0.95554375  1
  Fe  Fe97  1  0.81073302  0.46298000  0.28786346  1
  Fe  Fe98  1  0.81306266  0.46440855  0.62335636  1
  Fe  Fe99  1  0.80451847  0.96495115  0.95186089  1
  Fe  Fe100  1  0.30847140  0.96376235  0.61646165  1
  Fe  Fe101  1  0.30404104  0.46606480  0.62410685  1
  S  S102  1  0.36351539  0.14572111  0.08659329  1
  S  S103  1  0.35795879  0.14328651  0.41901110  1
  S  S104  1  0.36166270  0.13825779  0.75003745  1
  S  S105  1  0.35428611  0.64374144  0.07823847  1
  S  S106  1  0.36033831  0.64296462  0.41728878  1
  S  S107  1  0.36232867  0.63756571  0.74665171  1
  S  S108  1  0.85771958  0.13800167  0.08396952  1
  S  S109  1  0.86260115  0.13508090  0.41697167  1
  S  S110  1  0.85805598  0.14188920  0.75254188  1
  S  S111  1  0.85529524  0.64277526  0.08253531  1
  S  S112  1  0.85639891  0.63903162  0.41465739  1
  S  S113  1  0.85818142  0.64177225  0.75049548  1
  S  S114  1  0.14682321  0.35931175  0.24921602  1
  S  S115  1  0.13998050  0.35633211  0.58175456  1
  S  S116  1  0.14651285  0.35888529  0.91857778  1
  S  S117  1  0.13949804  0.86144820  0.24875930  1
  S  S118  1  0.14577845  0.85627104  0.58245299  1
  S  S119  1  0.13390307  0.86041629  0.92115591  1
  S  S120  1  0.64212697  0.35710630  0.25074493  1
  S  S121  1  0.64143512  0.35955791  0.58461437  1
  S  S122  1  0.64205348  0.35761119  0.91588991  1
  S  S123  1  0.64029721  0.85487386  0.24792585  1
  S  S124  1  0.64047120  0.86218603  0.58544062  1
  S  S125  1  0.63609466  0.86273793  0.91477467  1
  S  S126  1  0.07303105  0.16712205  0.04339229  1
  S  S127  1  0.06723651  0.17048990  0.37348241  1
  S  S128  1  0.06814922  0.15921638  0.70487479  1
  S  S129  1  0.06818128  0.67394375  0.04436299  1
  S  S130  1  0.07552758  0.67236751  0.37195569  1
  S  S131  1  0.06551447  0.67397450  0.71808311  1
  S  S132  1  0.56532895  0.16789254  0.04235438  1
  S  S133  1  0.56002577  0.16839759  0.37967020  1
  S  S134  1  0.56684081  0.16769445  0.71154687  1
  S  S135  1  0.56241390  0.66632771  0.03648852  1
  S  S136  1  0.56507003  0.67094955  0.37821729  1
  S  S137  1  0.57249853  0.67605516  0.71022567  1
  S  S138  1  0.33892101  0.44400843  0.12661354  1
  S  S139  1  0.32493981  0.43291937  0.45831647  1
  S  S140  1  0.33108057  0.42851712  0.78988981  1
  S  S141  1  0.33350733  0.93355649  0.12713145  1
  S  S142  1  0.33330180  0.93580589  0.45667491  1
  S  S143  1  0.33675893  0.93639659  0.79025933  1
  S  S144  1  0.82016893  0.43308006  0.11974897  1
  S  S145  1  0.82794132  0.43282136  0.45958393  1
  S  S146  1  0.82297049  0.43480041  0.78685676  1
  S  S147  1  0.82422448  0.93011268  0.12364329  1
  S  S148  1  0.83217444  0.92216961  0.45715469  1
  S  S149  1  0.83290628  0.93610328  0.79264274  1
  S  S150  1  0.44089290  0.33466320  0.29268961  1
  S  S151  1  0.42736375  0.32505960  0.62202135  1
  S  S152  1  0.43369958  0.33028420  0.95629469  1
  S  S153  1  0.43164327  0.83588568  0.29319232  1
  S  S154  1  0.43643129  0.83398061  0.62259222  1
  S  S155  1  0.43611271  0.82687845  0.95526050  1
  S  S156  1  0.92883926  0.32506771  0.28795469  1
  S  S157  1  0.93139555  0.32351212  0.61865914  1
  S  S158  1  0.93914767  0.33491888  0.96046321  1
  S  S159  1  0.92876349  0.82672614  0.28983592  1
  S  S160  1  0.93413550  0.83671616  0.62826685  1
  S  S161  1  0.92796864  0.83791168  0.96224691  1
  S  S162  1  0.17355817  0.07314675  0.21023403  1
  S  S163  1  0.16987793  0.06644775  0.54106016  1
  S  S164  1  0.16738518  0.06732232  0.87377220  1
  S  S165  1  0.17344157  0.57069921  0.20905461  1
  S  S166  1  0.17645664  0.56478438  0.53904147  1
  S  S167  1  0.16471268  0.56014872  0.87844274  1
  S  S168  1  0.66466029  0.06488724  0.20429397  1
  S  S169  1  0.66559444  0.06387637  0.54494476  1
  S  S170  1  0.66852796  0.06978076  0.87908036  1
  S  S171  1  0.66497812  0.55873877  0.20846856  1
  S  S172  1  0.66887185  0.56725466  0.54042182  1
  S  S173  1  0.67058193  0.56591512  0.87641138  1
  O  O174  1  0.37201091  0.22794327  0.08571236  1
  O  O175  1  0.36387837  0.22381893  0.41359827  1
  O  O176  1  0.36946788  0.21668025  0.74085754  1
  O  O177  1  0.36409634  0.72472500  0.07329621  1
  O  O178  1  0.36727939  0.72458148  0.41356667  1
  O  O179  1  0.37653744  0.71361486  0.73257273  1
  O  O180  1  0.86542903  0.21359670  0.07366431  1
  O  O181  1  0.87159841  0.21312594  0.40776013  1
  O  O182  1  0.86145851  0.21969295  0.74543735  1
  O  O183  1  0.86558060  0.72252774  0.07593887  1
  O  O184  1  0.86926102  0.71727795  0.40407722  1
  O  O185  1  0.86859699  0.71938634  0.73915094  1
  O  O186  1  0.28495204  0.13416974  0.09497597  1
  O  O187  1  0.28003118  0.13058626  0.42841593  1
  O  O188  1  0.28293336  0.12791621  0.75766355  1
  O  O189  1  0.27387496  0.63572556  0.08405762  1
  O  O190  1  0.27811027  0.63104241  0.41984937  1
  O  O191  1  0.28583910  0.63406539  0.75651703  1
  O  O192  1  0.77970236  0.12607133  0.09452271  1
  O  O193  1  0.79036187  0.12449538  0.43285160  1
  O  O194  1  0.78162438  0.12742272  0.76555621  1
  O  O195  1  0.77602193  0.63400369  0.09038631  1
  O  O196  1  0.77116079  0.63445362  0.41246147  1
  O  O197  1  0.77846555  0.63460728  0.75663990  1
  O  O198  1  0.12717431  0.28571112  0.26449897  1
  O  O199  1  0.13048136  0.27525843  0.58753642  1
  O  O200  1  0.13571202  0.27866685  0.92349271  1
  O  O201  1  0.13101949  0.78165972  0.25488965  1
  O  O202  1  0.14402468  0.77842360  0.58893555  1
  O  O203  1  0.11560609  0.78584668  0.93441759  1
  O  O204  1  0.63268180  0.27939488  0.26070133  1
  O  O205  1  0.63068647  0.28158541  0.59581760  1
  O  O206  1  0.63317868  0.27971822  0.92698190  1
  O  O207  1  0.63649322  0.77571120  0.25241591  1
  O  O208  1  0.63242693  0.78276225  0.59216506  1
  O  O209  1  0.63035192  0.78392798  0.92330992  1
  O  O210  1  0.22771699  0.35996072  0.24875793  1
  O  O211  1  0.22236403  0.36436087  0.57938341  1
  O  O212  1  0.22832211  0.36806051  0.91611558  1
  O  O213  1  0.21801200  0.87172756  0.23953641  1
  O  O214  1  0.22077283  0.87303249  0.56763821  1
  O  O215  1  0.20927149  0.86125785  0.90901694  1
  O  O216  1  0.72099270  0.36584162  0.24324720  1
  O  O217  1  0.72209638  0.36612847  0.57939599  1
  O  O218  1  0.72280505  0.36637776  0.91165723  1
  O  O219  1  0.71706856  0.86969751  0.23498181  1
  O  O220  1  0.71871813  0.87215289  0.57665617  1
  O  O221  1  0.71337483  0.87521872  0.90502881  1
  O  O222  1  0.42232523  0.13469518  0.15478633  1
  O  O223  1  0.41860683  0.13386904  0.48583831  1
  O  O224  1  0.42174558  0.13088572  0.81795683  1
  O  O225  1  0.41182690  0.63301809  0.14407129  1
  O  O226  1  0.41536923  0.63671290  0.48894134  1
  O  O227  1  0.42347021  0.62986571  0.81428092  1
  O  O228  1  0.91857463  0.12853011  0.15114978  1
  O  O229  1  0.92974920  0.12338868  0.47969083  1
  O  O230  1  0.92081592  0.13241166  0.81846460  1
  O  O231  1  0.91428138  0.63401972  0.15001069  1
  O  O232  1  0.90698219  0.63339956  0.48426561  1
  O  O233  1  0.91594639  0.63725834  0.82060723  1
  O  O234  1  0.37342360  0.09018184  0.01948039  1
  O  O235  1  0.36559549  0.08679116  0.34969518  1
  O  O236  1  0.37123941  0.07884119  0.68240210  1
  O  O237  1  0.36207258  0.58721848  0.00790193  1
  O  O238  1  0.37467652  0.58685405  0.35324075  1
  O  O239  1  0.36868479  0.57496146  0.67941211  1
  O  O240  1  0.86461940  0.07545961  0.01621951  1
  O  O241  1  0.86726677  0.07491118  0.34635105  1
  O  O242  1  0.86481584  0.08237853  0.68306446  1
  O  O243  1  0.86175343  0.58517963  0.01326086  1
  O  O244  1  0.86476004  0.57911354  0.34701950  1
  O  O245  1  0.86646160  0.58095782  0.68378467  1
  O  O246  1  0.09250887  0.36637733  0.18025894  1
  O  O247  1  0.08531535  0.36182810  0.51025679  1
  O  O248  1  0.09096908  0.36906160  0.85140517  1
  O  O249  1  0.07919276  0.87073659  0.18230252  1
  O  O250  1  0.08153524  0.86520069  0.51651578  1
  O  O251  1  0.07216659  0.87431879  0.85625613  1
  O  O252  1  0.58355807  0.36288748  0.18079260  1
  O  O253  1  0.58493466  0.36384193  0.51385334  1
  O  O254  1  0.58551260  0.36096116  0.84443778  1
  O  O255  1  0.57883186  0.86365125  0.17971009  1
  O  O256  1  0.58012051  0.87248997  0.51891991  1
  O  O257  1  0.57489555  0.87131037  0.84783775  1
  O  O258  1  0.13926992  0.42484450  0.31631774  1
  O  O259  1  0.12795088  0.41412548  0.64614369  1
  O  O260  1  0.13714030  0.41635308  0.98755249  1
  O  O261  1  0.13484926  0.91917103  0.31903847  1
  O  O262  1  0.13868724  0.91577114  0.65127741  1
  O  O263  1  0.13142354  0.92485312  0.99001553  1
  O  O264  1  0.63245524  0.41824205  0.31689706  1
  O  O265  1  0.63126108  0.42045322  0.64972813  1
  O  O266  1  0.62921552  0.41788275  0.98016736  1
  O  O267  1  0.63229844  0.91376023  0.31469463  1
  O  O268  1  0.63244452  0.92037323  0.65455599  1
  O  O269  1  0.62691868  0.92107806  0.98288719  1
  O  O270  1  0.03284464  0.18246400  0.10038977  1
  O  O271  1  0.03121836  0.20070683  0.43436087  1
  O  O272  1  0.03530572  0.18210031  0.76684879  1
  O  O273  1  0.02577770  0.70191803  0.10214618  1
  O  O274  1  0.03662677  0.69630798  0.42949620  1
  O  O275  1  0.03010926  0.70965661  0.78254573  1
  O  O276  1  0.53132866  0.19819399  0.10429173  1
  O  O277  1  0.52339848  0.20551901  0.44052043  1
  O  O278  1  0.53103947  0.19806811  0.77288132  1
  O  O279  1  0.52619128  0.69480504  0.09570948  1
  O  O280  1  0.53236308  0.70258192  0.44364167  1
  O  O281  1  0.53699314  0.70724368  0.77169427  1
  O  O282  1  0.30534441  0.47526874  0.06140597  1
  O  O283  1  0.29950964  0.47633821  0.40308439  1
  O  O284  1  0.30693005  0.46191409  0.72830289  1
  O  O285  1  0.30710116  0.97178141  0.06853988  1
  O  O286  1  0.30291250  0.97247406  0.39627320  1
  O  O287  1  0.30276084  0.96742489  0.72430657  1
  O  O288  1  0.78962146  0.47396861  0.06021841  1
  O  O289  1  0.79810240  0.47060181  0.39896451  1
  O  O290  1  0.79011668  0.47413634  0.72727449  1
  O  O291  1  0.79389683  0.96616985  0.06196132  1
  O  O292  1  0.80914352  0.95411609  0.39468455  1
  O  O293  1  0.80128853  0.96988983  0.72973222  1
  O  O294  1  0.47761568  0.29902715  0.23228041  1
  O  O295  1  0.46758348  0.29893530  0.56313086  1
  O  O296  1  0.47322733  0.30064548  0.89649658  1
  O  O297  1  0.46293269  0.81131008  0.23068069  1
  O  O298  1  0.47236694  0.80285274  0.56150620  1
  O  O299  1  0.47131119  0.79250535  0.89283161  1
  O  O300  1  0.96833672  0.29893621  0.23092603  1
  O  O301  1  0.96727494  0.29495538  0.55495308  1
  O  O302  1  0.97313234  0.30192381  0.89900286  1
  O  O303  1  0.96817264  0.80083082  0.23004834  1
  O  O304  1  0.96873399  0.81113511  0.56770884  1
  O  O305  1  0.95616138  0.80908341  0.89727893  1
  O  O306  1  0.20076670  0.03388030  0.27064981  1
  O  O307  1  0.20083321  0.03103357  0.60255835  1
  O  O308  1  0.19656884  0.03508238  0.93577211  1
  O  O309  1  0.19850129  0.53722008  0.27161159  1
  O  O310  1  0.20574977  0.51857003  0.59179604  1
  O  O311  1  0.20161389  0.52703392  0.94246316  1
  O  O312  1  0.69532501  0.03255440  0.26647398  1
  O  O313  1  0.69946351  0.03312109  0.61070691  1
  O  O314  1  0.69780053  0.03384334  0.94018943  1
  O  O315  1  0.70417787  0.52167973  0.26772136  1
  O  O316  1  0.69824985  0.53143074  0.60158726  1
  O  O317  1  0.69936434  0.52649355  0.93558906  1
  O  O318  1  0.09405475  0.08458992  0.02881036  1
  O  O319  1  0.08289834  0.08776002  0.37036737  1
  O  O320  1  0.08551579  0.07470922  0.69272627  1
  O  O321  1  0.08941424  0.59465015  0.04179658  1
  O  O322  1  0.10362749  0.59423535  0.36779817  1
  O  O323  1  0.09081993  0.59946029  0.72572456  1
  O  O324  1  0.58058015  0.08468803  0.03462017  1
  O  O325  1  0.56745541  0.08649332  0.37637414  1
  O  O326  1  0.58121662  0.08419883  0.70613699  1
  O  O327  1  0.58009559  0.58325376  0.03208042  1
  O  O328  1  0.58789395  0.59096139  0.37699192  1
  O  O329  1  0.59304844  0.59696570  0.70841259  1
  O  O330  1  0.41983208  0.42181103  0.12535518  1
  O  O331  1  0.40395514  0.40963462  0.45634967  1
  O  O332  1  0.41338612  0.40755124  0.80014935  1
  O  O333  1  0.41524327  0.91390835  0.13242101  1
  O  O334  1  0.41614980  0.91945274  0.46275340  1
  O  O335  1  0.41893045  0.91758206  0.79008045  1
  O  O336  1  0.89473366  0.40756564  0.11579307  1
  O  O337  1  0.90783601  0.41263384  0.46329698  1
  O  O338  1  0.90019645  0.41489811  0.78584771  1
  O  O339  1  0.90656543  0.91484530  0.12863029  1
  O  O340  1  0.91451423  0.90228387  0.47011065  1
  O  O341  1  0.91602713  0.92213899  0.79932349  1
  O  O342  1  0.43033476  0.41590910  0.29590978  1
  O  O343  1  0.40231562  0.40274200  0.62495621  1
  O  O344  1  0.41756578  0.41221755  0.96165896  1
  O  O345  1  0.41431453  0.91966048  0.30700595  1
  O  O346  1  0.42244377  0.91771756  0.62745942  1
  O  O347  1  0.42855347  0.90955018  0.96103666  1
  O  O348  1  0.90542160  0.40410730  0.29038564  1
  O  O349  1  0.90718690  0.40215894  0.61929763  1
  O  O350  1  0.91197488  0.41237081  0.95355683  1
  O  O351  1  0.90726094  0.90710181  0.29524319  1
  O  O352  1  0.91772629  0.92138933  0.63806852  1
  O  O353  1  0.91519279  0.92326110  0.97301257  1
  O  O354  1  0.09260793  0.09201207  0.20409026  1
  O  O355  1  0.08675204  0.08031618  0.53341526  1
  O  O356  1  0.08458061  0.08570357  0.86625313  1
  O  O357  1  0.09008868  0.58638394  0.19576092  1
  O  O358  1  0.09831286  0.58191076  0.53866626  1
  O  O359  1  0.08132678  0.56931826  0.87689759  1
  O  O360  1  0.58156264  0.08198784  0.20017403  1
  O  O361  1  0.58409495  0.08456881  0.54560467  1
  O  O362  1  0.58529447  0.08525905  0.87237955  1
  O  O363  1  0.58512544  0.56964411  0.21032887  1
  O  O364  1  0.58685902  0.58523477  0.53365305  1
  O  O365  1  0.59046330  0.58688348  0.87499339  1
  O  O366  1  0.14258950  0.22302315  0.06570626  1
  O  O367  1  0.14031066  0.21926443  0.38937879  1
  O  O368  1  0.14010990  0.21046498  0.72059701  1
  O  O369  1  0.13720914  0.73056914  0.06533763  1
  O  O370  1  0.14340317  0.73063945  0.38901235  1
  O  O371  1  0.13111410  0.73169321  0.73112500  1
  O  O372  1  0.63749765  0.21737049  0.05643412  1
  O  O373  1  0.63423161  0.21494960  0.39621409  1
  O  O374  1  0.63917046  0.21674050  0.72697405  1
  O  O375  1  0.63489996  0.71640736  0.05140750  1
  O  O376  1  0.63472134  0.72538040  0.39383038  1
  O  O377  1  0.64022786  0.73013354  0.72229466  1
  O  O378  1  0.28772453  0.37525517  0.11636982  1
  O  O379  1  0.26928603  0.36287692  0.43831304  1
  O  O380  1  0.27718106  0.35990597  0.77697675  1
  O  O381  1  0.27972611  0.86292058  0.11009568  1
  O  O382  1  0.28245679  0.86459003  0.44105748  1
  O  O383  1  0.28809815  0.86536354  0.77824453  1
  O  O384  1  0.76204067  0.36577579  0.10308103  1
  O  O385  1  0.77370343  0.36350597  0.44379973  1
  O  O386  1  0.76710171  0.36469883  0.76909927  1
  O  O387  1  0.77390942  0.85714825  0.10552969  1
  O  O388  1  0.77776288  0.85284368  0.44326318  1
  O  O389  1  0.78350357  0.86405875  0.77754293  1
  O  O390  1  0.36766700  0.28449643  0.27517868  1
  O  O391  1  0.35952721  0.26719170  0.60403201  1
  O  O392  1  0.36324896  0.27698376  0.93700265  1
  O  O393  1  0.36041151  0.78455358  0.27990774  1
  O  O394  1  0.36372680  0.78577051  0.60697775  1
  O  O395  1  0.36212422  0.77988529  0.93828226  1
  O  O396  1  0.86061812  0.26925839  0.27255675  1
  O  O397  1  0.86063821  0.26727531  0.59794994  1
  O  O398  1  0.86881687  0.28101447  0.94721044  1
  O  O399  1  0.85940434  0.77066288  0.27071082  1
  O  O400  1  0.86085559  0.78732038  0.61238777  1
  O  O401  1  0.85640592  0.79059062  0.95211269  1
  O  O402  1  0.22825335  0.14345252  0.23024024  1
  O  O403  1  0.21985227  0.13927838  0.55791511  1
  O  O404  1  0.21840181  0.13632037  0.88324858  1
  O  O405  1  0.22491615  0.64287620  0.22595532  1
  O  O406  1  0.23302897  0.63565755  0.56219921  1
  O  O407  1  0.20684849  0.63808025  0.89749641  1
  O  O408  1  0.71316023  0.13490283  0.21277224  1
  O  O409  1  0.71590248  0.13412825  0.55635198  1
  O  O410  1  0.71916800  0.14086313  0.89407766  1
  O  O411  1  0.71364834  0.63204282  0.22307202  1
  O  O412  1  0.72091307  0.63938647  0.55723037  1
  O  O413  1  0.72399646  0.63614707  0.89393502  1
  O  O414  1  0.49212757  0.33017837  0.02853154  1
  O  O415  1  0.49653778  0.33420533  0.36665500  1
  O  O416  1  0.48712323  0.32833519  0.69483816  1
  O  O417  1  0.49339329  0.82394203  0.02762277  1
  O  O418  1  0.49358237  0.83527205  0.36455745  1
  O  O419  1  0.49545935  0.83626296  0.69512410  1
  O  O420  1  0.99829071  0.34906252  0.03392913  1
  O  O421  1  0.98687189  0.33182776  0.36376137  1
  O  O422  1  0.99020888  0.32596966  0.68831240  1
  O  O423  1  0.99054287  0.83835985  0.03318074  1
  O  O424  1  0.98786465  0.82897413  0.36271990  1
  O  O425  1  0.99243795  0.83721385  0.70080465  1
  O  O426  1  0.17411188  0.01450675  0.13863243  1
  O  O427  1  0.17058073  0.00832224  0.46873411  1
  O  O428  1  0.16393007  0.00419828  0.80154551  1
  O  O429  1  0.17737530  0.50988237  0.13975008  1
  O  O430  1  0.17548757  0.51327791  0.46154797  1
  O  O431  1  0.16880198  0.50410767  0.80976566  1
  O  O432  1  0.65810685  0.00230389  0.13123883  1
  O  O433  1  0.65582423  0.00065300  0.47507025  1
  O  O434  1  0.66574553  0.00927127  0.80646376  1
  O  O435  1  0.66062190  0.50369017  0.13261355  1
  O  O436  1  0.66807484  0.50805383  0.46849145  1
  O  O437  1  0.66474147  0.50845775  0.80231354  1
  O  O438  1  0.00935565  0.16823018  0.30074827  1
  O  O439  1  0.00796388  0.15969754  0.63351926  1
  O  O440  1  0.01484157  0.17061383  0.97142333  1
  O  O441  1  0.01640401  0.66584553  0.29723905  1
  O  O442  1  0.00354905  0.66389972  0.64708008  1
  O  O443  1  0.01055523  0.67169407  0.97098201  1
  O  O444  1  0.50412347  0.16969427  0.30617333  1
  O  O445  1  0.50718513  0.16601332  0.63924314  1
  O  O446  1  0.50516974  0.16655532  0.97002571  1
  O  O447  1  0.50289510  0.66436801  0.30875214  1
  O  O448  1  0.51039223  0.67071398  0.63750627  1
  O  O449  1  0.50463149  0.65994639  0.96153857  1
  O  O450  1  0.35086384  0.50739988  0.19701990  1
  O  O451  1  0.33311219  0.48667430  0.53462432  1
  O  O452  1  0.33600462  0.49148056  0.86209933  1
  O  O453  1  0.33709988  0.99183969  0.20139857  1
  O  O454  1  0.33626065  0.99493473  0.52993671  1
  O  O455  1  0.34537410  0.99959331  0.85989625  1
  O  O456  1  0.82632738  0.49184744  0.19374845  1
  O  O457  1  0.83087001  0.49299052  0.53218516  1
  O  O458  1  0.82561552  0.49246536  0.86074086  1
  O  O459  1  0.82405347  0.98830297  0.19522899  1
  O  O460  1  0.83068191  0.98512289  0.52743276  1
  O  O461  1  0.83277039  0.99603489  0.86406107  1
