# generated using pymatgen
data_Na31Fe20(SO4)36
_symmetry_space_group_name_H-M   'P 1'
_cell_length_a   18.06945862
_cell_length_b   18.07082808
_cell_length_c   19.70646815
_cell_angle_alpha   107.56985428
_cell_angle_beta   107.55400813
_cell_angle_gamma   90.72163489
_symmetry_Int_Tables_number   1
_chemical_formula_structural   Na31Fe20(SO4)36
_chemical_formula_sum   'Na62 Fe40 S72 O288'
_cell_volume   5810.75862126
_cell_formula_units_Z   2
loop_
 _symmetry_equiv_pos_site_id
 _symmetry_equiv_pos_as_xyz
  1  'x, y, z'
loop_
 _atom_site_type_symbol
 _atom_site_label
 _atom_site_symmetry_multiplicity
 _atom_site_fract_x
 _atom_site_fract_y
 _atom_site_fract_z
 _atom_site_occupancy
  Na  Na0  1  0.15057855  0.37445941  0.09933422  1
  Na  Na1  1  0.13550635  0.35415219  0.40740016  1
  Na  Na2  1  0.13612328  0.35243617  0.75026521  1
  Na  Na3  1  0.13657952  0.87410663  0.09335090  1
  Na  Na4  1  0.12661523  0.87589446  0.41578164  1
  Na  Na5  1  0.12929383  0.86460298  0.74631996  1
  Na  Na6  1  0.63399427  0.36181502  0.08342746  1
  Na  Na7  1  0.62671192  0.36226051  0.40716587  1
  Na  Na8  1  0.64098823  0.36192634  0.75061472  1
  Na  Na9  1  0.64189970  0.86940973  0.08309686  1
  Na  Na10  1  0.63282896  0.87693476  0.41751474  1
  Na  Na11  1  0.62909152  0.85926280  0.74105022  1
  Na  Na12  1  0.36806062  0.13668675  0.25641989  1
  Na  Na13  1  0.36081831  0.14076012  0.57429213  1
  Na  Na14  1  0.35740439  0.13700115  0.91010525  1
  Na  Na15  1  0.36321620  0.63488434  0.25028539  1
  Na  Na16  1  0.36989528  0.63842404  0.57989104  1
  Na  Na17  1  0.36840446  0.63351697  0.91558523  1
  Na  Na18  1  0.85938673  0.13599445  0.25773846  1
  Na  Na19  1  0.87253191  0.12420703  0.57442834  1
  Na  Na20  1  0.86602132  0.13722668  0.91868625  1
  Na  Na21  1  0.86937963  0.62359445  0.24963878  1
  Na  Na22  1  0.86244648  0.62789901  0.57941675  1
  Na  Na23  1  0.86720708  0.63912578  0.92340620  1
  Na  Na24  1  0.49494942  0.50643481  0.07352932  1
  Na  Na25  1  0.50593183  0.07245457  0.12223857  1
  Na  Na26  1  0.97826648  0.01229516  0.09655160  1
  Na  Na27  1  1.00740135  0.48075581  0.74877985  1
  Na  Na28  1  0.99570005  0.49064517  0.11143486  1
  Na  Na29  1  0.49561375  0.50239358  0.76574063  1
  Na  Na30  1  0.46452601  0.52431474  0.41989489  1
  Na  Na31  1  0.48967511  0.01613544  0.74753503  1
  Na  Na32  1  0.99576737  0.02287071  0.72568821  1
  Na  Na33  1  0.49720993  0.48254820  0.25386444  1
  Na  Na34  1  0.00964742  0.99812251  0.91203707  1
  Na  Na35  1  0.50657430  0.49146617  0.58487678  1
  Na  Na36  1  0.50592136  0.99965122  0.54913009  1
  Na  Na37  1  0.53761290  0.98802655  0.93127481  1
  Na  Na38  1  0.00380964  0.43058947  0.54017853  1
  Na  Na39  1  0.53483800  1.00247364  0.29141753  1
  Na  Na40  1  -0.00779783  0.99438279  0.28389939  1
  Na  Na41  1  0.00786755  0.46409656  0.91629997  1
  Na  Na42  1  0.74082099  0.23479347  0.00790988  1
  Na  Na43  1  0.25736455  0.75592924  0.66076882  1
  Na  Na44  1  0.25095101  0.25833467  -0.00748372  1
  Na  Na45  1  0.73229213  0.73759498  0.66842439  1
  Na  Na46  1  0.75057479  0.74748336  0.33078327  1
  Na  Na47  1  0.25873326  0.76837680  0.32729920  1
  Na  Na48  1  0.25585855  0.25377971  0.66746486  1
  Na  Na49  1  0.73846023  0.23711905  0.33810282  1
  Na  Na50  1  0.25228569  0.75593496  -0.00291315  1
  Na  Na51  1  0.77325568  0.26164059  0.66171516  1
  Na  Na52  1  0.25336699  0.75572457  0.82793845  1
  Na  Na53  1  0.25562231  0.75839240  0.49254431  1
  Na  Na54  1  0.73782495  0.74714492  0.50176849  1
  Na  Na55  1  0.74149297  0.22450952  0.49177044  1
  Na  Na56  1  0.74028495  0.74142959  0.84638620  1
  Na  Na57  1  0.25910971  0.76684248  0.16442654  1
  Na  Na58  1  0.24400978  0.25057372  0.18475966  1
  Na  Na59  1  0.72934291  0.22688258  0.17296184  1
  Na  Na60  1  0.76337901  0.25519420  0.82796551  1
  Na  Na61  1  0.75676501  0.75501866  0.15373977  1
  Fe  Fe62  1  0.46667998  0.80016869  0.45176046  1
  Fe  Fe63  1  0.96128220  0.80645468  0.78547711  1
  Fe  Fe64  1  0.46766418  0.80603535  0.78600121  1
  Fe  Fe65  1  0.46567061  0.81381143  0.12282971  1
  Fe  Fe66  1  0.45855708  0.30704731  0.44319301  1
  Fe  Fe67  1  0.46474563  0.30577627  0.12138688  1
  Fe  Fe68  1  0.96629528  0.80318407  0.45602288  1
  Fe  Fe69  1  0.46475000  0.31008177  0.78741451  1
  Fe  Fe70  1  0.96272144  0.80659218  0.11898322  1
  Fe  Fe71  1  0.96611741  0.30622241  0.12378755  1
  Fe  Fe72  1  0.19335670  0.53247092  0.71101627  1
  Fe  Fe73  1  0.20302430  0.03716773  0.37726975  1
  Fe  Fe74  1  0.19704514  0.53560962  0.04871649  1
  Fe  Fe75  1  0.19089651  0.03651074  0.04901183  1
  Fe  Fe76  1  0.69109383  0.53463471  0.04684487  1
  Fe  Fe77  1  0.19908534  0.53330071  0.37748660  1
  Fe  Fe78  1  0.69106559  0.03626350  0.71431642  1
  Fe  Fe79  1  0.18961948  0.03681808  0.70975395  1
  Fe  Fe80  1  0.69219615  0.53427719  0.71414752  1
  Fe  Fe81  1  0.68866043  0.53352086  0.38014927  1
  Fe  Fe82  1  0.03716533  0.68247662  0.54325662  1
  Fe  Fe83  1  0.53420841  0.19424334  0.88162919  1
  Fe  Fe84  1  0.03714110  0.19728184  0.54005761  1
  Fe  Fe85  1  0.03659092  0.20009627  0.23171484  1
  Fe  Fe86  1  0.03305313  0.69245267  0.87916664  1
  Fe  Fe87  1  0.03411550  0.69502145  0.21685575  1
  Fe  Fe88  1  0.53781054  0.69332344  0.88386323  1
  Fe  Fe89  1  0.53543128  0.69177988  0.21261153  1
  Fe  Fe90  1  0.53475007  0.19324569  0.54304623  1
  Fe  Fe91  1  0.03212177  0.20255290  0.87344889  1
  Fe  Fe92  1  0.80277140  0.96550839  0.29536942  1
  Fe  Fe93  1  0.30233963  0.96766003  0.61611358  1
  Fe  Fe94  1  0.31090045  0.46295122  0.61624643  1
  Fe  Fe95  1  0.80925593  0.46081862  0.61482383  1
  Fe  Fe96  1  0.30808996  0.96792815  0.95556990  1
  Fe  Fe97  1  0.81417206  0.45905043  0.29038248  1
  Fe  Fe98  1  0.80730676  0.46354455  0.95196844  1
  Fe  Fe99  1  0.80297037  0.96508337  0.61681603  1
  Fe  Fe100  1  0.30963577  0.46426612  0.95025717  1
  Fe  Fe101  1  0.79976972  0.96949561  0.95862138  1
  S  S102  1  0.34968237  0.14514856  0.07983444  1
  S  S103  1  0.36122090  0.14376373  0.41996860  1
  S  S104  1  0.35998808  0.13944545  0.74916764  1
  S  S105  1  0.35978864  0.64271250  0.08088750  1
  S  S106  1  0.35631829  0.64575646  0.41566632  1
  S  S107  1  0.36014741  0.64108898  0.75161080  1
  S  S108  1  0.86129232  0.14138285  0.08316322  1
  S  S109  1  0.86615084  0.13128253  0.41727052  1
  S  S110  1  0.86096116  0.13684734  0.75173758  1
  S  S111  1  0.86275444  0.63605926  0.08324365  1
  S  S112  1  0.85772658  0.63749413  0.41816849  1
  S  S113  1  0.85827666  0.63980462  0.74826088  1
  S  S114  1  0.13621621  0.36639581  0.24661353  1
  S  S115  1  0.15155876  0.35755447  0.58733708  1
  S  S116  1  0.14260361  0.36471708  0.91637339  1
  S  S117  1  0.13526363  0.86188221  0.25142347  1
  S  S118  1  0.13913455  0.85731653  0.58447970  1
  S  S119  1  0.13792599  0.86040199  0.91496728  1
  S  S120  1  0.64035354  0.36148134  0.24565225  1
  S  S121  1  0.64256173  0.35937562  0.58593488  1
  S  S122  1  0.64198273  0.35831274  0.91645588  1
  S  S123  1  0.64141644  0.85322539  0.24523043  1
  S  S124  1  0.63634626  0.86244580  0.58335754  1
  S  S125  1  0.64136191  0.85643104  0.91528694  1
  S  S126  1  0.06909732  0.17682450  0.03832570  1
  S  S127  1  0.06678961  0.16281883  0.37119206  1
  S  S128  1  0.07311646  0.16997793  0.70389105  1
  S  S129  1  0.07020729  0.67154802  0.04149756  1
  S  S130  1  0.07082010  0.67283739  0.37978193  1
  S  S131  1  0.06713400  0.66843070  0.70969551  1
  S  S132  1  0.55877519  0.16942369  0.03979884  1
  S  S133  1  0.56573330  0.17518285  0.38249217  1
  S  S134  1  0.56705458  0.17131582  0.71065069  1
  S  S135  1  0.56632041  0.66864149  0.04274909  1
  S  S136  1  0.56468349  0.66617117  0.37089854  1
  S  S137  1  0.56284854  0.66505677  0.70977747  1
  S  S138  1  0.33758112  0.44040736  0.12267975  1
  S  S139  1  0.33322404  0.43944687  0.46455393  1
  S  S140  1  0.33169273  0.43643839  0.79066888  1
  S  S141  1  0.32740838  0.93613012  0.12231819  1
  S  S142  1  0.32801296  0.93089513  0.45725709  1
  S  S143  1  0.32987008  0.93318944  0.79160408  1
  S  S144  1  0.82438751  0.42853123  0.12087201  1
  S  S145  1  0.82127385  0.42913734  0.45059434  1
  S  S146  1  0.83402085  0.44002748  0.79104058  1
  S  S147  1  0.83589741  0.93106460  0.13117769  1
  S  S148  1  0.82816723  0.92012487  0.45708825  1
  S  S149  1  0.82584597  0.92904408  0.79180019  1
  S  S150  1  0.43377462  0.34086767  0.29185995  1
  S  S151  1  0.44010450  0.33524559  0.63191369  1
  S  S152  1  0.43252755  0.32877898  0.95642380  1
  S  S153  1  0.44028432  0.83167432  0.28954003  1
  S  S154  1  0.42896291  0.83484717  0.62617118  1
  S  S155  1  0.43256436  0.83055335  0.95591461  1
  S  S156  1  0.92880072  0.32311078  0.28932626  1
  S  S157  1  0.93931613  0.32774858  0.62084595  1
  S  S158  1  0.93518733  0.33301214  0.96106342  1
  S  S159  1  0.92437099  0.82139554  0.28986673  1
  S  S160  1  0.92816677  0.82625888  0.62349753  1
  S  S161  1  0.93257229  0.83389066  0.95792564  1
  S  S162  1  0.16462754  0.07290192  0.20552689  1
  S  S163  1  0.17499632  0.07281337  0.54382572  1
  S  S164  1  0.16354344  0.06545568  0.87205294  1
  S  S165  1  0.17090960  0.57750903  0.20964009  1
  S  S166  1  0.17628356  0.56651770  0.54461634  1
  S  S167  1  0.16943395  0.56877743  0.87495890  1
  S  S168  1  0.67106412  0.05656687  0.21541902  1
  S  S169  1  0.67418939  0.07033422  0.54815810  1
  S  S170  1  0.66666201  0.06465818  0.87362467  1
  S  S171  1  0.66753829  0.56605765  0.20613967  1
  S  S172  1  0.66386605  0.55782294  0.54130123  1
  S  S173  1  0.67228473  0.56561041  0.87621409  1
  O  O174  1  0.36162866  0.22395607  0.07211407  1
  O  O175  1  0.36805262  0.22661026  0.42085335  1
  O  O176  1  0.37014649  0.21956056  0.74442995  1
  O  O177  1  0.36926937  0.72243532  0.07401233  1
  O  O178  1  0.36236424  0.72812350  0.41052132  1
  O  O179  1  0.36859873  0.72208320  0.74692190  1
  O  O180  1  0.87481892  0.21663774  0.06797749  1
  O  O181  1  0.86633482  0.20038956  0.39358887  1
  O  O182  1  0.86422393  0.21380192  0.74292700  1
  O  O183  1  0.87378096  0.71477460  0.07593007  1
  O  O184  1  0.86673424  0.71610260  0.40928945  1
  O  O185  1  0.86725503  0.71790795  0.73797126  1
  O  O186  1  0.26709505  0.13637580  0.08018586  1
  O  O187  1  0.28600108  0.13098698  0.43467249  1
  O  O188  1  0.28300155  0.12779352  0.75872317  1
  O  O189  1  0.27992805  0.63503880  0.08762184  1
  O  O190  1  0.27575603  0.63631435  0.42249694  1
  O  O191  1  0.28121000  0.63213453  0.76037045  1
  O  O192  1  0.78419832  0.13815200  0.09212929  1
  O  O193  1  0.79643283  0.11804900  0.43682223  1
  O  O194  1  0.78584166  0.12277001  0.76685263  1
  O  O195  1  0.78415728  0.62813311  0.09217340  1
  O  O196  1  0.78004256  0.63031309  0.43016488  1
  O  O197  1  0.77785182  0.63236986  0.75424378  1
  O  O198  1  0.12520918  0.28592168  0.25075539  1
  O  O199  1  0.13360965  0.27815409  0.59393935  1
  O  O200  1  0.12974564  0.28389963  0.91944744  1
  O  O201  1  0.12222975  0.78641476  0.26659672  1
  O  O202  1  0.12924407  0.77877099  0.59400283  1
  O  O203  1  0.12892048  0.78048993  0.92134138  1
  O  O204  1  0.63792883  0.28402149  0.25406336  1
  O  O205  1  0.63214524  0.28163394  0.59642648  1
  O  O206  1  0.63378743  0.27940737  0.92525370  1
  O  O207  1  0.63622670  0.77168828  0.24912261  1
  O  O208  1  0.62975258  0.78677294  0.59452748  1
  O  O209  1  0.63477292  0.77393853  0.91553365  1
  O  O210  1  0.20716526  0.37470477  0.22725166  1
  O  O211  1  0.23615717  0.36414752  0.59648024  1
  O  O212  1  0.22338134  0.37202892  0.91240977  1
  O  O213  1  0.21192853  0.86520638  0.24148834  1
  O  O214  1  0.22018107  0.86602676  0.57998921  1
  O  O215  1  0.21693586  0.86900286  0.90672334  1
  O  O216  1  0.71710451  0.37767535  0.23466533  1
  O  O217  1  0.72385429  0.36443622  0.58123643  1
  O  O218  1  0.72009819  0.36695622  0.90533280  1
  O  O219  1  0.72249914  0.86565513  0.23958404  1
  O  O220  1  0.71464615  0.87380605  0.57294488  1
  O  O221  1  0.72097817  0.86982838  0.90938980  1
  O  O222  1  0.40357403  0.13597150  0.14795480  1
  O  O223  1  0.42412581  0.13353477  0.48715789  1
  O  O224  1  0.42149132  0.12791969  0.81456782  1
  O  O225  1  0.41760317  0.63251972  0.14806951  1
  O  O226  1  0.41443988  0.63952921  0.48352880  1
  O  O227  1  0.41991229  0.63131294  0.81865621  1
  O  O228  1  0.92296849  0.13159298  0.14890105  1
  O  O229  1  0.93526090  0.13490264  0.48566485  1
  O  O230  1  0.92469545  0.13001144  0.81838470  1
  O  O231  1  0.92241248  0.62571470  0.15039703  1
  O  O232  1  0.91862486  0.62991525  0.48513379  1
  O  O233  1  0.91539408  0.63549119  0.81901724  1
  O  O234  1  0.35949521  0.08607231  0.01139512  1
  O  O235  1  0.36570777  0.08965917  0.35066737  1
  O  O236  1  0.36757942  0.08208181  0.67948800  1
  O  O237  1  0.36825325  0.58420443  0.01259993  1
  O  O238  1  0.36525027  0.59050361  0.34792331  1
  O  O239  1  0.36770742  0.58442279  0.68296591  1
  O  O240  1  0.86670683  0.07823878  0.01433124  1
  O  O241  1  0.87696844  0.06189811  0.35496392  1
  O  O242  1  0.86936862  0.07552159  0.68402760  1
  O  O243  1  0.86978629  0.57710022  0.01479643  1
  O  O244  1  0.86158043  0.57849436  0.34858280  1
  O  O245  1  0.86868409  0.57937661  0.68260378  1
  O  O246  1  0.06869865  0.38061437  0.18621964  1
  O  O247  1  0.10440186  0.36618996  0.51643816  1
  O  O248  1  0.08594531  0.38007122  0.85253804  1
  O  O249  1  0.07411618  0.86515860  0.18169868  1
  O  O250  1  0.08271131  0.86305513  0.51472048  1
  O  O251  1  0.07842078  0.86932386  0.84728142  1
  O  O252  1  0.57906598  0.36863461  0.17774757  1
  O  O253  1  0.58598034  0.37028700  0.51892134  1
  O  O254  1  0.58214225  0.36585373  0.84920930  1
  O  O255  1  0.58501619  0.85882237  0.17449655  1
  O  O256  1  0.57645113  0.86984556  0.51471613  1
  O  O257  1  0.58300439  0.86589988  0.84587934  1
  O  O258  1  0.13808798  0.42233344  0.32047685  1
  O  O259  1  0.13407728  0.41667372  0.65173927  1
  O  O260  1  0.13575878  0.42067497  0.98823641  1
  O  O261  1  0.12698858  0.92605384  0.31640196  1
  O  O262  1  0.13095031  0.91734170  0.65158206  1
  O  O263  1  0.12909616  0.91859818  0.98292500  1
  O  O264  1  0.62837957  0.42119507  0.31227342  1
  O  O265  1  0.63406493  0.41960158  0.65404000  1
  O  O266  1  0.63642164  0.41721344  0.98532032  1
  O  O267  1  0.62938528  0.90875942  0.31085499  1
  O  O268  1  0.62781675  0.92515624  0.64961869  1
  O  O269  1  0.62925334  0.91074528  0.98154267  1
  O  O270  1  0.03357366  0.20338561  0.09926629  1
  O  O271  1  0.04722244  0.19762834  0.44144919  1
  O  O272  1  0.03445545  0.19128241  0.76230177  1
  O  O273  1  0.03450745  0.70054796  0.10286153  1
  O  O274  1  0.02932992  0.69978266  0.43888635  1
  O  O275  1  0.02906313  0.69908465  0.76987257  1
  O  O276  1  0.52188256  0.20328487  0.09848523  1
  O  O277  1  0.53123272  0.21705906  0.44547436  1
  O  O278  1  0.53104102  0.20186497  0.77224075  1
  O  O279  1  0.52692762  0.69819531  0.10124119  1
  O  O280  1  0.53027419  0.69937157  0.43076344  1
  O  O281  1  0.52940777  0.69782195  0.77372322  1
  O  O282  1  0.30426847  0.47462783  0.05866960  1
  O  O283  1  0.30532443  0.47701336  0.40608782  1
  O  O284  1  0.30388588  0.47670469  0.73234801  1
  O  O285  1  0.29396960  0.96902032  0.05665858  1
  O  O286  1  0.29776694  0.96648045  0.39812469  1
  O  O287  1  0.29984318  0.96910305  0.73062588  1
  O  O288  1  0.79686286  0.46886491  0.06185698  1
  O  O289  1  0.78683851  0.46866973  0.39145772  1
  O  O290  1  0.79620550  0.47316431  0.72847319  1
  O  O291  1  0.81593519  0.96882036  0.07244243  1
  O  O292  1  0.80194987  0.94742090  0.39069145  1
  O  O293  1  0.79716998  0.96243609  0.72881910  1
  O  O294  1  0.46710133  0.31469985  0.22916853  1
  O  O295  1  0.47372754  0.30616435  0.56988594  1
  O  O296  1  0.46934594  0.29860972  0.89489553  1
  O  O297  1  0.47494106  0.79236406  0.22651144  1
  O  O298  1  0.46218487  0.81599854  0.56496586  1
  O  O299  1  0.47075216  0.79994155  0.89574301  1
  O  O300  1  0.96242519  0.29001028  0.22427027  1
  O  O301  1  0.97612540  0.29728816  0.55982145  1
  O  O302  1  0.97128586  0.30689017  0.90118692  1
  O  O303  1  0.96084712  0.79467218  0.22854927  1
  O  O304  1  0.96757371  0.79722454  0.56521938  1
  O  O305  1  0.96982688  0.80372018  0.89692231  1
  O  O306  1  0.18872410  0.03791161  0.26555069  1
  O  O307  1  0.19715433  0.02871711  0.60116434  1
  O  O308  1  0.19072304  0.02586764  0.93082339  1
  O  O309  1  0.19333419  0.54560779  0.27155309  1
  O  O310  1  0.20668009  0.52704011  0.60444838  1
  O  O311  1  0.19976433  0.53419853  0.93685355  1
  O  O312  1  0.71522842  0.02471646  0.27801620  1
  O  O313  1  0.70689244  0.03829781  0.61409534  1
  O  O314  1  0.69429884  0.02824031  0.93293155  1
  O  O315  1  0.69545530  0.53568674  0.27049061  1
  O  O316  1  0.70563654  0.52506262  0.60391461  1
  O  O317  1  0.70223592  0.53023074  0.93829686  1
  O  O318  1  0.08578690  0.09331559  0.02909564  1
  O  O319  1  0.09548744  0.08559210  0.37038821  1
  O  O320  1  0.08543733  0.08472125  0.68956025  1
  O  O321  1  0.08829604  0.58960639  0.03343651  1
  O  O322  1  0.09818696  0.59729440  0.38127939  1
  O  O323  1  0.08721344  0.58830922  0.70803645  1
  O  O324  1  0.57197476  0.08885883  0.03840537  1
  O  O325  1  0.59171187  0.10351781  0.39710582  1
  O  O326  1  0.57932461  0.08747550  0.70322113  1
  O  O327  1  0.58421420  0.58714152  0.04000732  1
  O  O328  1  0.58077838  0.58355858  0.36840359  1
  O  O329  1  0.58350083  0.58385739  0.71006426  1
  O  O330  1  0.41808350  0.41933731  0.12134523  1
  O  O331  1  0.41412417  0.41656655  0.46543015  1
  O  O332  1  0.41301389  0.41782923  0.79436928  1
  O  O333  1  0.40558381  0.91152143  0.11941470  1
  O  O334  1  0.40621995  0.90490734  0.45728271  1
  O  O335  1  0.41257196  0.91705388  0.79908471  1
  O  O336  1  0.90498172  0.40969457  0.12445798  1
  O  O337  1  0.89707249  0.40853815  0.44550530  1
  O  O338  1  0.91626140  0.43362196  0.79619683  1
  O  O339  1  0.92184860  0.91764309  0.14684405  1
  O  O340  1  0.90896381  0.89944439  0.46752247  1
  O  O341  1  0.90948618  0.91361240  0.80047453  1
  O  O342  1  0.42326032  0.42452553  0.30631859  1
  O  O343  1  0.42258339  0.41835405  0.63762286  1
  O  O344  1  0.41552575  0.41063050  0.96042112  1
  O  O345  1  0.43406151  0.91222360  0.29182602  1
  O  O346  1  0.40842187  0.91747737  0.64278002  1
  O  O347  1  0.41450866  0.91130943  0.95857963  1
  O  O348  1  0.91013966  0.40322565  0.28894384  1
  O  O349  1  0.91429987  0.40697642  0.61651708  1
  O  O350  1  0.91633142  0.41625419  0.96728227  1
  O  O351  1  0.90018045  0.90077941  0.29231763  1
  O  O352  1  0.90913863  0.90761596  0.62997275  1
  O  O353  1  0.91519737  0.91576286  0.96281712  1
  O  O354  1  0.08284699  0.09574707  0.19652035  1
  O  O355  1  0.09607758  0.09807064  0.53897144  1
  O  O356  1  0.08043798  0.08172587  0.86423812  1
  O  O357  1  0.08677892  0.59410285  0.19385342  1
  O  O358  1  0.09540098  0.58352328  0.54321858  1
  O  O359  1  0.08657145  0.58477678  0.86792770  1
  O  O360  1  0.59472784  0.07057546  0.22694702  1
  O  O361  1  0.59618057  0.09500846  0.55222869  1
  O  O362  1  0.58414168  0.08347639  0.86847822  1
  O  O363  1  0.58441257  0.58352935  0.19688866  1
  O  O364  1  0.58205777  0.56193542  0.53867291  1
  O  O365  1  0.59220750  0.58710530  0.87362520  1
  O  O366  1  0.14071304  0.22877961  0.05524527  1
  O  O367  1  0.12311944  0.21635512  0.36306617  1
  O  O368  1  0.14693911  0.21858987  0.72418462  1
  O  O369  1  0.14063973  0.72460449  0.05657159  1
  O  O370  1  0.13515383  0.73356176  0.39636935  1
  O  O371  1  0.13766415  0.72229909  0.72651446  1
  O  O372  1  0.63253107  0.21865169  0.05499253  1
  O  O373  1  0.63444591  0.22935375  0.39259140  1
  O  O374  1  0.64162716  0.21941987  0.72935307  1
  O  O375  1  0.63717624  0.72005633  0.05841245  1
  O  O376  1  0.63777488  0.71380907  0.38279930  1
  O  O377  1  0.63532666  0.71639221  0.72614073  1
  O  O378  1  0.28558014  0.36961415  0.10724465  1
  O  O379  1  0.28019965  0.37439958  0.45804121  1
  O  O380  1  0.27924294  0.36600303  0.77342316  1
  O  O381  1  0.27305753  0.86508409  0.10583529  1
  O  O382  1  0.27193024  0.86398423  0.44682987  1
  O  O383  1  0.27856013  0.86040291  0.77430446  1
  O  O384  1  0.77117940  0.35730868  0.10087545  1
  O  O385  1  0.76660420  0.36105646  0.43815446  1
  O  O386  1  0.78840250  0.36410927  0.77517666  1
  O  O387  1  0.78622884  0.85765381  0.11032489  1
  O  O388  1  0.77308885  0.85182580  0.44476871  1
  O  O389  1  0.77585447  0.85631751  0.77581126  1
  O  O390  1  0.36207249  0.29018897  0.27629306  1
  O  O391  1  0.37158838  0.28452983  0.62263611  1
  O  O392  1  0.36193651  0.27740559  0.94086122  1
  O  O393  1  0.36452453  0.78442542  0.27151169  1
  O  O394  1  0.35867245  0.78004197  0.60912082  1
  O  O395  1  0.36023949  0.77788185  0.93731520  1
  O  O396  1  0.85572695  0.27237803  0.27162692  1
  O  O397  1  0.86953592  0.27362836  0.60585969  1
  O  O398  1  0.86303125  0.28166942  0.94451336  1
  O  O399  1  0.85596161  0.76536787  0.27344214  1
  O  O400  1  0.85726893  0.77295618  0.60629252  1
  O  O401  1  0.86258924  0.78089817  0.94161154  1
  O  O402  1  0.21949956  0.13899449  0.21584084  1
  O  O403  1  0.23340519  0.14053716  0.56832669  1
  O  O404  1  0.21543856  0.13670918  0.89055336  1
  O  O405  1  0.22193594  0.64924005  0.22383072  1
  O  O406  1  0.22781707  0.63946869  0.56456877  1
  O  O407  1  0.22012891  0.64080398  0.89018079  1
  O  O408  1  0.71758708  0.13147634  0.22819845  1
  O  O409  1  0.72858546  0.13965940  0.56243981  1
  O  O410  1  0.71793345  0.13634013  0.88855747  1
  O  O411  1  0.71968336  0.63560480  0.21800868  1
  O  O412  1  0.70760809  0.63456321  0.55678873  1
  O  O413  1  0.72634697  0.63304241  0.88816466  1
  O  O414  1  0.49289635  0.33222374  0.02856848  1
  O  O415  1  0.49358224  0.33377098  0.36198843  1
  O  O416  1  0.50222200  0.34195271  0.70549229  1
  O  O417  1  0.48989649  0.83071503  0.02792156  1
  O  O418  1  0.49539105  0.82514620  0.36089052  1
  O  O419  1  0.48975252  0.83135615  0.69664160  1
  O  O420  1  0.99291450  0.33850571  0.03555358  1
  O  O421  1  0.98945542  0.32447091  0.35773296  1
  O  O422  1  0.99765505  0.34203656  0.69490857  1
  O  O423  1  0.99183139  0.83685376  0.03095878  1
  O  O424  1  0.98518521  0.82715649  0.36194085  1
  O  O425  1  0.98701951  0.82903568  0.69713901  1
  O  O426  1  0.15699935  0.00968494  0.13153589  1
  O  O427  1  0.17412461  0.01495848  0.47174785  1
  O  O428  1  0.16211541  0.00777789  0.79808515  1
  O  O429  1  0.17368647  0.51608093  0.13917341  1
  O  O430  1  0.17595302  0.51054803  0.47237552  1
  O  O431  1  0.16777553  0.50873881  0.80283500  1
  O  O432  1  0.66243231  0.00060315  0.14176678  1
  O  O433  1  0.66624787  0.00759669  0.47946827  1
  O  O434  1  0.66099640  0.00645837  0.79875567  1
  O  O435  1  0.66468635  0.50399157  0.13450274  1
  O  O436  1  0.66724956  0.50281849  0.46862400  1
  O  O437  1  0.66495301  0.50320259  0.80355324  1
  O  O438  1  -0.00545370  0.14626215  0.30339440  1
  O  O439  1  0.01660545  0.17626122  0.63202561  1
  O  O440  1  0.01007166  0.17555472  0.96550994  1
  O  O441  1  0.01036766  0.66502257  0.30586679  1
  O  O442  1  0.00900172  0.66496188  0.63649765  1
  O  O443  1  0.00949846  0.67070841  0.96952979  1
  O  O444  1  0.50428064  0.16193463  0.31078924  1
  O  O445  1  0.50967271  0.17369156  0.63943438  1
  O  O446  1  0.50278095  0.16716544  0.96443218  1
  O  O447  1  0.50626184  0.65946662  0.29591990  1
  O  O448  1  0.50365310  0.65908653  0.63917364  1
  O  O449  1  0.50805670  0.66520578  0.96889693  1
  O  O450  1  0.34566383  0.50110237  0.19339026  1
  O  O451  1  0.34826640  0.50142699  0.54116596  1
  O  O452  1  0.33458792  0.49475591  0.86417908  1
  O  O453  1  0.33275676  0.99671165  0.19139552  1
  O  O454  1  0.34047907  0.99110061  0.53350403  1
  O  O455  1  0.32856614  0.99131718  0.86344117  1
  O  O456  1  0.82589937  0.48593150  0.19375935  1
  O  O457  1  0.82888281  0.48930216  0.52541321  1
  O  O458  1  0.82998450  0.49575128  0.86343635  1
  O  O459  1  0.83180814  0.98735009  0.20405632  1
  O  O460  1  0.82840015  0.98470352  0.52570751  1
  O  O461  1  0.82541020  0.98900640  0.86288865  1
