# generated using pymatgen
data_Na31Fe20(SO4)36
_symmetry_space_group_name_H-M   'P 1'
_cell_length_a   18.08025127
_cell_length_b   18.07306770
_cell_length_c   19.70213874
_cell_angle_alpha   107.56937869
_cell_angle_beta   107.61279117
_cell_angle_gamma   90.72374820
_symmetry_Int_Tables_number   1
_chemical_formula_structural   Na31Fe20(SO4)36
_chemical_formula_sum   'Na62 Fe40 S72 O288'
_cell_volume   5811.52900410
_cell_formula_units_Z   2
loop_
 _symmetry_equiv_pos_site_id
 _symmetry_equiv_pos_as_xyz
  1  'x, y, z'
loop_
 _atom_site_type_symbol
 _atom_site_label
 _atom_site_symmetry_multiplicity
 _atom_site_fract_x
 _atom_site_fract_y
 _atom_site_fract_z
 _atom_site_occupancy
  Na  Na0  1  0.13180030  0.36304872  0.08238859  1
  Na  Na1  1  0.13536161  0.37207266  0.42504579  1
  Na  Na2  1  0.12760240  0.37178335  0.74828239  1
  Na  Na3  1  0.12701394  0.84966286  0.05973691  1
  Na  Na4  1  0.13901282  0.86792142  0.42143050  1
  Na  Na5  1  0.15665338  0.82810160  0.76252677  1
  Na  Na6  1  0.63440135  0.36500736  0.08553222  1
  Na  Na7  1  0.63713743  0.36568719  0.42506444  1
  Na  Na8  1  0.63236075  0.35902306  0.74189094  1
  Na  Na9  1  0.63219130  0.87077155  0.08202274  1
  Na  Na10  1  0.64422141  0.86325746  0.42333251  1
  Na  Na11  1  0.64844884  0.86734099  0.75206704  1
  Na  Na12  1  0.36228402  0.13696597  0.24457468  1
  Na  Na13  1  0.36563308  0.12865233  0.57987692  1
  Na  Na14  1  0.36708679  0.13735246  0.92256286  1
  Na  Na15  1  0.36492992  0.63006513  0.24660570  1
  Na  Na16  1  0.36071697  0.63681041  0.58862576  1
  Na  Na17  1  0.36391892  0.63008136  0.90949030  1
  Na  Na18  1  0.87190996  0.13665166  0.25563745  1
  Na  Na19  1  0.86294585  0.15053815  0.59653631  1
  Na  Na20  1  0.85699336  0.12958521  0.90243901  1
  Na  Na21  1  0.87319413  0.63201934  0.25247830  1
  Na  Na22  1  0.86215832  0.62423983  0.59182971  1
  Na  Na23  1  0.87880256  0.64439932  0.92535465  1
  Na  Na24  1  0.49508409  0.01004286  0.40839440  1
  Na  Na25  1  0.98693512  0.01331421  0.41979445  1
  Na  Na26  1  0.49762747  0.51607074  0.06571351  1
  Na  Na27  1  1.01211953  -0.01043320  0.08929021  1
  Na  Na28  1  1.02550943  -0.04372587  0.77208835  1
  Na  Na29  1  0.99364449  0.52211218  0.06939288  1
  Na  Na30  1  0.49134808  0.49556797  0.43332043  1
  Na  Na31  1  0.98247135  0.51076360  0.43211593  1
  Na  Na32  1  0.51044153  -0.00802674  0.75356896  1
  Na  Na33  1  0.01044453  0.96051327  0.92226746  1
  Na  Na34  1  0.49909533  0.99134928  0.93575413  1
  Na  Na35  1  0.46621349  0.51207483  0.64770628  1
  Na  Na36  1  0.55178134  0.99934610  0.59702209  1
  Na  Na37  1  0.51129199  0.48331609  0.25061401  1
  Na  Na38  1  0.01020812  0.95160455  0.23989686  1
  Na  Na39  1  -0.01517847  0.55333444  0.76686558  1
  Na  Na40  1  0.48561042  1.04125849  0.19365946  1
  Na  Na41  1  -0.00156605  0.98932995  0.59360677  1
  Na  Na42  1  0.24590810  0.74454046  0.33745407  1
  Na  Na43  1  0.24267316  0.23391538  0.00696133  1
  Na  Na44  1  0.76412451  0.76302788  -0.00505066  1
  Na  Na45  1  0.73360491  0.24003202  0.34025692  1
  Na  Na46  1  0.25798277  0.26261169  0.66114617  1
  Na  Na47  1  0.76510258  0.76113755  0.65012043  1
  Na  Na48  1  0.24968210  0.75513623  -0.02074848  1
  Na  Na49  1  0.25002258  0.25194238  0.33335541  1
  Na  Na50  1  0.74347780  0.74014585  0.34368648  1
  Na  Na51  1  0.74932600  0.24823104  -0.00459523  1
  Na  Na52  1  0.23760635  0.74122677  0.51650132  1
  Na  Na53  1  0.76353915  0.75738929  0.16111085  1
  Na  Na54  1  0.75190502  0.25301579  0.82058761  1
  Na  Na55  1  0.73883813  0.24561092  0.17563891  1
  Na  Na56  1  0.25131796  0.74902949  0.16144070  1
  Na  Na57  1  0.74353546  0.25337761  0.51757654  1
  Na  Na58  1  0.78541055  0.76728325  0.82668387  1
  Na  Na59  1  0.26180622  0.26142774  0.49752733  1
  Na  Na60  1  0.25117138  0.25102093  0.82920559  1
  Na  Na61  1  0.23822743  0.23461576  0.16681994  1
  Fe  Fe62  1  0.46236307  0.30466839  0.45356157  1
  Fe  Fe63  1  0.96216753  0.31564547  0.46083929  1
  Fe  Fe64  1  0.46734478  0.80834664  0.45315441  1
  Fe  Fe65  1  0.46968975  0.29912445  0.12175465  1
  Fe  Fe66  1  0.46488609  0.31120361  0.78714541  1
  Fe  Fe67  1  0.96247968  0.31502151  0.78747783  1
  Fe  Fe68  1  0.45986437  0.80761083  0.78517048  1
  Fe  Fe69  1  0.96688489  0.80551266  0.45452218  1
  Fe  Fe70  1  0.96363559  0.31211501  0.12303127  1
  Fe  Fe71  1  0.46624745  0.80822131  0.11905092  1
  Fe  Fe72  1  0.19089415  0.53439040  0.37908709  1
  Fe  Fe73  1  0.20012771  0.53056141  0.70558023  1
  Fe  Fe74  1  0.69516506  0.53030229  0.70988122  1
  Fe  Fe75  1  0.19230700  0.03396394  0.38128555  1
  Fe  Fe76  1  0.69691888  0.53671173  0.39082443  1
  Fe  Fe77  1  0.68997837  0.03687488  0.37871147  1
  Fe  Fe78  1  0.19481237  0.03229192  0.71657084  1
  Fe  Fe79  1  0.69166704  0.03807319  0.05067534  1
  Fe  Fe80  1  0.18816473  0.53355882  0.03741445  1
  Fe  Fe81  1  0.68993272  0.53302831  0.04246741  1
  Fe  Fe82  1  0.04139443  0.69685862  0.56935979  1
  Fe  Fe83  1  0.03451437  0.18849676  0.88171792  1
  Fe  Fe84  1  0.53516204  0.69514503  0.54931531  1
  Fe  Fe85  1  0.53383856  0.19088776  0.87968186  1
  Fe  Fe86  1  0.03362192  0.19209313  0.21343287  1
  Fe  Fe87  1  0.53819358  0.19179874  0.55237417  1
  Fe  Fe88  1  0.53504446  0.69071718  0.87805458  1
  Fe  Fe89  1  0.03327429  0.19607151  0.55337170  1
  Fe  Fe90  1  0.03244634  0.69788268  0.20746457  1
  Fe  Fe91  1  0.53560331  0.69341373  0.21561939  1
  Fe  Fe92  1  0.80840627  0.96464229  0.28694388  1
  Fe  Fe93  1  0.30915765  0.96644146  0.62130372  1
  Fe  Fe94  1  0.80606876  0.46555054  0.28493370  1
  Fe  Fe95  1  0.30540178  0.46477936  0.28534103  1
  Fe  Fe96  1  0.30487870  0.96569799  0.28238382  1
  Fe  Fe97  1  0.80638634  0.96926126  0.62565531  1
  Fe  Fe98  1  0.30400826  0.96977039  0.95912361  1
  Fe  Fe99  1  0.80444373  0.97226898  0.95295849  1
  Fe  Fe100  1  0.30758227  0.45945536  0.94982728  1
  Fe  Fe101  1  0.80437534  0.46533279  0.94957584  1
  S  S102  1  0.36232467  0.13938994  0.08317826  1
  S  S103  1  0.36021219  0.13625659  0.41623451  1
  S  S104  1  0.35720864  0.14093918  0.75126834  1
  S  S105  1  0.36265254  0.63726818  0.08189135  1
  S  S106  1  0.36025046  0.64152510  0.41665034  1
  S  S107  1  0.36188207  0.64161929  0.74922798  1
  S  S108  1  0.85637690  0.14736672  0.08698961  1
  S  S109  1  0.86142833  0.14170275  0.41847906  1
  S  S110  1  0.86460460  0.14247998  0.75002106  1
  S  S111  1  0.85647481  0.63895435  0.08482273  1
  S  S112  1  0.86180666  0.63891751  0.41535189  1
  S  S113  1  0.84803781  0.63759896  0.74814778  1
  S  S114  1  0.13988094  0.35878114  0.24888165  1
  S  S115  1  0.14147763  0.35705524  0.58317057  1
  S  S116  1  0.14062786  0.35360277  0.91865342  1
  S  S117  1  0.14639419  0.85822926  0.25002385  1
  S  S118  1  0.14037574  0.86362229  0.58284098  1
  S  S119  1  0.14313241  0.86907091  0.91728135  1
  S  S120  1  0.63955337  0.36426079  0.25223881  1
  S  S121  1  0.63300531  0.36326668  0.58314923  1
  S  S122  1  0.63920947  0.35835401  0.91634145  1
  S  S123  1  0.64280040  0.85793908  0.25086821  1
  S  S124  1  0.64078781  0.85877340  0.58277143  1
  S  S125  1  0.63568921  0.86180694  0.91559304  1
  S  S126  1  0.05510754  0.16542379  0.04273375  1
  S  S127  1  0.06843741  0.16711921  0.37734262  1
  S  S128  1  0.06965766  0.16485482  0.70949202  1
  S  S129  1  0.06824749  0.66566127  0.04035686  1
  S  S130  1  0.07232767  0.67625248  0.37496788  1
  S  S131  1  0.06344138  0.64858003  0.69482699  1
  S  S132  1  0.56962155  0.17249170  0.04198070  1
  S  S133  1  0.56181944  0.16748371  0.37683020  1
  S  S134  1  0.55832457  0.16595941  0.71230025  1
  S  S135  1  0.57039722  0.67521396  0.04546778  1
  S  S136  1  0.56642942  0.66831004  0.37441904  1
  S  S137  1  0.57227719  0.67439624  0.71164241  1
  S  S138  1  0.33138320  0.42738186  0.12256060  1
  S  S139  1  0.32909655  0.43540214  0.45681541  1
  S  S140  1  0.32563051  0.42960244  0.78908759  1
  S  S141  1  0.33207398  0.92981633  0.12325645  1
  S  S142  1  0.33444947  0.93391187  0.45837189  1
  S  S143  1  0.33431425  0.93492776  0.79445992  1
  S  S144  1  0.82580400  0.43136343  0.12141629  1
  S  S145  1  0.82499790  0.43283704  0.45487676  1
  S  S146  1  0.82323082  0.43136819  0.79256844  1
  S  S147  1  0.83042459  0.94088709  0.12631777  1
  S  S148  1  0.83154135  0.93510982  0.45866676  1
  S  S149  1  0.83349416  0.94022699  0.79021892  1
  S  S150  1  0.42921763  0.33250096  0.29218045  1
  S  S151  1  0.42899879  0.31926660  0.61992980  1
  S  S152  1  0.43408660  0.32808525  0.95881433  1
  S  S153  1  0.43286111  0.82879371  0.29006616  1
  S  S154  1  0.43289508  0.83253944  0.62357727  1
  S  S155  1  0.42909355  0.83204921  0.95898519  1
  S  S156  1  0.93229379  0.33147580  0.29349544  1
  S  S157  1  0.93550176  0.33432851  0.62580730  1
  S  S158  1  0.93055930  0.32995190  0.95845652  1
  S  S159  1  0.93720192  0.83229436  0.29475314  1
  S  S160  1  0.93678251  0.82652317  0.62244052  1
  S  S161  1  0.93072526  0.84474849  0.96240033  1
  S  S162  1  0.16823563  0.06474835  0.21094581  1
  S  S163  1  0.16781641  0.06870518  0.54359169  1
  S  S164  1  0.17512482  0.06938122  0.87741462  1
  S  S165  1  0.17179470  0.56693878  0.20643676  1
  S  S166  1  0.17036237  0.56922373  0.54066494  1
  S  S167  1  0.17699077  0.56222455  0.87413647  1
  S  S168  1  0.67765145  0.07045202  0.21599384  1
  S  S169  1  0.67050009  0.06645802  0.53866471  1
  S  S170  1  0.66423631  0.06380632  0.87702937  1
  S  S171  1  0.66693933  0.56742213  0.20726699  1
  S  S172  1  0.66272032  0.56747678  0.54317263  1
  S  S173  1  0.67479387  0.57269486  0.87774580  1
  O  O174  1  0.37710302  0.21368979  0.06614177  1
  O  O175  1  0.36644058  0.21641541  0.40925469  1
  O  O176  1  0.36339774  0.22118335  0.74614221  1
  O  O177  1  0.37049034  0.71655804  0.07464804  1
  O  O178  1  0.37166759  0.72042548  0.40841635  1
  O  O179  1  0.36829332  0.72153053  0.74247889  1
  O  O180  1  0.86496361  0.22881889  0.08422153  1
  O  O181  1  0.87287798  0.21885383  0.40802642  1
  O  O182  1  0.88089495  0.21967113  0.74011585  1
  O  O183  1  0.86065924  0.71647715  0.07707532  1
  O  O184  1  0.87040825  0.71644710  0.40384723  1
  O  O185  1  0.84662935  0.71308237  0.73388659  1
  O  O186  1  0.28323113  0.13782186  0.08842475  1
  O  O187  1  0.28301972  0.12782787  0.42836671  1
  O  O188  1  0.27851204  0.12873030  0.75909041  1
  O  O189  1  0.28396313  0.62501310  0.08891963  1
  O  O190  1  0.28029271  0.63401110  0.42260084  1
  O  O191  1  0.28156920  0.62561193  0.75333317  1
  O  O192  1  0.77849345  0.13738598  0.09718066  1
  O  O193  1  0.78013017  0.13416201  0.42156916  1
  O  O194  1  0.78966600  0.13857279  0.76265897  1
  O  O195  1  0.77800037  0.62375373  0.09367334  1
  O  O196  1  0.78165019  0.62981980  0.42027682  1
  O  O197  1  0.76603768  0.62430056  0.75748309  1
  O  O198  1  0.13155436  0.27805105  0.25465365  1
  O  O199  1  0.12744091  0.28128853  0.59729712  1
  O  O200  1  0.12937899  0.27646841  0.93087173  1
  O  O201  1  0.13627006  0.77902331  0.25718639  1
  O  O202  1  0.13285029  0.78175835  0.58148599  1
  O  O203  1  0.13471754  0.79107892  0.92349884  1
  O  O204  1  0.63496162  0.28791860  0.26202826  1
  O  O205  1  0.62394535  0.28678734  0.59663951  1
  O  O206  1  0.62849604  0.27952068  0.92482741  1
  O  O207  1  0.63195734  0.77914923  0.25962565  1
  O  O208  1  0.63168803  0.77720710  0.58561477  1
  O  O209  1  0.62820461  0.78466787  0.92795295  1
  O  O210  1  0.21827361  0.36686946  0.23861780  1
  O  O211  1  0.21707802  0.35910878  0.57117381  1
  O  O212  1  0.22039844  0.35919995  0.91170897  1
  O  O213  1  0.22879687  0.86664634  0.24834278  1
  O  O214  1  0.21810967  0.87620197  0.57201967  1
  O  O215  1  0.22766811  0.87888796  0.91175376  1
  O  O216  1  0.71498668  0.37600144  0.23672915  1
  O  O217  1  0.70613878  0.37188830  0.56856694  1
  O  O218  1  0.72018663  0.36588653  0.91258136  1
  O  O219  1  0.72257400  0.86524713  0.24360312  1
  O  O220  1  0.71959896  0.87050838  0.57625462  1
  O  O221  1  0.71449706  0.87240910  0.90832540  1
  O  O222  1  0.42006398  0.13383352  0.15110693  1
  O  O223  1  0.42174855  0.12445669  0.48044998  1
  O  O224  1  0.41665376  0.13143287  0.81829513  1
  O  O225  1  0.42201880  0.63080868  0.15130596  1
  O  O226  1  0.41835994  0.63360718  0.48527434  1
  O  O227  1  0.41914698  0.63939435  0.82161918  1
  O  O228  1  0.91676476  0.13576154  0.15277310  1
  O  O229  1  0.91713573  0.13407090  0.48882694  1
  O  O230  1  0.92633526  0.13162792  0.81623928  1
  O  O231  1  0.91683476  0.63266269  0.15364738  1
  O  O232  1  0.92120512  0.63159113  0.48258093  1
  O  O233  1  0.90510704  0.63985473  0.81994098  1
  O  O234  1  0.36955059  0.07516836  0.01524309  1
  O  O235  1  0.36552634  0.07949732  0.34550819  1
  O  O236  1  0.36462273  0.08375986  0.68170061  1
  O  O237  1  0.37468022  0.57782249  0.01597389  1
  O  O238  1  0.36826245  0.58177939  0.34882395  1
  O  O239  1  0.37558749  0.58463595  0.68500272  1
  O  O240  1  0.86094918  0.09264442  0.01594173  1
  O  O241  1  0.87401656  0.08005089  0.35389130  1
  O  O242  1  0.86877175  0.08194487  0.68034996  1
  O  O243  1  0.86746912  0.57822673  0.01855542  1
  O  O244  1  0.87046636  0.57809567  0.34738012  1
  O  O245  1  0.85740395  0.57434001  0.68546256  1
  O  O246  1  0.08058423  0.36812725  0.18206838  1
  O  O247  1  0.07947808  0.36489852  0.51654328  1
  O  O248  1  0.08317904  0.35868453  0.84878986  1
  O  O249  1  0.09113770  0.86939628  0.18374398  1
  O  O250  1  0.07900022  0.87896428  0.51946522  1
  O  O251  1  0.09040173  0.87899495  0.84757717  1
  O  O252  1  0.57630278  0.37272168  0.18557862  1
  O  O253  1  0.56780354  0.37096932  0.51778041  1
  O  O254  1  0.58357800  0.36531363  0.84657064  1
  O  O255  1  0.58488283  0.86507076  0.18203209  1
  O  O256  1  0.58181985  0.86744931  0.51303101  1
  O  O257  1  0.57597420  0.86619662  0.84610495  1
  O  O258  1  0.13486774  0.41557392  0.31881757  1
  O  O259  1  0.13940828  0.42007677  0.65216724  1
  O  O260  1  0.13378382  0.41488314  0.98556965  1
  O  O261  1  0.13753521  0.91630054  0.31994804  1
  O  O262  1  0.13564961  0.91772470  0.65467409  1
  O  O263  1  0.13577855  0.92938647  0.98367795  1
  O  O264  1  0.63201516  0.42628614  0.31955906  1
  O  O265  1  0.62698003  0.42481644  0.65278683  1
  O  O266  1  0.62978015  0.41786450  0.98367128  1
  O  O267  1  0.63581833  0.91727202  0.31884369  1
  O  O268  1  0.62789790  0.91411959  0.64870248  1
  O  O269  1  0.62484037  0.92312210  0.98170765  1
  O  O270  1  0.02249438  0.20693126  0.10577100  1
  O  O271  1  0.03419769  0.19571510  0.43938314  1
  O  O272  1  0.04002522  0.19558722  0.77390880  1
  O  O273  1  0.03493024  0.68723440  0.10384532  1
  O  O274  1  0.03219118  0.70383703  0.43237627  1
  O  O275  1  0.04156945  0.67581634  0.76189885  1
  O  O276  1  0.53938586  0.20401478  0.10481207  1
  O  O277  1  0.53047743  0.20033567  0.44211120  1
  O  O278  1  0.52018354  0.20541520  0.77129102  1
  O  O279  1  0.53209144  0.70334566  0.10588112  1
  O  O280  1  0.53028039  0.69957568  0.43529718  1
  O  O281  1  0.53427337  0.70178607  0.77186775  1
  O  O282  1  0.30347499  0.46424846  0.06205740  1
  O  O283  1  0.29647996  0.46972485  0.39285816  1
  O  O284  1  0.29613806  0.46929512  0.73179689  1
  O  O285  1  0.31137529  0.96598976  0.06284714  1
  O  O286  1  0.30371782  0.97020608  0.39749446  1
  O  O287  1  0.30428431  0.97223128  0.73359254  1
  O  O288  1  0.79491602  0.46688258  0.05989107  1
  O  O289  1  0.79417683  0.46610383  0.38940205  1
  O  O290  1  0.78589087  0.46446034  0.73143224  1
  O  O291  1  0.79312260  0.97637289  0.06529582  1
  O  O292  1  0.80238744  0.97351973  0.39874476  1
  O  O293  1  0.80031321  0.97296096  0.72838798  1
  O  O294  1  0.46018187  0.30814844  0.22927996  1
  O  O295  1  0.46428607  0.28395862  0.55801067  1
  O  O296  1  0.47011346  0.30036889  0.89727951  1
  O  O297  1  0.47012442  0.80014731  0.22951462  1
  O  O298  1  0.47117075  0.80305935  0.56365807  1
  O  O299  1  0.46647188  0.80671605  0.89855255  1
  O  O300  1  0.97137078  0.30302889  0.23420184  1
  O  O301  1  0.97025437  0.29579500  0.56235304  1
  O  O302  1  0.96695163  0.30189227  0.89751450  1
  O  O303  1  0.97555695  0.80701140  0.23669763  1
  O  O304  1  0.97072409  0.79531130  0.55735508  1
  O  O305  1  0.95060958  0.82639984  0.89344839  1
  O  O306  1  0.20181310  0.03320042  0.27665887  1
  O  O307  1  0.19935079  0.03394573  0.60530686  1
  O  O308  1  0.21294647  0.03706098  0.93845223  1
  O  O309  1  0.19974623  0.52977905  0.26788051  1
  O  O310  1  0.19416120  0.53184827  0.60031821  1
  O  O311  1  0.20742068  0.51805860  0.93157013  1
  O  O312  1  0.70857698  0.02804798  0.27371202  1
  O  O313  1  0.69960510  0.03241236  0.59938874  1
  O  O314  1  0.70119004  0.03621794  0.94444816  1
  O  O315  1  0.69798255  0.53370389  0.26932059  1
  O  O316  1  0.68388291  0.53370027  0.60498102  1
  O  O317  1  0.69958708  0.52771047  0.93332403  1
  O  O318  1  0.05976262  0.08402669  0.04015847  1
  O  O319  1  0.08168422  0.08276188  0.36836227  1
  O  O320  1  0.08689498  0.08197273  0.70175253  1
  O  O321  1  0.08820606  0.58203023  0.03250198  1
  O  O322  1  0.09224792  0.59575764  0.37055159  1
  O  O323  1  0.09905130  0.57242861  0.69228807  1
  O  O324  1  0.58780718  0.09039570  0.03674555  1
  O  O325  1  0.58440561  0.08735566  0.37720440  1
  O  O326  1  0.56761481  0.08595217  0.71448494  1
  O  O327  1  0.58811447  0.59380854  0.04156322  1
  O  O328  1  0.58453938  0.58664795  0.37043836  1
  O  O329  1  0.59246843  0.59310542  0.70668705  1
  O  O330  1  0.41309889  0.40874550  0.12912951  1
  O  O331  1  0.40665245  0.40922723  0.45302968  1
  O  O332  1  0.40173267  0.40287993  0.78458105  1
  O  O333  1  0.41561016  0.91271569  0.13784094  1
  O  O334  1  0.41767221  0.91990340  0.46496339  1
  O  O335  1  0.41916711  0.92423091  0.80254423  1
  O  O336  1  0.90652181  0.41327401  0.12487788  1
  O  O337  1  0.90652840  0.41486350  0.45601841  1
  O  O338  1  0.90167597  0.41130011  0.78881119  1
  O  O339  1  0.91169292  0.93108039  0.13082324  1
  O  O340  1  0.91508276  0.92099248  0.46494872  1
  O  O341  1  0.91709302  0.93383862  0.80206324  1
  O  O342  1  0.41436321  0.41763330  0.30543016  1
  O  O343  1  0.40476950  0.39422654  0.61560632  1
  O  O344  1  0.41563625  0.41010101  0.96647565  1
  O  O345  1  0.41250118  0.90970096  0.29577778  1
  O  O346  1  0.41642514  0.91508934  0.62900573  1
  O  O347  1  0.40490676  0.91240020  0.96134935  1
  O  O348  1  0.91357247  0.41280900  0.29913138  1
  O  O349  1  0.92817454  0.41502211  0.63126907  1
  O  O350  1  0.91108247  0.41129388  0.96549534  1
  O  O351  1  0.91816818  0.91531222  0.30029290  1
  O  O352  1  0.91619762  0.90778674  0.62437019  1
  O  O353  1  0.90703464  0.92933138  0.97835058  1
  O  O354  1  0.08860739  0.08790282  0.21217465  1
  O  O355  1  0.08498393  0.08394905  0.53773624  1
  O  O356  1  0.09465876  0.08588462  0.87861327  1
  O  O357  1  0.09115255  0.58664872  0.19960242  1
  O  O358  1  0.08934399  0.59168918  0.52925602  1
  O  O359  1  0.09703421  0.57437196  0.86941212  1
  O  O360  1  0.60386699  0.09703528  0.22145879  1
  O  O361  1  0.58670816  0.08296079  0.53369068  1
  O  O362  1  0.58356785  0.08413814  0.87829293  1
  O  O363  1  0.58317155  0.58204279  0.20079061  1
  O  O364  1  0.58084505  0.58986962  0.53225586  1
  O  O365  1  0.59541395  0.59362734  0.87467696  1
  O  O366  1  0.13150650  0.21037369  0.05889461  1
  O  O367  1  0.14213537  0.21580296  0.39318945  1
  O  O368  1  0.13992529  0.21489043  0.71945300  1
  O  O369  1  0.14175651  0.71722376  0.06088712  1
  O  O370  1  0.14437302  0.73036964  0.39535655  1
  O  O371  1  0.11959290  0.70453598  0.68648321  1
  O  O372  1  0.64109215  0.22208564  0.05233208  1
  O  O373  1  0.63244828  0.21994831  0.39084962  1
  O  O374  1  0.63130717  0.21365508  0.72735544  1
  O  O375  1  0.64178060  0.72772751  0.06373940  1
  O  O376  1  0.63603344  0.71984442  0.38710564  1
  O  O377  1  0.64065117  0.72878023  0.72674727  1
  O  O378  1  0.27804207  0.35703010  0.10694686  1
  O  O379  1  0.27447626  0.36560139  0.44178467  1
  O  O380  1  0.26927248  0.36162586  0.77568463  1
  O  O381  1  0.27933128  0.85855514  0.10488902  1
  O  O382  1  0.28506343  0.86098613  0.44192927  1
  O  O383  1  0.28792639  0.86184960  0.77749621  1
  O  O384  1  0.77323620  0.36064345  0.10623907  1
  O  O385  1  0.77508332  0.35929048  0.43717273  1
  O  O386  1  0.77327425  0.36232207  0.78567037  1
  O  O387  1  0.78151807  0.86688421  0.11006331  1
  O  O388  1  0.78192976  0.86189172  0.43896522  1
  O  O389  1  0.78640419  0.86434721  0.77205772  1
  O  O390  1  0.35630132  0.28250410  0.27733869  1
  O  O391  1  0.36113494  0.26331000  0.60773585  1
  O  O392  1  0.36254785  0.27584075  0.94086025  1
  O  O393  1  0.36343544  0.77420157  0.27371408  1
  O  O394  1  0.36187725  0.78088985  0.60596385  1
  O  O395  1  0.36297683  0.77650839  0.94614837  1
  O  O396  1  0.86107267  0.27827643  0.27493786  1
  O  O397  1  0.86234964  0.28467794  0.60869054  1
  O  O398  1  0.85984651  0.27628645  0.94168168  1
  O  O399  1  0.86574881  0.78046399  0.27815474  1
  O  O400  1  0.86756678  0.77376997  0.60720918  1
  O  O401  1  0.86214641  0.79105333  0.95309954  1
  O  O402  1  0.22133389  0.13536356  0.22498728  1
  O  O403  1  0.21763028  0.14029381  0.55733077  1
  O  O404  1  0.22290865  0.14143908  0.88669272  1
  O  O405  1  0.22691366  0.63743534  0.22529247  1
  O  O406  1  0.22636043  0.63680889  0.55661300  1
  O  O407  1  0.23170385  0.63311320  0.89836633  1
  O  O408  1  0.73627217  0.13729221  0.23251832  1
  O  O409  1  0.71838313  0.13778823  0.54902857  1
  O  O410  1  0.71354039  0.13406070  0.88566645  1
  O  O411  1  0.71585029  0.64017029  0.22193259  1
  O  O412  1  0.71818985  0.63392955  0.55588984  1
  O  O413  1  0.73149123  0.64166322  0.90043304  1
  O  O414  1  0.49350977  0.32934621  0.03072768  1
  O  O415  1  0.48961262  0.32991688  0.36264019  1
  O  O416  1  0.49047913  0.32583705  0.69281398  1
  O  O417  1  0.49126847  0.84011935  0.03217766  1
  O  O418  1  0.49309033  0.83239014  0.36284060  1
  O  O419  1  0.49111639  0.83633656  0.69738564  1
  O  O420  1  0.99030461  0.33235552  0.03099974  1
  O  O421  1  0.99038246  0.33297334  0.36662826  1
  O  O422  1  0.99396806  0.32661671  0.69616091  1
  O  O423  1  0.99670693  0.84938348  0.02970431  1
  O  O424  1  0.99435759  0.83791077  0.37005736  1
  O  O425  1  1.00070672  0.83096297  0.69079552  1
  O  O426  1  0.15969025  0.00262292  0.14126247  1
  O  O427  1  0.16581238  0.00857329  0.47099533  1
  O  O428  1  0.16659395  0.00843613  0.80336018  1
  O  O429  1  0.17224552  0.50783600  0.13478450  1
  O  O430  1  0.16774826  0.50803010  0.46790753  1
  O  O431  1  0.18161068  0.50891882  0.80001490  1
  O  O432  1  0.66870408  0.01204330  0.14065827  1
  O  O433  1  0.66443402  0.00536370  0.46476635  1
  O  O434  1  0.65417111  -0.00095256  0.80828594  1
  O  O435  1  0.66381221  0.50792548  0.13427129  1
  O  O436  1  0.65757937  0.50437940  0.47079492  1
  O  O437  1  0.67160999  0.51631792  0.80284722  1
  O  O438  1  0.01002568  0.16997620  0.30619314  1
  O  O439  1  0.00652909  0.16094736  0.63800153  1
  O  O440  1  0.00011629  0.16985344  0.97041512  1
  O  O441  1  0.01669973  0.67503180  0.30073940  1
  O  O442  1  -0.00538975  0.63177330  0.62406601  1
  O  O443  1  0.01039840  0.66760795  0.97210362  1
  O  O444  1  0.49946302  0.15899723  0.30665136  1
  O  O445  1  0.50336104  0.16101840  0.63597683  1
  O  O446  1  0.50761114  0.16757229  0.96925677  1
  O  O447  1  0.50531425  0.66325374  0.30115545  1
  O  O448  1  0.51023992  0.66970343  0.63919882  1
  O  O449  1  0.51209606  0.67415179  0.97339861  1
  O  O450  1  0.33445076  0.48715400  0.19588502  1
  O  O451  1  0.33976633  0.49646112  0.52796756  1
  O  O452  1  0.33843398  0.48664584  0.86570671  1
  O  O453  1  0.32956807  0.99090758  0.19364232  1
  O  O454  1  0.33297198  0.99207249  0.53029070  1
  O  O455  1  0.33380119  0.99357685  0.86762765  1
  O  O456  1  0.82825231  0.49087537  0.19399582  1
  O  O457  1  0.82513915  0.49235788  0.52288974  1
  O  O458  1  0.83420787  0.49343824  0.86678131  1
  O  O459  1  0.82950476  0.99695898  0.20006539  1
  O  O460  1  0.83179320  0.99175588  0.53167448  1
  O  O461  1  0.82451412  0.99558910  0.86125241  1
