# generated using pymatgen
data_Na31Fe20(SO4)36
_symmetry_space_group_name_H-M   'P 1'
_cell_length_a   18.06119196
_cell_length_b   18.06667404
_cell_length_c   19.68848222
_cell_angle_alpha   107.59207654
_cell_angle_beta   107.55702115
_cell_angle_gamma   90.70632174
_symmetry_Int_Tables_number   1
_chemical_formula_structural   Na31Fe20(SO4)36
_chemical_formula_sum   'Na62 Fe40 S72 O288'
_cell_volume   5800.74883261
_cell_formula_units_Z   2
loop_
 _symmetry_equiv_pos_site_id
 _symmetry_equiv_pos_as_xyz
  1  'x, y, z'
loop_
 _atom_site_type_symbol
 _atom_site_label
 _atom_site_symmetry_multiplicity
 _atom_site_fract_x
 _atom_site_fract_y
 _atom_site_fract_z
 _atom_site_occupancy
  Na  Na0  1  0.15787124  0.35637747  0.09288349  1
  Na  Na1  1  0.13397365  0.35897067  0.40687696  1
  Na  Na2  1  0.14562683  0.37074580  0.76058546  1
  Na  Na3  1  0.13320701  0.86197418  0.07890318  1
  Na  Na4  1  0.14248941  0.86638263  0.42036687  1
  Na  Na5  1  0.12968990  0.86639621  0.74650147  1
  Na  Na6  1  0.61623521  0.35331358  0.06491185  1
  Na  Na7  1  0.64333365  0.37032892  0.42370265  1
  Na  Na8  1  0.63352677  0.35470297  0.74730405  1
  Na  Na9  1  0.64394718  0.87309992  0.09665776  1
  Na  Na10  1  0.62929968  0.86324198  0.41619621  1
  Na  Na11  1  0.62619972  0.87517897  0.75234985  1
  Na  Na12  1  0.33612027  0.14982737  0.23981501  1
  Na  Na13  1  0.36783343  0.13562763  0.57797918  1
  Na  Na14  1  0.38413400  0.12675929  0.91733704  1
  Na  Na15  1  0.37488376  0.63360704  0.26027715  1
  Na  Na16  1  0.36341466  0.64144201  0.58849243  1
  Na  Na17  1  0.34061103  0.61978424  0.89428991  1
  Na  Na18  1  0.85914492  0.13061059  0.24849670  1
  Na  Na19  1  0.86397532  0.13500678  0.58776655  1
  Na  Na20  1  0.86633278  0.13524062  0.91719379  1
  Na  Na21  1  0.87033882  0.63171689  0.25008797  1
  Na  Na22  1  0.86195422  0.63068908  0.57136352  1
  Na  Na23  1  0.86574037  0.63187313  0.91694224  1
  Na  Na24  1  1.00955752  0.48289377  0.10506530  1
  Na  Na25  1  0.96091787  0.00833537  0.40931032  1
  Na  Na26  1  0.99282951  0.51425802  0.39889350  1
  Na  Na27  1  1.01242696  0.49341777  0.74167735  1
  Na  Na28  1  0.99351177  0.00995516  0.06717216  1
  Na  Na29  1  0.49445316  0.01910296  0.05749844  1
  Na  Na30  1  0.52325439  0.50196976  0.39824134  1
  Na  Na31  1  0.48827030  0.02433722  0.42688064  1
  Na  Na32  1  0.48077252  0.49720342  0.77348759  1
  Na  Na33  1  0.53637102  0.48118676  0.22847250  1
  Na  Na34  1  0.01734027  0.48915260  0.92061054  1
  Na  Na35  1  -0.00642885  1.00024976  0.24726882  1
  Na  Na36  1  0.51059133  0.98801753  0.58888234  1
  Na  Na37  1  0.50172467  0.48066824  0.58504944  1
  Na  Na38  1  0.51370316  0.99839065  0.24557622  1
  Na  Na39  1  0.45246162  0.50351139  0.98804842  1
  Na  Na40  1  0.00617263  0.98954735  0.59790079  1
  Na  Na41  1  0.04384492  0.49473037  0.58716525  1
  Na  Na42  1  0.74285784  0.74227055  0.33962092  1
  Na  Na43  1  0.74861301  0.25344920  0.33714925  1
  Na  Na44  1  0.74225395  0.24566185  -0.00807103  1
  Na  Na45  1  0.75037241  0.75265838  0.00297470  1
  Na  Na46  1  0.26699447  0.75758490  0.33506194  1
  Na  Na47  1  0.73335472  0.23407487  0.67953356  1
  Na  Na48  1  0.27689591  0.26582691  0.00142820  1
  Na  Na49  1  0.25765308  0.25536237  0.66056855  1
  Na  Na50  1  0.74612977  0.75181017  0.66616647  1
  Na  Na51  1  0.24981895  0.74759822  -0.00737170  1
  Na  Na52  1  0.25818578  0.75382634  0.16709709  1
  Na  Na53  1  0.75336072  0.75312880  0.17418166  1
  Na  Na54  1  0.25047765  0.74417885  0.50804417  1
  Na  Na55  1  0.74998745  0.75246437  0.83165012  1
  Na  Na56  1  0.74666008  0.25230460  0.16870848  1
  Na  Na57  1  0.26528941  0.26591082  0.83487050  1
  Na  Na58  1  0.25583350  0.25749626  0.48812388  1
  Na  Na59  1  0.25308562  0.75453018  0.81201701  1
  Na  Na60  1  0.73836025  0.73724236  0.50126384  1
  Na  Na61  1  0.73619731  0.23891860  0.51250760  1
  Fe  Fe62  1  0.96554977  0.30698902  0.11955745  1
  Fe  Fe63  1  0.96914173  0.80714659  0.44974052  1
  Fe  Fe64  1  0.46273612  0.81283552  0.78672386  1
  Fe  Fe65  1  0.47135155  0.29378369  0.79244585  1
  Fe  Fe66  1  0.96234760  0.30628338  0.78666282  1
  Fe  Fe67  1  0.96297027  0.80862875  0.78464682  1
  Fe  Fe68  1  0.46328841  0.81079378  0.12059215  1
  Fe  Fe69  1  0.46902280  0.29910747  0.45541388  1
  Fe  Fe70  1  0.96529315  0.30854135  0.45421825  1
  Fe  Fe71  1  0.96547045  0.80661404  0.11920451  1
  Fe  Fe72  1  0.19500630  0.03938836  0.71825203  1
  Fe  Fe73  1  0.18899495  0.03598423  0.38120687  1
  Fe  Fe74  1  0.68917135  0.53712141  0.04379148  1
  Fe  Fe75  1  0.70071669  0.03070123  0.37988152  1
  Fe  Fe76  1  0.20195226  0.53007930  0.04749889  1
  Fe  Fe77  1  0.69134988  0.53599452  0.71328815  1
  Fe  Fe78  1  0.18692172  0.03619935  0.04554441  1
  Fe  Fe79  1  0.69280330  0.03443386  0.04467438  1
  Fe  Fe80  1  0.69171403  0.03894074  0.71934740  1
  Fe  Fe81  1  0.19512862  0.53137408  0.37844000  1
  Fe  Fe82  1  0.53250883  0.69523994  0.87996942  1
  Fe  Fe83  1  0.53043138  0.19816786  0.20668781  1
  Fe  Fe84  1  0.53035762  0.69999523  0.54321332  1
  Fe  Fe85  1  0.04053755  0.69395023  0.55088991  1
  Fe  Fe86  1  0.03918107  0.19346782  0.21639544  1
  Fe  Fe87  1  0.03313402  0.19215015  0.54934984  1
  Fe  Fe88  1  0.03333459  0.69062397  0.87831714  1
  Fe  Fe89  1  0.03960487  0.69216091  0.21478287  1
  Fe  Fe90  1  0.03359967  0.18824543  0.88185417  1
  Fe  Fe91  1  0.53101032  0.69523170  0.21325258  1
  Fe  Fe92  1  0.80796628  0.46387114  0.95207503  1
  Fe  Fe93  1  0.80696498  0.47019421  0.61830623  1
  Fe  Fe94  1  0.79933114  0.46811511  0.28770646  1
  Fe  Fe95  1  0.81078211  0.96340137  0.62350158  1
  Fe  Fe96  1  0.31586724  0.45482620  0.28670745  1
  Fe  Fe97  1  0.30262735  0.46870880  0.62374531  1
  Fe  Fe98  1  0.80671017  0.96291621  0.95064380  1
  Fe  Fe99  1  0.30171359  0.96505613  0.94894556  1
  Fe  Fe100  1  0.31139713  0.96543784  0.62130100  1
  Fe  Fe101  1  0.30566243  0.96958905  0.28525310  1
  S  S102  1  0.35970120  0.13418562  0.08515181  1
  S  S103  1  0.35288530  0.14016544  0.41164592  1
  S  S104  1  0.35382975  0.13901975  0.74452215  1
  S  S105  1  0.35828147  0.64744015  0.08116365  1
  S  S106  1  0.36158034  0.63401685  0.41769807  1
  S  S107  1  0.36271608  0.64011945  0.75109487  1
  S  S108  1  0.86410693  0.13897588  0.08497898  1
  S  S109  1  0.85909965  0.14389556  0.41970159  1
  S  S110  1  0.86064384  0.14014211  0.74960376  1
  S  S111  1  0.86170735  0.63786667  0.08406127  1
  S  S112  1  0.86638074  0.64175355  0.41392626  1
  S  S113  1  0.85668469  0.64286730  0.75079067  1
  S  S114  1  0.13928462  0.36129512  0.24803407  1
  S  S115  1  0.13879451  0.35590123  0.58367261  1
  S  S116  1  0.13461859  0.35712490  0.92012696  1
  S  S117  1  0.14190032  0.85975020  0.24959751  1
  S  S118  1  0.14057089  0.86288244  0.58499642  1
  S  S119  1  0.13707298  0.85899003  0.91422015  1
  S  S120  1  0.64263265  0.35728496  0.25338672  1
  S  S121  1  0.64373872  0.36202091  0.58430692  1
  S  S122  1  0.63917557  0.36576088  0.91429932  1
  S  S123  1  0.63901524  0.86136757  0.24920694  1
  S  S124  1  0.64371079  0.86152057  0.58589661  1
  S  S125  1  0.63968871  0.85757121  0.91980138  1
  S  S126  1  0.06741867  0.17100914  0.04425454  1
  S  S127  1  0.06184369  0.16795258  0.37577534  1
  S  S128  1  0.06781279  0.17360446  0.71208742  1
  S  S129  1  0.06774514  0.66906917  0.04387763  1
  S  S130  1  0.07396207  0.67168003  0.37703305  1
  S  S131  1  0.05773392  0.66763005  0.70778807  1
  S  S132  1  0.57042203  0.16761958  0.04357307  1
  S  S133  1  0.57201971  0.17094460  0.37347630  1
  S  S134  1  0.56007168  0.16405454  0.70227765  1
  S  S135  1  0.56780357  0.67541188  0.04408054  1
  S  S136  1  0.56721131  0.66645490  0.37137390  1
  S  S137  1  0.56812102  0.67178816  0.70789088  1
  S  S138  1  0.33889945  0.44333096  0.13065894  1
  S  S139  1  0.32782753  0.42681492  0.45963383  1
  S  S140  1  0.33847201  0.42706212  0.79201298  1
  S  S141  1  0.32383065  0.93076978  0.12082357  1
  S  S142  1  0.33021943  0.94091410  0.45691043  1
  S  S143  1  0.32361195  0.93180825  0.78853600  1
  S  S144  1  0.82642637  0.42947272  0.12282093  1
  S  S145  1  0.84097734  0.43713841  0.46210948  1
  S  S146  1  0.83289983  0.43467237  0.78948598  1
  S  S147  1  0.83536869  0.93481033  0.12372575  1
  S  S148  1  0.83503221  0.93288409  0.46097606  1
  S  S149  1  0.82758664  0.93124736  0.79022486  1
  S  S150  1  0.43923182  0.32747634  0.29619465  1
  S  S151  1  0.43228314  0.33052794  0.62569856  1
  S  S152  1  0.42699323  0.31890149  0.94908331  1
  S  S153  1  0.43560633  0.84275552  0.29435025  1
  S  S154  1  0.43415762  0.83300495  0.62434173  1
  S  S155  1  0.42803239  0.82873597  0.95579916  1
  S  S156  1  0.92972386  0.32871778  0.28998121  1
  S  S157  1  0.93169449  0.33071579  0.62472006  1
  S  S158  1  0.93087386  0.33462222  0.96097264  1
  S  S159  1  0.94257266  0.83249831  0.28982033  1
  S  S160  1  0.93224510  0.82612699  0.62082802  1
  S  S161  1  0.93209829  0.82627092  0.95645933  1
  S  S162  1  0.15585038  0.06091696  0.20335208  1
  S  S163  1  0.16057880  0.06476430  0.53953724  1
  S  S164  1  0.17100544  0.07100022  0.87819619  1
  S  S165  1  0.17604609  0.57080365  0.21082909  1
  S  S166  1  0.16916839  0.56452632  0.53759133  1
  S  S167  1  0.15705288  0.56319701  0.87453640  1
  S  S168  1  0.66689734  0.07105243  0.20853616  1
  S  S169  1  0.67317303  0.05908762  0.54350407  1
  S  S170  1  0.67577213  0.06546895  0.88158360  1
  S  S171  1  0.67323033  0.57121024  0.20730812  1
  S  S172  1  0.66705266  0.56924132  0.54326093  1
  S  S173  1  0.67136249  0.57374753  0.87584518  1
  O  O174  1  0.36428010  0.20879636  0.07340992  1
  O  O175  1  0.36612794  0.22221605  0.41386393  1
  O  O176  1  0.36909434  0.21982958  0.73836475  1
  O  O177  1  0.36626521  0.73031066  0.07924359  1
  O  O178  1  0.36705638  0.70627821  0.40007763  1
  O  O179  1  0.37505458  0.71983891  0.74565055  1
  O  O180  1  0.87099097  0.21667688  0.07362851  1
  O  O181  1  0.86734095  0.22524629  0.41595991  1
  O  O182  1  0.87052607  0.21737824  0.73682430  1
  O  O183  1  0.87067530  0.71672960  0.07484147  1
  O  O184  1  0.87898095  0.71829999  0.40018107  1
  O  O185  1  0.86226193  0.72354998  0.74555577  1
  O  O186  1  0.28455314  0.11684481  0.09775765  1
  O  O187  1  0.27234981  0.13185454  0.41882292  1
  O  O188  1  0.27123929  0.13835471  0.74831964  1
  O  O189  1  0.27751618  0.63706981  0.08530073  1
  O  O190  1  0.28213450  0.62303808  0.42674188  1
  O  O191  1  0.28954179  0.63149324  0.76658247  1
  O  O192  1  0.78608952  0.12924814  0.09447121  1
  O  O193  1  0.77985353  0.13315120  0.42737196  1
  O  O194  1  0.78014099  0.13267423  0.75336913  1
  O  O195  1  0.78321923  0.63091379  0.09379083  1
  O  O196  1  0.79125836  0.63872541  0.42684712  1
  O  O197  1  0.77802354  0.63126987  0.75927147  1
  O  O198  1  0.12827499  0.28440629  0.25905974  1
  O  O199  1  0.12949755  0.27426552  0.58718987  1
  O  O200  1  0.12054927  0.27941464  0.92970320  1
  O  O201  1  0.13713634  0.78065164  0.25844191  1
  O  O202  1  0.13152986  0.78485349  0.59408481  1
  O  O203  1  0.12710398  0.78131289  0.92570509  1
  O  O204  1  0.63014996  0.27286427  0.25348932  1
  O  O205  1  0.64181279  0.28379846  0.59055402  1
  O  O206  1  0.63828728  0.29337489  0.93170214  1
  O  O207  1  0.62713987  0.78181138  0.25647200  1
  O  O208  1  0.63131263  0.78138454  0.59215582  1
  O  O209  1  0.62946179  0.77817714  0.92780422  1
  O  O210  1  0.21731427  0.37122748  0.23959976  1
  O  O211  1  0.21973784  0.36653873  0.58058963  1
  O  O212  1  0.20991815  0.36203512  0.90814467  1
  O  O213  1  0.22063638  0.87154509  0.24156091  1
  O  O214  1  0.21867776  0.87211401  0.57534446  1
  O  O215  1  0.21628027  0.86500694  0.90557517  1
  O  O216  1  0.72866354  0.36507506  0.26130612  1
  O  O217  1  0.71953628  0.37828560  0.57073554  1
  O  O218  1  0.71437571  0.38248959  0.90094059  1
  O  O219  1  0.71298278  0.86873371  0.23502714  1
  O  O220  1  0.72698656  0.86527945  0.58411765  1
  O  O221  1  0.71934861  0.86305132  0.91165368  1
  O  O222  1  0.42329372  0.13065343  0.15505469  1
  O  O223  1  0.41021309  0.12017085  0.47182254  1
  O  O224  1  0.40781056  0.12423804  0.80806088  1
  O  O225  1  0.41479988  0.64048845  0.15139314  1
  O  O226  1  0.41909583  0.63523968  0.49085491  1
  O  O227  1  0.42803822  0.62624468  0.81399060  1
  O  O228  1  0.92428151  0.13409044  0.15404449  1
  O  O229  1  0.91722995  0.13535545  0.48923307  1
  O  O230  1  0.91684741  0.13742397  0.82114792  1
  O  O231  1  0.92174386  0.62964047  0.15126487  1
  O  O232  1  0.92966696  0.63296102  0.47963656  1
  O  O233  1  0.91563648  0.63421593  0.81839352  1
  O  O234  1  0.37167008  0.07031109  0.02037743  1
  O  O235  1  0.35397377  0.08745565  0.33641637  1
  O  O236  1  0.35412302  0.08304929  0.67121629  1
  O  O237  1  0.36908283  0.59429449  0.01344783  1
  O  O238  1  0.37482989  0.56779441  0.35703175  1
  O  O239  1  0.36575983  0.58270293  0.67939338  1
  O  O240  1  0.87472692  0.07790729  0.01903733  1
  O  O241  1  0.86934985  0.08733498  0.35315049  1
  O  O242  1  0.87301487  0.07885721  0.68517535  1
  O  O243  1  0.86792624  0.57846393  0.01538228  1
  O  O244  1  0.87126356  0.57942835  0.34549678  1
  O  O245  1  0.86533449  0.58686488  0.68165961  1
  O  O246  1  0.07992546  0.36810418  0.17876330  1
  O  O247  1  0.08333877  0.36246498  0.51191465  1
  O  O248  1  0.07180843  0.36875506  0.85434553  1
  O  O249  1  0.08230141  0.86540993  0.18063437  1
  O  O250  1  0.08072076  0.87047834  0.51654484  1
  O  O251  1  0.07897765  0.86454222  0.84510817  1
  O  O252  1  0.59640322  0.36739454  0.18267700  1
  O  O253  1  0.57988214  0.37165476  0.51964888  1
  O  O254  1  0.57644015  0.36338001  0.84233493  1
  O  O255  1  0.57456566  0.87437727  0.18547746  1
  O  O256  1  0.58995315  0.87283647  0.51919294  1
  O  O257  1  0.58159873  0.86541867  0.85172775  1
  O  O258  1  0.12995681  0.42208351  0.31488504  1
  O  O259  1  0.12435865  0.41226035  0.64818342  1
  O  O260  1  0.12933843  0.41779998  0.98951832  1
  O  O261  1  0.13132981  0.91787546  0.31682240  1
  O  O262  1  0.13068576  0.92324942  0.65180727  1
  O  O263  1  0.12956788  0.91969226  0.98137850  1
  O  O264  1  0.62586804  0.41055542  0.31829896  1
  O  O265  1  0.63699342  0.42054057  0.65460642  1
  O  O266  1  0.62622658  0.43052182  0.97657910  1
  O  O267  1  0.63526448  0.91948219  0.32023132  1
  O  O268  1  0.63600020  0.91976593  0.65512139  1
  O  O269  1  0.63378336  0.91571165  0.98886914  1
  O  O270  1  0.03251669  0.20334301  0.10694046  1
  O  O271  1  0.02401518  0.19714949  0.43586251  1
  O  O272  1  0.03156594  0.20171255  0.77342790  1
  O  O273  1  0.03178862  0.70138342  0.10538927  1
  O  O274  1  0.04078009  0.70503282  0.44003758  1
  O  O275  1  0.02047798  0.70393682  0.76840352  1
  O  O276  1  0.53565588  0.19088360  0.10708322  1
  O  O277  1  0.52953109  0.19766791  0.42805684  1
  O  O278  1  0.52773150  0.19947270  0.76566189  1
  O  O279  1  0.53096560  0.70612292  0.10489288  1
  O  O280  1  0.53798153  0.69081708  0.43626407  1
  O  O281  1  0.53614344  0.70303664  0.77168438  1
  O  O282  1  0.30361349  0.48204090  0.07308400  1
  O  O283  1  0.29928127  0.46097549  0.39667733  1
  O  O284  1  0.31927147  0.46078504  0.72940490  1
  O  O285  1  0.29139872  0.95920825  0.05517054  1
  O  O286  1  0.29175736  0.97306047  0.39263912  1
  O  O287  1  0.29545799  0.97121795  0.72867202  1
  O  O288  1  0.79640542  0.46579291  0.06132992  1
  O  O289  1  0.82309217  0.47347743  0.40268122  1
  O  O290  1  0.80465058  0.47304944  0.72967307  1
  O  O291  1  0.79961937  0.96507106  0.05860175  1
  O  O292  1  0.80596053  0.96966202  0.40187354  1
  O  O293  1  0.79774818  0.97169792  0.73248705  1
  O  O294  1  0.47538938  0.29427581  0.23575633  1
  O  O295  1  0.47014378  0.30865583  0.56699275  1
  O  O296  1  0.46646061  0.29209504  0.88830128  1
  O  O297  1  0.46510942  0.80622814  0.22851427  1
  O  O298  1  0.47315649  0.80368987  0.56712666  1
  O  O299  1  0.46665189  0.80045654  0.89616700  1
  O  O300  1  0.96708229  0.30014526  0.22952702  1
  O  O301  1  0.97004314  0.30106490  0.56508070  1
  O  O302  1  0.96005647  0.29982871  0.89607616  1
  O  O303  1  0.97567472  0.79287415  0.22676125  1
  O  O304  1  0.96916814  0.79680437  0.55988230  1
  O  O305  1  0.96690685  0.79682142  0.89455704  1
  O  O306  1  0.18894286  0.02683292  0.26539261  1
  O  O307  1  0.19043523  0.02957112  0.60066855  1
  O  O308  1  0.20146680  0.03194353  0.93819892  1
  O  O309  1  0.20463952  0.53609355  0.27231520  1
  O  O310  1  0.19674383  0.52904099  0.59791797  1
  O  O311  1  0.18032092  0.53399085  0.93945471  1
  O  O312  1  0.68428707  0.03731627  0.27001926  1
  O  O313  1  0.70919017  0.02479401  0.60595328  1
  O  O314  1  0.70952787  0.02321714  0.94067460  1
  O  O315  1  0.70028587  0.53182557  0.26495310  1
  O  O316  1  0.70087229  0.53763469  0.60842304  1
  O  O317  1  0.70436098  0.54325746  0.94013471  1
  O  O318  1  0.08144184  0.08842119  0.04057370  1
  O  O319  1  0.07748971  0.08499930  0.36961342  1
  O  O320  1  0.08793522  0.09252757  0.70595760  1
  O  O321  1  0.08529374  0.58816084  0.04102780  1
  O  O322  1  0.08949234  0.59015854  0.37352701  1
  O  O323  1  0.06765643  0.58638513  0.70511969  1
  O  O324  1  0.59342595  0.08618858  0.03959933  1
  O  O325  1  0.58956840  0.08857153  0.36930066  1
  O  O326  1  0.58948258  0.08780985  0.70970946  1
  O  O327  1  0.58356099  0.59352660  0.03840461  1
  O  O328  1  0.57750030  0.58281675  0.35155969  1
  O  O329  1  0.58256777  0.58817866  0.70012342  1
  O  O330  1  0.42061970  0.43577224  0.13691798  1
  O  O331  1  0.40882522  0.40615770  0.46532706  1
  O  O332  1  0.41645949  0.39456605  0.79623147  1
  O  O333  1  0.40751089  0.91780423  0.12974001  1
  O  O334  1  0.41321652  0.93838010  0.46462527  1
  O  O335  1  0.40228044  0.90974601  0.79118566  1
  O  O336  1  0.90817719  0.41180187  0.12659137  1
  O  O337  1  0.92519107  0.41935091  0.47880609  1
  O  O338  1  0.91636739  0.41923580  0.79694949  1
  O  O339  1  0.91615794  0.91383744  0.12172310  1
  O  O340  1  0.91839668  0.91609876  0.46512661  1
  O  O341  1  0.90399023  0.90536544  0.78650562  1
  O  O342  1  0.42575363  0.41024628  0.29864786  1
  O  O343  1  0.41904413  0.41579817  0.64048904  1
  O  O344  1  0.38711947  0.38726088  0.94046642  1
  O  O345  1  0.41540541  0.92400239  0.29220978  1
  O  O346  1  0.41449309  0.91394930  0.62495350  1
  O  O347  1  0.40740344  0.90926978  0.95988405  1
  O  O348  1  0.90777331  0.40848796  0.29404146  1
  O  O349  1  0.91350538  0.41242899  0.62957984  1
  O  O350  1  0.91916372  0.41889010  0.96622295  1
  O  O351  1  0.93498677  0.91384836  0.29179164  1
  O  O352  1  0.91455216  0.90737413  0.62476726  1
  O  O353  1  0.91210452  0.90705794  0.96160582  1
  O  O354  1  0.07197509  0.07440923  0.19926632  1
  O  O355  1  0.07712328  0.08026654  0.53385288  1
  O  O356  1  0.09136748  0.08985706  0.87708059  1
  O  O357  1  0.09415882  0.59055910  0.20540119  1
  O  O358  1  0.08566086  0.58275893  0.53184914  1
  O  O359  1  0.07223501  0.58225593  0.86454863  1
  O  O360  1  0.58270027  0.08983129  0.19171811  1
  O  O361  1  0.59098051  0.06587686  0.53727037  1
  O  O362  1  0.60022301  0.08586235  0.88437019  1
  O  O363  1  0.59338636  0.59395279  0.20449723  1
  O  O364  1  0.58741830  0.59150152  0.54334506  1
  O  O365  1  0.58942635  0.59018295  0.86981151  1
  O  O366  1  0.13939701  0.21834000  0.05722290  1
  O  O367  1  0.13298810  0.21900888  0.39237715  1
  O  O368  1  0.13642660  0.22795432  0.72658503  1
  O  O369  1  0.13837351  0.72161683  0.05880156  1
  O  O370  1  0.14611275  0.72155658  0.39063033  1
  O  O371  1  0.13056076  0.71641324  0.72390590  1
  O  O372  1  0.64197316  0.22148689  0.06335567  1
  O  O373  1  0.64484191  0.22364907  0.39451810  1
  O  O374  1  0.62609033  0.21859084  0.71047387  1
  O  O375  1  0.64121540  0.72635313  0.06249992  1
  O  O376  1  0.64106276  0.71713170  0.38846485  1
  O  O377  1  0.64156613  0.72069471  0.72319484  1
  O  O378  1  0.29099216  0.36793384  0.11120904  1
  O  O379  1  0.27265596  0.35966755  0.44637887  1
  O  O380  1  0.27757233  0.36179423  0.77460463  1
  O  O381  1  0.27531112  0.85777621  0.10788871  1
  O  O382  1  0.28656504  0.86394825  0.44032147  1
  O  O383  1  0.26733864  0.86409488  0.77238671  1
  O  O384  1  0.77533989  0.35762976  0.10711882  1
  O  O385  1  0.78759134  0.36597653  0.44295421  1
  O  O386  1  0.78235721  0.36264527  0.77107456  1
  O  O387  1  0.78568379  0.86333656  0.11265101  1
  O  O388  1  0.78567500  0.86032385  0.44673854  1
  O  O389  1  0.77082355  0.86356818  0.77598978  1
  O  O390  1  0.36658450  0.28142242  0.28303585  1
  O  O391  1  0.35741174  0.28021794  0.60295414  1
  O  O392  1  0.36609406  0.25397672  0.93431923  1
  O  O393  1  0.36350844  0.79340276  0.28259849  1
  O  O394  1  0.36285049  0.78152605  0.60929406  1
  O  O395  1  0.35764957  0.77430419  0.93759488  1
  O  O396  1  0.86156915  0.27279267  0.27495095  1
  O  O397  1  0.86106127  0.27816819  0.60833976  1
  O  O398  1  0.85932858  0.28939726  0.95314962  1
  O  O399  1  0.86825256  0.78668204  0.27612743  1
  O  O400  1  0.86110982  0.77374467  0.60461777  1
  O  O401  1  0.86179385  0.77338699  0.94216732  1
  O  O402  1  0.20089720  0.13347342  0.21489259  1
  O  O403  1  0.21013128  0.13665955  0.55308705  1
  O  O404  1  0.22450504  0.14035121  0.89336440  1
  O  O405  1  0.22847675  0.64119614  0.22468766  1
  O  O406  1  0.21883861  0.63551686  0.55018401  1
  O  O407  1  0.20741275  0.63527089  0.88885689  1
  O  O408  1  0.72104664  0.14197128  0.22760641  1
  O  O409  1  0.72038611  0.13508124  0.56228219  1
  O  O410  1  0.73470949  0.13214408  0.89897176  1
  O  O411  1  0.72843018  0.64187662  0.22496405  1
  O  O412  1  0.72076922  0.63907086  0.55659246  1
  O  O413  1  0.72200383  0.64521543  0.88846267  1
  O  O414  1  0.48740270  0.33517891  0.02162820  1
  O  O415  1  0.49839816  0.33300738  0.37068264  1
  O  O416  1  0.48693188  0.32223787  0.69676978  1
  O  O417  1  0.48715019  0.83385357  0.02941123  1
  O  O418  1  0.49700174  0.85149186  0.36448135  1
  O  O419  1  0.49055932  0.83929824  0.70039228  1
  O  O420  1  0.99452534  0.33870063  0.03245765  1
  O  O421  1  0.99027322  0.33368382  0.36334793  1
  O  O422  1  0.99110534  0.33508353  0.69835654  1
  O  O423  1  0.99309131  0.82930757  0.02835179  1
  O  O424  1  1.00078888  0.83164036  0.36231240  1
  O  O425  1  0.99113367  0.82855576  0.69324619  1
  O  O426  1  0.15182707  0.00026196  0.13018704  1
  O  O427  1  0.15786154  0.00551127  0.46642445  1
  O  O428  1  0.16629995  0.01116688  0.80475796  1
  O  O429  1  0.16970463  0.50983135  0.13785822  1
  O  O430  1  0.16297330  0.50374041  0.46370150  1
  O  O431  1  0.15474845  0.50198143  0.80532681  1
  O  O432  1  0.67231405  0.01075173  0.13938518  1
  O  O433  1  0.67922896  0.00443489  0.47141369  1
  O  O434  1  0.67428859  0.00650768  0.80817999  1
  O  O435  1  0.66807795  0.51373342  0.13263329  1
  O  O436  1  0.65972161  0.50735747  0.47281808  1
  O  O437  1  0.66973066  0.51190999  0.80488263  1
  O  O438  1  0.00356735  0.16578219  0.30245147  1
  O  O439  1  0.00616437  0.16917883  0.63953219  1
  O  O440  1  0.00548068  0.16924204  0.97328993  1
  O  O441  1  0.01346222  0.66981120  0.30530698  1
  O  O442  1  0.00140804  0.66698896  0.63347235  1
  O  O443  1  0.00756854  0.66620723  0.97139842  1
  O  O444  1  0.51942712  0.16752937  0.29647080  1
  O  O445  1  0.49793655  0.14467225  0.62977528  1
  O  O446  1  0.51168478  0.16568016  0.97476340  1
  O  O447  1  0.50729672  0.68000699  0.30489915  1
  O  O448  1  0.50830150  0.67362642  0.63777212  1
  O  O449  1  0.50978274  0.67514040  0.97204451  1
  O  O450  1  0.33385704  0.49607904  0.20556115  1
  O  O451  1  0.33285511  0.48925097  0.53222595  1
  O  O452  1  0.34799658  0.48996652  0.86229571  1
  O  O453  1  0.32088863  0.99247595  0.18970098  1
  O  O454  1  0.32076373  0.99623001  0.52677445  1
  O  O455  1  0.32798471  0.99188255  0.86172659  1
  O  O456  1  0.82840372  0.48847854  0.19511173  1
  O  O457  1  0.83562035  0.49625683  0.53251363  1
  O  O458  1  0.83373643  0.49287306  0.86242499  1
  O  O459  1  0.84516440  0.99674652  0.19443365  1
  O  O460  1  0.84137015  0.99099633  0.53613179  1
  O  O461  1  0.83808385  0.98960736  0.86548602  1
