# generated using pymatgen
data_Na31Fe20(SO4)36
_symmetry_space_group_name_H-M   'P 1'
_cell_length_a   18.08459055
_cell_length_b   18.08592930
_cell_length_c   19.71984223
_cell_angle_alpha   107.59528971
_cell_angle_beta   107.60394557
_cell_angle_gamma   90.74646457
_symmetry_Int_Tables_number   1
_chemical_formula_structural   Na31Fe20(SO4)36
_chemical_formula_sum   'Na62 Fe40 S72 O288'
_cell_volume   5821.37190204
_cell_formula_units_Z   2
loop_
 _symmetry_equiv_pos_site_id
 _symmetry_equiv_pos_as_xyz
  1  'x, y, z'
loop_
 _atom_site_type_symbol
 _atom_site_label
 _atom_site_symmetry_multiplicity
 _atom_site_fract_x
 _atom_site_fract_y
 _atom_site_fract_z
 _atom_site_occupancy
  Na  Na0  1  0.13565779  0.36513017  0.08278255  1
  Na  Na1  1  0.14847169  0.36716131  0.43163813  1
  Na  Na2  1  0.12910975  0.34427615  0.72321551  1
  Na  Na3  1  0.10304329  0.83678573  0.05270198  1
  Na  Na4  1  0.13098199  0.87584470  0.41552725  1
  Na  Na5  1  0.13419274  0.85163899  0.75102572  1
  Na  Na6  1  0.63916205  0.36234113  0.08664528  1
  Na  Na7  1  0.63805970  0.37163868  0.42136696  1
  Na  Na8  1  0.62568090  0.37425674  0.75179930  1
  Na  Na9  1  0.64069300  0.86432714  0.08471960  1
  Na  Na10  1  0.64446824  0.86350152  0.41717738  1
  Na  Na11  1  0.63888954  0.87866673  0.76436848  1
  Na  Na12  1  0.37028734  0.12793818  0.25309035  1
  Na  Na13  1  0.36183025  0.12792455  0.57568614  1
  Na  Na14  1  0.36701411  0.12425721  0.91227624  1
  Na  Na15  1  0.36222388  0.63199457  0.24581333  1
  Na  Na16  1  0.36230740  0.63497534  0.58197768  1
  Na  Na17  1  0.36320158  0.63155271  0.91056381  1
  Na  Na18  1  0.86430352  0.14157881  0.25579905  1
  Na  Na19  1  0.86423318  0.13773663  0.58260655  1
  Na  Na20  1  0.86978833  0.13129367  0.92513682  1
  Na  Na21  1  0.85932732  0.64162372  0.25350810  1
  Na  Na22  1  0.87392317  0.63707995  0.58999555  1
  Na  Na23  1  0.87038401  0.64910307  0.92547241  1
  Na  Na24  1  0.53717631  -0.01263298  0.36091349  1
  Na  Na25  1  0.99541596  0.55590428  0.75784048  1
  Na  Na26  1  0.51409336  -0.00161470  0.07074934  1
  Na  Na27  1  0.98764135  0.52451434  0.08270499  1
  Na  Na28  1  1.00621475  -0.01228115  0.73978631  1
  Na  Na29  1  0.99167219  0.50471900  0.42160296  1
  Na  Na30  1  0.94722302  -0.01231262  0.07069262  1
  Na  Na31  1  0.49270541  0.50664244  0.42674400  1
  Na  Na32  1  0.49405803  0.51125087  0.06640923  1
  Na  Na33  1  -0.00991804  1.05068680  0.48361378  1
  Na  Na34  1  0.02521321  0.97423200  0.26338355  1
  Na  Na35  1  0.01212855  0.48941999  0.24803944  1
  Na  Na36  1  0.50332917  0.99650869  0.59240032  1
  Na  Na37  1  -0.01259943  0.91320090  0.88301839  1
  Na  Na38  1  0.00971525  0.47096033  0.58836708  1
  Na  Na39  1  -0.00627527  0.51799577  0.90084730  1
  Na  Na40  1  0.51250156  0.48930012  0.24702016  1
  Na  Na41  1  0.46173620  0.51444549  0.64592268  1
  Na  Na42  1  0.73997859  0.23621152  0.01739691  1
  Na  Na43  1  0.24441424  0.74263074  0.67669797  1
  Na  Na44  1  0.76858083  0.76330612  0.66519210  1
  Na  Na45  1  0.25357253  0.24892927  -0.00577945  1
  Na  Na46  1  0.24093964  0.23409147  0.34870243  1
  Na  Na47  1  0.25020790  0.75432693  0.32841111  1
  Na  Na48  1  0.76562722  0.77107331  -0.00009917  1
  Na  Na49  1  0.74288683  0.24258377  0.33322653  1
  Na  Na50  1  0.74143811  0.24542576  0.67170604  1
  Na  Na51  1  0.25673559  0.75623643  -0.01554174  1
  Na  Na52  1  0.76358451  0.75857253  0.48912050  1
  Na  Na53  1  0.78051719  0.78490185  0.83462484  1
  Na  Na54  1  0.74262141  0.24391638  0.84402878  1
  Na  Na55  1  0.73766469  0.24228105  0.50418302  1
  Na  Na56  1  0.75111565  0.75422640  0.17205744  1
  Na  Na57  1  0.24543338  0.23832303  0.17411577  1
  Na  Na58  1  0.25447408  0.25492202  0.81111775  1
  Na  Na59  1  0.25135071  0.75278456  0.50061125  1
  Na  Na60  1  0.22983684  0.23043942  0.52069655  1
  Na  Na61  1  0.24817476  0.75561147  0.15800278  1
  Fe  Fe62  1  0.46329328  0.31037971  0.45340349  1
  Fe  Fe63  1  0.96886934  0.30666748  0.78524640  1
  Fe  Fe64  1  0.96979294  0.30022278  0.45160486  1
  Fe  Fe65  1  0.45994256  0.30837374  0.78022165  1
  Fe  Fe66  1  0.46620626  0.30196344  0.11635462  1
  Fe  Fe67  1  0.46651176  0.81060047  0.12213545  1
  Fe  Fe68  1  0.96355340  0.81601082  0.45731417  1
  Fe  Fe69  1  0.46757902  0.80578829  0.45371744  1
  Fe  Fe70  1  0.96423700  0.30736364  0.11743557  1
  Fe  Fe71  1  0.46286118  0.81163726  0.79051742  1
  Fe  Fe72  1  0.19475862  0.52950961  0.04161607  1
  Fe  Fe73  1  0.18703217  0.03564220  0.71113116  1
  Fe  Fe74  1  0.18999962  0.02932233  0.04370555  1
  Fe  Fe75  1  0.69549932  0.53534492  0.38161681  1
  Fe  Fe76  1  0.69139996  0.03845847  0.71497020  1
  Fe  Fe77  1  0.69820394  0.03192454  0.04431120  1
  Fe  Fe78  1  0.20329403  0.52970804  0.70724616  1
  Fe  Fe79  1  0.19741454  0.53364645  0.37998244  1
  Fe  Fe80  1  0.68989422  0.53765822  0.71699733  1
  Fe  Fe81  1  0.68719014  0.53387862  0.04515084  1
  Fe  Fe82  1  0.03363916  0.18733223  0.87822843  1
  Fe  Fe83  1  0.53680599  0.18934232  0.21385454  1
  Fe  Fe84  1  0.53759297  0.69640171  0.55265731  1
  Fe  Fe85  1  0.03471117  0.18995223  0.21329371  1
  Fe  Fe86  1  0.53203992  0.19129629  0.87894289  1
  Fe  Fe87  1  0.53761487  0.69240817  0.21616559  1
  Fe  Fe88  1  0.53522070  0.69200441  0.88179240  1
  Fe  Fe89  1  0.02102591  0.71388620  0.21111867  1
  Fe  Fe90  1  0.53495838  0.19177814  0.54342330  1
  Fe  Fe91  1  0.03585465  0.69288968  0.54595003  1
  Fe  Fe92  1  0.30667626  0.96087281  0.95232415  1
  Fe  Fe93  1  0.29961267  0.96760718  0.29161124  1
  Fe  Fe94  1  0.80672621  0.47073166  0.62262098  1
  Fe  Fe95  1  0.79610624  0.97374454  0.29744323  1
  Fe  Fe96  1  0.30730130  0.45959486  0.94444882  1
  Fe  Fe97  1  0.80876783  0.46207964  0.28323605  1
  Fe  Fe98  1  0.31018164  0.46207103  0.28277795  1
  Fe  Fe99  1  0.80790304  0.96972967  0.61928123  1
  Fe  Fe100  1  0.31155330  0.96613787  0.62513573  1
  Fe  Fe101  1  0.80396767  0.46575050  0.95157991  1
  S  S102  1  0.35893949  0.13734498  0.08265602  1
  S  S103  1  0.36111033  0.14098475  0.41555318  1
  S  S104  1  0.35984366  0.14089829  0.75132478  1
  S  S105  1  0.36262731  0.63774067  0.08396630  1
  S  S106  1  0.36366279  0.63904972  0.41552614  1
  S  S107  1  0.36267895  0.64270080  0.75094570  1
  S  S108  1  0.86087630  0.14348602  0.08471719  1
  S  S109  1  0.85184949  0.14830213  0.41573210  1
  S  S110  1  0.85701264  0.14714880  0.75174413  1
  S  S111  1  0.85428683  0.63956352  0.08583473  1
  S  S112  1  0.86206004  0.63800853  0.41464861  1
  S  S113  1  0.85385279  0.64120344  0.75420361  1
  S  S114  1  0.14103722  0.35863354  0.24852169  1
  S  S115  1  0.13826459  0.36077238  0.57911049  1
  S  S116  1  0.14338683  0.35267472  0.91464752  1
  S  S117  1  0.14387648  0.85484749  0.24782750  1
  S  S118  1  0.14179339  0.85806368  0.58504334  1
  S  S119  1  0.14369420  0.85600225  0.91781623  1
  S  S120  1  0.64009859  0.36115875  0.24943444  1
  S  S121  1  0.63966258  0.36554563  0.58325141  1
  S  S122  1  0.63725169  0.35921328  0.91660552  1
  S  S123  1  0.63866087  0.85671197  0.25196110  1
  S  S124  1  0.64151614  0.85902831  0.58327625  1
  S  S125  1  0.63768055  0.85846117  0.91817461  1
  S  S126  1  0.07075860  0.17370451  0.04443658  1
  S  S127  1  0.06495908  0.17002173  0.37487322  1
  S  S128  1  0.05898664  0.16352603  0.71017882  1
  S  S129  1  0.06496868  0.65195946  0.04218272  1
  S  S130  1  0.07007471  0.66949234  0.37292251  1
  S  S131  1  0.07360936  0.65985226  0.70101309  1
  S  S132  1  0.56735157  0.16988863  0.04288233  1
  S  S133  1  0.56947669  0.18073034  0.37853882  1
  S  S134  1  0.56591709  0.17372803  0.70881002  1
  S  S135  1  0.56628333  0.67136308  0.04570792  1
  S  S136  1  0.56763932  0.66655703  0.37668865  1
  S  S137  1  0.56867058  0.67526914  0.71262386  1
  S  S138  1  0.33467296  0.43120462  0.12190125  1
  S  S139  1  0.33587835  0.43682660  0.45404387  1
  S  S140  1  0.32753887  0.43193630  0.78943917  1
  S  S141  1  0.32684756  0.92874804  0.12495012  1
  S  S142  1  0.33592622  0.92877729  0.46125615  1
  S  S143  1  0.32607932  0.93065420  0.78938663  1
  S  S144  1  0.83017226  0.43298376  0.12323055  1
  S  S145  1  0.83201124  0.43349015  0.45706565  1
  S  S146  1  0.82786907  0.43138811  0.79149594  1
  S  S147  1  0.82839759  0.94070819  0.14024520  1
  S  S148  1  0.83066230  0.93690434  0.46111501  1
  S  S149  1  0.83052415  0.94540551  0.78401621  1
  S  S150  1  0.43689052  0.33350228  0.28938204  1
  S  S151  1  0.43068499  0.32110123  0.61668932  1
  S  S152  1  0.43228077  0.32552442  0.95622678  1
  S  S153  1  0.43105232  0.82555025  0.28927178  1
  S  S154  1  0.43501454  0.82911876  0.62559665  1
  S  S155  1  0.43397781  0.82929743  0.96172236  1
  S  S156  1  0.93711272  0.33802833  0.29275261  1
  S  S157  1  0.92624107  0.33898914  0.62700726  1
  S  S158  1  0.93426608  0.33546984  0.95856720  1
  S  S159  1  0.92604788  0.83576967  0.29599056  1
  S  S160  1  0.93444886  0.82869667  0.62152031  1
  S  S161  1  0.92819371  0.83366009  0.96241092  1
  S  S162  1  0.17048130  0.06652284  0.20749013  1
  S  S163  1  0.17534343  0.06352565  0.55240641  1
  S  S164  1  0.16965985  0.06466199  0.87515056  1
  S  S165  1  0.17152953  0.55969699  0.20816900  1
  S  S166  1  0.17314550  0.57007996  0.54053135  1
  S  S167  1  0.17410044  0.56032771  0.87274688  1
  S  S168  1  0.66757287  0.06422253  0.20771055  1
  S  S169  1  0.66554656  0.06511682  0.54209269  1
  S  S170  1  0.67141020  0.07375233  0.87844466  1
  S  S171  1  0.66612103  0.56441626  0.20710110  1
  S  S172  1  0.67223937  0.57185652  0.54359631  1
  S  S173  1  0.67235808  0.57145660  0.88144230  1
  O  O174  1  0.36836419  0.21557733  0.07226041  1
  O  O175  1  0.37517326  0.21700039  0.40120214  1
  O  O176  1  0.36702503  0.22124051  0.74639837  1
  O  O177  1  0.36955196  0.71736893  0.07768984  1
  O  O178  1  0.37195615  0.71798859  0.40724533  1
  O  O179  1  0.36758827  0.72489595  0.74873852  1
  O  O180  1  0.87122899  0.22270285  0.07481707  1
  O  O181  1  0.87125450  0.22016764  0.39719521  1
  O  O182  1  0.86772791  0.22614587  0.74346735  1
  O  O183  1  0.86042800  0.71528207  0.07562435  1
  O  O184  1  0.87267264  0.71668070  0.40884219  1
  O  O185  1  0.86361590  0.72058803  0.75148056  1
  O  O186  1  0.27909281  0.12902116  0.08860894  1
  O  O187  1  0.28533873  0.13901304  0.42723116  1
  O  O188  1  0.28147014  0.12887933  0.75961299  1
  O  O189  1  0.28395867  0.62543797  0.09199676  1
  O  O190  1  0.28474764  0.63055286  0.42368541  1
  O  O191  1  0.28199229  0.62699418  0.75506790  1
  O  O192  1  0.77896628  0.13490900  0.08507006  1
  O  O193  1  0.77150999  0.14882910  0.41690723  1
  O  O194  1  0.77565400  0.14022024  0.75522645  1
  O  O195  1  0.77627889  0.62465228  0.09512642  1
  O  O196  1  0.78400713  0.62926384  0.42521574  1
  O  O197  1  0.77264174  0.62868701  0.75843011  1
  O  O198  1  0.13234852  0.27945158  0.25528577  1
  O  O199  1  0.12396232  0.28855929  0.59334013  1
  O  O200  1  0.13030646  0.27496922  0.92406636  1
  O  O201  1  0.13050185  0.77316929  0.25226332  1
  O  O202  1  0.13151609  0.77817893  0.59207806  1
  O  O203  1  0.13557376  0.78312409  0.93363820  1
  O  O204  1  0.63087815  0.28250419  0.25671578  1
  O  O205  1  0.63479862  0.28528770  0.58958603  1
  O  O206  1  0.63081999  0.28021316  0.92566678  1
  O  O207  1  0.63321365  0.77451698  0.25331766  1
  O  O208  1  0.63416850  0.78109083  0.59435132  1
  O  O209  1  0.62614469  0.78104236  0.93081516  1
  O  O210  1  0.21806571  0.36691576  0.23619174  1
  O  O211  1  0.20965884  0.36646076  0.56017512  1
  O  O212  1  0.22423555  0.35749278  0.90964759  1
  O  O213  1  0.22983812  0.86155271  0.25418010  1
  O  O214  1  0.22215489  0.86622431  0.57991543  1
  O  O215  1  0.22661549  0.86855481  0.91717268  1
  O  O216  1  0.71773165  0.37258712  0.24093259  1
  O  O217  1  0.71693740  0.37727031  0.57181678  1
  O  O218  1  0.71637206  0.36959589  0.90845157  1
  O  O219  1  0.72079961  0.87262401  0.25057206  1
  O  O220  1  0.72125789  0.86803750  0.57702182  1
  O  O221  1  0.71350025  0.86459694  0.90730034  1
  O  O222  1  0.41696058  0.13349389  0.15288635  1
  O  O223  1  0.42318597  0.13207287  0.48154168  1
  O  O224  1  0.41873763  0.13428032  0.82037908  1
  O  O225  1  0.42238225  0.62950912  0.15219783  1
  O  O226  1  0.42295699  0.63100896  0.48350532  1
  O  O227  1  0.42005958  0.63575255  0.82032041  1
  O  O228  1  0.91486028  0.14304917  0.15890001  1
  O  O229  1  0.90691108  0.14436237  0.48594945  1
  O  O230  1  0.91204116  0.14106160  0.82247308  1
  O  O231  1  0.91452290  0.63503465  0.15611258  1
  O  O232  1  0.92244646  0.62492861  0.47974987  1
  O  O233  1  0.91035739  0.62329927  0.81680832  1
  O  O234  1  0.36900963  0.07655689  0.01676562  1
  O  O235  1  0.36496753  0.07825702  0.34702633  1
  O  O236  1  0.37113317  0.08381729  0.68427276  1
  O  O237  1  0.37269125  0.57900789  0.01665026  1
  O  O238  1  0.37262566  0.58023504  0.34775490  1
  O  O239  1  0.37358366  0.58982392  0.68324929  1
  O  O240  1  0.87757918  0.08387944  0.02413053  1
  O  O241  1  0.85921523  0.08061135  0.35097808  1
  O  O242  1  0.86756119  0.08783280  0.68563790  1
  O  O243  1  0.86606606  0.57698173  0.02084222  1
  O  O244  1  0.86642340  0.57847359  0.34473830  1
  O  O245  1  0.86066503  0.58473542  0.68161468  1
  O  O246  1  0.07960878  0.36936848  0.18256883  1
  O  O247  1  0.07170577  0.37544552  0.51708648  1
  O  O248  1  0.08702356  0.36163140  0.84595115  1
  O  O249  1  0.09592480  0.86136332  0.17632210  1
  O  O250  1  0.08470082  0.86333077  0.51502146  1
  O  O251  1  0.08952420  0.85997445  0.84698603  1
  O  O252  1  0.57922117  0.37057005  0.18251185  1
  O  O253  1  0.57848265  0.37496867  0.51768696  1
  O  O254  1  0.57807414  0.36501620  0.84835111  1
  O  O255  1  0.58418889  0.86348792  0.18079151  1
  O  O256  1  0.58410630  0.86171369  0.51186430  1
  O  O257  1  0.57579428  0.86494389  0.85076636  1
  O  O258  1  0.13556005  0.41780392  0.31767121  1
  O  O259  1  0.13753797  0.42755543  0.64933097  1
  O  O260  1  0.13740639  0.41297822  0.98291262  1
  O  O261  1  0.12996661  0.91119762  0.31258433  1
  O  O262  1  0.13150784  0.91584776  0.65219155  1
  O  O263  1  0.12985375  0.92110274  0.98117626  1
  O  O264  1  0.63137696  0.42056308  0.31796016  1
  O  O265  1  0.63435723  0.42227086  0.65379982  1
  O  O266  1  0.62981568  0.41772501  0.98523194  1
  O  O267  1  0.62467881  0.91014018  0.31757870  1
  O  O268  1  0.62796514  0.91969594  0.64721978  1
  O  O269  1  0.63150041  0.91943080  0.98647754  1
  O  O270  1  0.03253920  0.20256220  0.10465267  1
  O  O271  1  0.02995200  0.20248024  0.43547451  1
  O  O272  1  0.02607595  0.19900046  0.77565629  1
  O  O273  1  0.03576179  0.66470319  0.10730177  1
  O  O274  1  0.03399885  0.69692157  0.43393185  1
  O  O275  1  0.03969557  0.67620536  0.76069622  1
  O  O276  1  0.52991998  0.19920883  0.10454217  1
  O  O277  1  0.53307051  0.21399738  0.43986366  1
  O  O278  1  0.52884307  0.20300254  0.76899964  1
  O  O279  1  0.52809818  0.70113601  0.10561837  1
  O  O280  1  0.53185553  0.69692176  0.43787964  1
  O  O281  1  0.53001896  0.70389048  0.77179569  1
  O  O282  1  0.30383151  0.46590217  0.06021971  1
  O  O283  1  0.30183673  0.46951419  0.38896313  1
  O  O284  1  0.29772033  0.47045963  0.73073727  1
  O  O285  1  0.29866479  0.96888187  0.06641775  1
  O  O286  1  0.31320363  0.96394414  0.40142314  1
  O  O287  1  0.29794916  0.97118512  0.73139802  1
  O  O288  1  0.79722622  0.46560522  0.06036733  1
  O  O289  1  0.80027064  0.46965083  0.39556384  1
  O  O290  1  0.79740613  0.46717444  0.73050662  1
  O  O291  1  0.79821585  0.97578028  0.07935402  1
  O  O292  1  0.80044195  0.97098452  0.39930216  1
  O  O293  1  0.78969783  0.97777455  0.71963056  1
  O  O294  1  0.47100726  0.30065284  0.22716534  1
  O  O295  1  0.47431799  0.29184029  0.55943714  1
  O  O296  1  0.46879766  0.29850194  0.89562971  1
  O  O297  1  0.46947832  0.79681147  0.22920239  1
  O  O298  1  0.47230245  0.79811366  0.56449786  1
  O  O299  1  0.46791391  0.79846169  0.89960942  1
  O  O300  1  0.97173559  0.30742150  0.23065868  1
  O  O301  1  0.95397344  0.31949869  0.56178250  1
  O  O302  1  0.97112990  0.30781996  0.89821956  1
  O  O303  1  0.96697265  0.81689880  0.23888387  1
  O  O304  1  0.96616365  0.79514324  0.55589852  1
  O  O305  1  0.97254083  0.79936257  0.91143895  1
  O  O306  1  0.19747718  0.02850414  0.26562364  1
  O  O307  1  0.21271416  0.02528060  0.61415050  1
  O  O308  1  0.20183253  0.02994632  0.93682151  1
  O  O309  1  0.20868215  0.52619453  0.27115233  1
  O  O310  1  0.20094576  0.53831930  0.60332664  1
  O  O311  1  0.20667660  0.51770964  0.92998727  1
  O  O312  1  0.69344825  0.02502051  0.26601821  1
  O  O313  1  0.69977418  0.03272536  0.60626575  1
  O  O314  1  0.69293211  0.03602809  0.93681221  1
  O  O315  1  0.69766366  0.53052455  0.26974457  1
  O  O316  1  0.69854948  0.53551222  0.60430880  1
  O  O317  1  0.69994433  0.52929062  0.93924938  1
  O  O318  1  0.09019267  0.09385835  0.03886568  1
  O  O319  1  0.07547615  0.08825316  0.36564065  1
  O  O320  1  0.08103602  0.08475049  0.71478703  1
  O  O321  1  0.08705404  0.56797830  0.02580710  1
  O  O322  1  0.08631926  0.58587634  0.36526422  1
  O  O323  1  0.09832112  0.57644235  0.68758721  1
  O  O324  1  0.58935161  0.09095602  0.04143298  1
  O  O325  1  0.59268544  0.10492435  0.38047464  1
  O  O326  1  0.58731067  0.09338016  0.70535950  1
  O  O327  1  0.58316742  0.58967952  0.04281432  1
  O  O328  1  0.58302919  0.58332404  0.37090856  1
  O  O329  1  0.58623021  0.59363849  0.70818799  1
  O  O330  1  0.41707574  0.41473268  0.12703051  1
  O  O331  1  0.41551003  0.41531335  0.45089957  1
  O  O332  1  0.40443168  0.40707184  0.78723438  1
  O  O333  1  0.40822422  0.91116382  0.12842166  1
  O  O334  1  0.41930081  0.90951055  0.47369358  1
  O  O335  1  0.40514465  0.90938815  0.79090801  1
  O  O336  1  0.91357470  0.41918996  0.12887485  1
  O  O337  1  0.91381895  0.41789113  0.46046284  1
  O  O338  1  0.90890448  0.41156617  0.79609028  1
  O  O339  1  0.91273654  0.93876895  0.15641441  1
  O  O340  1  0.91414054  0.92415693  0.47039453  1
  O  O341  1  0.90723486  0.92749170  0.77546143  1
  O  O342  1  0.42237893  0.41676450  0.29276338  1
  O  O343  1  0.40610258  0.39604551  0.61285758  1
  O  O344  1  0.41252009  0.40699030  0.96341646  1
  O  O345  1  0.41128176  0.90572473  0.29445229  1
  O  O346  1  0.41657251  0.90955480  0.62748145  1
  O  O347  1  0.41331462  0.90977486  0.96506340  1
  O  O348  1  0.92193189  0.42200495  0.29642310  1
  O  O349  1  0.91531487  0.42542491  0.64699985  1
  O  O350  1  0.91596050  0.41778820  0.96557042  1
  O  O351  1  0.89918496  0.91507382  0.30353838  1
  O  O352  1  0.90935973  0.90683561  0.62001261  1
  O  O353  1  0.89948587  0.90681689  0.94832710  1
  O  O354  1  0.08943995  0.08786234  0.20235637  1
  O  O355  1  0.10497722  0.09247992  0.56747248  1
  O  O356  1  0.08819817  0.08232053  0.87133376  1
  O  O357  1  0.08897699  0.56668683  0.20409895  1
  O  O358  1  0.08953092  0.58549838  0.52783681  1
  O  O359  1  0.09191609  0.56707751  0.86699653  1
  O  O360  1  0.58592392  0.08483779  0.20242658  1
  O  O361  1  0.58704008  0.08905467  0.54605732  1
  O  O362  1  0.59149057  0.09734355  0.86839721  1
  O  O363  1  0.58267714  0.57907286  0.20227056  1
  O  O364  1  0.59043133  0.59100951  0.53601804  1
  O  O365  1  0.59317347  0.59217370  0.87906690  1
  O  O366  1  0.14146469  0.22827450  0.06279543  1
  O  O367  1  0.13922048  0.22052906  0.39303323  1
  O  O368  1  0.12920757  0.21542572  0.72469794  1
  O  O369  1  0.13416672  0.70702836  0.05994225  1
  O  O370  1  0.14297728  0.71990986  0.39063316  1
  O  O371  1  0.14077837  0.71471462  0.71406366  1
  O  O372  1  0.63487165  0.22574554  0.05856364  1
  O  O373  1  0.63670495  0.23751944  0.39186504  1
  O  O374  1  0.63617668  0.22812512  0.72566508  1
  O  O375  1  0.63873164  0.72195629  0.06362674  1
  O  O376  1  0.63938872  0.71627702  0.39203470  1
  O  O377  1  0.63836534  0.72795657  0.72759174  1
  O  O378  1  0.28443014  0.35967252  0.10803157  1
  O  O379  1  0.28459227  0.36667607  0.44053769  1
  O  O380  1  0.27131312  0.36630691  0.77876894  1
  O  O381  1  0.27465060  0.85627624  0.10496438  1
  O  O382  1  0.28285469  0.85740309  0.44437637  1
  O  O383  1  0.27076017  0.86196599  0.77184881  1
  O  O384  1  0.78202327  0.36118420  0.11071696  1
  O  O385  1  0.78089780  0.36222590  0.44157539  1
  O  O386  1  0.77413981  0.36233615  0.77783979  1
  O  O387  1  0.78324226  0.86345252  0.11991434  1
  O  O388  1  0.78243222  0.86409972  0.44652905  1
  O  O389  1  0.77947254  0.87306497  0.76949203  1
  O  O390  1  0.36404919  0.28558091  0.27494029  1
  O  O391  1  0.36543600  0.26250895  0.60050159  1
  O  O392  1  0.36209892  0.27205211  0.93990103  1
  O  O393  1  0.36154068  0.76998350  0.27135467  1
  O  O394  1  0.36357783  0.77639429  0.60784386  1
  O  O395  1  0.36727919  0.77554901  0.95165734  1
  O  O396  1  0.86494230  0.29102997  0.27985092  1
  O  O397  1  0.85294345  0.29054648  0.61237246  1
  O  O398  1  0.86355667  0.28335021  0.94287416  1
  O  O399  1  0.86013585  0.77629997  0.27661219  1
  O  O400  1  0.86549477  0.77343787  0.60743168  1
  O  O401  1  0.85822517  0.77718895  0.94638513  1
  O  O402  1  0.22462221  0.13875367  0.22634292  1
  O  O403  1  0.23332357  0.12757106  0.56322435  1
  O  O404  1  0.22143390  0.13549810  0.88963888  1
  O  O405  1  0.21776112  0.63451144  0.22401229  1
  O  O406  1  0.22335571  0.64245562  0.55514870  1
  O  O407  1  0.22343504  0.63445172  0.89695333  1
  O  O408  1  0.72101617  0.13441763  0.22513213  1
  O  O409  1  0.71839698  0.13551931  0.55539079  1
  O  O410  1  0.72861499  0.14347895  0.89793563  1
  O  O411  1  0.71479276  0.63518003  0.21930357  1
  O  O412  1  0.72557163  0.64135752  0.55828477  1
  O  O413  1  0.72821901  0.63998042  0.90055173  1
  O  O414  1  0.49262798  0.32877176  0.02890728  1
  O  O415  1  0.49617177  0.33762336  0.36189708  1
  O  O416  1  0.49018846  0.32928293  0.69201615  1
  O  O417  1  0.49712632  0.83809051  0.03494157  1
  O  O418  1  0.49102467  0.82776212  0.36174362  1
  O  O419  1  0.49304344  0.83155242  0.69794806  1
  O  O420  1  0.99372291  0.33759413  0.03149220  1
  O  O421  1  0.99765350  0.34377504  0.36564142  1
  O  O422  1  0.98814685  0.32944272  0.69344259  1
  O  O423  1  0.97736682  0.85396921  0.04226333  1
  O  O424  1  0.98607846  0.83855345  0.36930954  1
  O  O425  1  0.99726484  0.83682187  0.69092387  1
  O  O426  1  0.16722312  0.01047120  0.13336890  1
  O  O427  1  0.15892448  0.00239052  0.47993034  1
  O  O428  1  0.16542989  0.00468659  0.80235162  1
  O  O429  1  0.17473532  0.50266949  0.13643212  1
  O  O430  1  0.17512129  0.50936704  0.46977158  1
  O  O431  1  0.17837792  0.50962103  0.79797145  1
  O  O432  1  0.66028871  0.00701858  0.13195759  1
  O  O433  1  0.65480342  0.00343704  0.47104197  1
  O  O434  1  0.67108158  0.01576903  0.80539172  1
  O  O435  1  0.66169925  0.50280942  0.13466381  1
  O  O436  1  0.66927125  0.51086802  0.47102381  1
  O  O437  1  0.66837447  0.51254759  0.80785396  1
  O  O438  1  0.00830457  0.17662526  0.30261848  1
  O  O439  1  -0.00293151  0.15621974  0.64076685  1
  O  O440  1  0.01189094  0.17412990  0.97239480  1
  O  O441  1  0.01209318  0.66981945  0.30077821  1
  O  O442  1  0.01118950  0.65565220  0.62771618  1
  O  O443  1  0.00209455  0.65198000  0.97510629  1
  O  O444  1  0.50859790  0.17501462  0.30495475  1
  O  O445  1  0.50720800  0.16791096  0.63541163  1
  O  O446  1  0.50637045  0.16544197  0.97078011  1
  O  O447  1  0.50817130  0.66353936  0.30377231  1
  O  O448  1  0.50855800  0.66910615  0.63833147  1
  O  O449  1  0.50844264  0.66953565  0.97328863  1
  O  O450  1  0.33788762  0.49108531  0.19472461  1
  O  O451  1  0.34566393  0.49937801  0.52430199  1
  O  O452  1  0.33969419  0.49240255  0.86513430  1
  O  O453  1  0.32801089  0.98495977  0.19819322  1
  O  O454  1  0.33655726  0.98785367  0.53370746  1
  O  O455  1  0.33114470  0.98857458  0.86377383  1
  O  O456  1  0.83172912  0.49383351  0.19486794  1
  O  O457  1  0.83507407  0.49265903  0.53008042  1
  O  O458  1  0.83385492  0.49236540  0.86480602  1
  O  O459  1  0.81512970  0.99457135  0.21042423  1
  O  O460  1  0.82766124  0.99752194  0.53140997  1
  O  O461  1  0.83704291  1.00431485  0.85481391  1
