# generated using pymatgen
data_Na31Fe20(SO4)36
_symmetry_space_group_name_H-M   'P 1'
_cell_length_a   18.06250801
_cell_length_b   18.06183530
_cell_length_c   19.68357065
_cell_angle_alpha   107.56951255
_cell_angle_beta   107.60273117
_cell_angle_gamma   90.70375741
_symmetry_Int_Tables_number   1
_chemical_formula_structural   Na31Fe20(SO4)36
_chemical_formula_sum   'Na62 Fe40 S72 O288'
_cell_volume   5797.36650974
_cell_formula_units_Z   2
loop_
 _symmetry_equiv_pos_site_id
 _symmetry_equiv_pos_as_xyz
  1  'x, y, z'
loop_
 _atom_site_type_symbol
 _atom_site_label
 _atom_site_symmetry_multiplicity
 _atom_site_fract_x
 _atom_site_fract_y
 _atom_site_fract_z
 _atom_site_occupancy
  Na  Na0  1  0.12476600  0.35353470  0.06387771  1
  Na  Na1  1  0.12896486  0.36749659  0.41151437  1
  Na  Na2  1  0.14313583  0.36996886  0.75933612  1
  Na  Na3  1  0.13148316  0.86355820  0.08024982  1
  Na  Na4  1  0.15669357  0.84627658  0.41846158  1
  Na  Na5  1  0.13749312  0.86753258  0.75354725  1
  Na  Na6  1  0.63001790  0.36807549  0.08360926  1
  Na  Na7  1  0.63624391  0.36622476  0.41578735  1
  Na  Na8  1  0.62597279  0.37481197  0.75211462  1
  Na  Na9  1  0.62534812  0.87258474  0.07573993  1
  Na  Na10  1  0.63908329  0.86823017  0.42108914  1
  Na  Na11  1  0.64230271  0.84906751  0.74804609  1
  Na  Na12  1  0.36280479  0.13384329  0.24768116  1
  Na  Na13  1  0.36557082  0.13296952  0.58517943  1
  Na  Na14  1  0.36569280  0.12989289  0.91404893  1
  Na  Na15  1  0.36407943  0.63958911  0.25775879  1
  Na  Na16  1  0.37644243  0.64457942  0.60288889  1
  Na  Na17  1  0.35586511  0.62957153  0.90983904  1
  Na  Na18  1  0.85328811  0.12769446  0.23266314  1
  Na  Na19  1  0.87717211  0.15105801  0.60283893  1
  Na  Na20  1  0.86332161  0.15356118  0.91190140  1
  Na  Na21  1  0.86427993  0.62064216  0.24792485  1
  Na  Na22  1  0.86873957  0.64149835  0.59323050  1
  Na  Na23  1  0.87222470  0.62912890  0.91749407  1
  Na  Na24  1  1.01529875  0.45600278  0.81336964  1
  Na  Na25  1  0.98601811  0.01052162  0.41724918  1
  Na  Na26  1  0.98197011  0.01054500  0.08032311  1
  Na  Na27  1  0.96731341  0.51076120  0.39568956  1
  Na  Na28  1  1.00474815  0.06139467  0.76342811  1
  Na  Na29  1  0.52116751  -0.03778993  0.78141747  1
  Na  Na30  1  0.99135884  0.50061114  0.08742115  1
  Na  Na31  1  0.49338875  0.01221912  0.41688640  1
  Na  Na32  1  0.47823412  0.50836892  0.43741480  1
  Na  Na33  1  0.01218579  0.98620330  0.25086501  1
  Na  Na34  1  0.48396830  0.54385207  0.86328780  1
  Na  Na35  1  0.52278800  0.96302730  0.94618187  1
  Na  Na36  1  0.51297432  0.99015789  0.23290533  1
  Na  Na37  1  -0.01408123  1.02352203  0.90812027  1
  Na  Na38  1  0.51013422  0.99082701  0.59216736  1
  Na  Na39  1  0.51709234  0.49488982  0.23200809  1
  Na  Na40  1  0.01634438  0.98209175  0.58407721  1
  Na  Na41  1  0.04556351  0.49233181  0.61223560  1
  Na  Na42  1  0.74922368  0.24681644  0.69099019  1
  Na  Na43  1  0.26503798  0.75385693  0.65960320  1
  Na  Na44  1  0.74348216  0.74238543  0.34043306  1
  Na  Na45  1  0.75793179  0.26223635  0.32334505  1
  Na  Na46  1  0.72777861  0.74300243  -0.00240019  1
  Na  Na47  1  0.75475847  0.25610990  -0.00998668  1
  Na  Na48  1  0.25081580  0.26186184  -0.01166956  1
  Na  Na49  1  0.25342821  0.25307704  0.66616648  1
  Na  Na50  1  0.25546121  0.25467462  0.32639776  1
  Na  Na51  1  0.24850463  0.74642090  -0.00164804  1
  Na  Na52  1  0.25835055  0.26463928  0.83412434  1
  Na  Na53  1  0.24760403  0.24970021  0.49493888  1
  Na  Na54  1  0.24654078  0.74311091  0.17772353  1
  Na  Na55  1  0.25201175  0.26015539  0.15678710  1
  Na  Na56  1  0.73495278  0.74074387  0.83540725  1
  Na  Na57  1  0.75466789  0.25256881  0.50421431  1
  Na  Na58  1  0.25690845  0.74301534  0.82557666  1
  Na  Na59  1  0.75337675  0.25665468  0.15486330  1
  Na  Na60  1  0.73923465  0.74041944  0.16789104  1
  Na  Na61  1  0.74216951  0.74152476  0.51715786  1
  Fe  Fe62  1  0.46181820  0.80699286  0.44971884  1
  Fe  Fe63  1  0.46547277  0.31058619  0.45829692  1
  Fe  Fe64  1  0.45994371  0.30608078  0.11430165  1
  Fe  Fe65  1  0.46050020  0.80216187  0.11494048  1
  Fe  Fe66  1  0.96121619  0.81132626  0.78388326  1
  Fe  Fe67  1  0.96826311  0.80617533  0.45165860  1
  Fe  Fe68  1  0.96638216  0.80269446  0.11512238  1
  Fe  Fe69  1  0.96382871  0.31133168  0.45333405  1
  Fe  Fe70  1  0.46424111  0.30906368  0.79177316  1
  Fe  Fe71  1  0.96430249  0.31225576  0.11964791  1
  Fe  Fe72  1  0.19540164  0.03206794  0.38317633  1
  Fe  Fe73  1  0.18761071  0.03696161  0.04654975  1
  Fe  Fe74  1  0.19639987  0.52960643  0.04082837  1
  Fe  Fe75  1  0.68789554  0.53688302  0.70966223  1
  Fe  Fe76  1  0.19822456  0.03238272  0.71737498  1
  Fe  Fe77  1  0.70058310  0.53093988  0.37694785  1
  Fe  Fe78  1  0.18609509  0.54194071  0.37910056  1
  Fe  Fe79  1  0.69674881  0.03681090  0.71875662  1
  Fe  Fe80  1  0.69310334  0.03745489  0.38084407  1
  Fe  Fe81  1  0.69108013  0.53212463  0.04329739  1
  Fe  Fe82  1  0.03209082  0.69192293  0.87666766  1
  Fe  Fe83  1  0.03884755  0.69078435  0.54995589  1
  Fe  Fe84  1  0.53591438  0.19037253  0.88399582  1
  Fe  Fe85  1  0.03534982  0.69172900  0.21723294  1
  Fe  Fe86  1  0.53389544  0.18604103  0.20803561  1
  Fe  Fe87  1  0.03553814  0.19326311  0.21599099  1
  Fe  Fe88  1  0.53503616  0.19629967  0.55290486  1
  Fe  Fe89  1  0.53754991  0.69456690  0.54983892  1
  Fe  Fe90  1  0.53258095  0.69015812  0.20870189  1
  Fe  Fe91  1  0.03695074  0.19432187  0.54789658  1
  Fe  Fe92  1  0.30293492  0.46747359  0.28774454  1
  Fe  Fe93  1  0.30722997  0.96495020  0.95478932  1
  Fe  Fe94  1  0.30146686  0.46991636  0.62651802  1
  Fe  Fe95  1  0.80998949  0.96472217  0.61879598  1
  Fe  Fe96  1  0.80062956  0.97225549  0.95180995  1
  Fe  Fe97  1  0.81411825  0.46537706  0.62441436  1
  Fe  Fe98  1  0.80740869  0.45952592  0.94760656  1
  Fe  Fe99  1  0.30808790  0.96272159  0.28537625  1
  Fe  Fe100  1  0.80462236  0.96638060  0.28069999  1
  Fe  Fe101  1  0.31432787  0.96033425  0.62056487  1
  S  S102  1  0.35508224  0.14222061  0.08573829  1
  S  S103  1  0.36084509  0.13965963  0.41645096  1
  S  S104  1  0.36172019  0.13680099  0.75035130  1
  S  S105  1  0.35613769  0.64344025  0.08883456  1
  S  S106  1  0.35960498  0.63901661  0.41650903  1
  S  S107  1  0.35266032  0.63463780  0.74845310  1
  S  S108  1  0.86271187  0.13989412  0.08385261  1
  S  S109  1  0.86063828  0.14106098  0.41666068  1
  S  S110  1  0.86078001  0.13732909  0.74697795  1
  S  S111  1  0.86141820  0.63904036  0.08224742  1
  S  S112  1  0.86075284  0.64725814  0.42126274  1
  S  S113  1  0.85721666  0.64452732  0.74926665  1
  S  S114  1  0.14003420  0.36157354  0.25135803  1
  S  S115  1  0.14285710  0.35357292  0.57752803  1
  S  S116  1  0.14071321  0.35938915  0.91928828  1
  S  S117  1  0.13964752  0.85893036  0.25128804  1
  S  S118  1  0.14387380  0.85808987  0.58127498  1
  S  S119  1  0.13753827  0.86169004  0.91721292  1
  S  S120  1  0.63504607  0.35634457  0.24914636  1
  S  S121  1  0.64160563  0.35820231  0.58210981  1
  S  S122  1  0.63955448  0.35739946  0.91691859  1
  S  S123  1  0.64015530  0.86099982  0.25016073  1
  S  S124  1  0.63932283  0.86379200  0.58060483  1
  S  S125  1  0.64548790  0.86204033  0.91111364  1
  S  S126  1  0.06341385  0.16714501  0.04521905  1
  S  S127  1  0.06409776  0.16181059  0.37320655  1
  S  S128  1  0.07874661  0.16662127  0.70526103  1
  S  S129  1  0.07204599  0.67211499  0.04585981  1
  S  S130  1  0.06202975  0.66639100  0.37483191  1
  S  S131  1  0.06727157  0.67781783  0.71385038  1
  S  S132  1  0.56111873  0.16589826  0.04349824  1
  S  S133  1  0.56449335  0.16784298  0.37559598  1
  S  S134  1  0.56655332  0.16963069  0.70793992  1
  S  S135  1  0.56551321  0.67295038  0.04318242  1
  S  S136  1  0.57087255  0.67148649  0.37636246  1
  S  S137  1  0.56837828  0.66333886  0.70297568  1
  S  S138  1  0.32632155  0.43487712  0.12671533  1
  S  S139  1  0.32313509  0.42904598  0.45792365  1
  S  S140  1  0.33241994  0.42924731  0.78964100  1
  S  S141  1  0.32588688  0.93237798  0.12524237  1
  S  S142  1  0.33750744  0.93614816  0.45832879  1
  S  S143  1  0.33133452  0.93308006  0.79186437  1
  S  S144  1  0.82619119  0.43363164  0.12268319  1
  S  S145  1  0.83232303  0.43561870  0.45958579  1
  S  S146  1  0.81982119  0.43300797  0.78262919  1
  S  S147  1  0.83782391  0.92952510  0.12370498  1
  S  S148  1  0.83264887  0.93616212  0.45556959  1
  S  S149  1  0.83006654  0.93328529  0.78975680  1
  S  S150  1  0.42833531  0.33099155  0.29302512  1
  S  S151  1  0.42449273  0.32516524  0.62145120  1
  S  S152  1  0.43100391  0.32573579  0.95482582  1
  S  S153  1  0.43735386  0.83449910  0.29199748  1
  S  S154  1  0.44024536  0.83322619  0.62305675  1
  S  S155  1  0.42700681  0.83345650  0.96129706  1
  S  S156  1  0.93178021  0.32460343  0.28728454  1
  S  S157  1  0.94145133  0.33421386  0.62375187  1
  S  S158  1  0.92828807  0.33337336  0.96071244  1
  S  S159  1  0.93274046  0.83111987  0.29052412  1
  S  S160  1  0.93820427  0.83700344  0.62351640  1
  S  S161  1  0.93086428  0.83408851  0.95610366  1
  S  S162  1  0.16818966  0.06410227  0.21093733  1
  S  S163  1  0.17129358  0.06191751  0.54065327  1
  S  S164  1  0.16888352  0.06458830  0.87982443  1
  S  S165  1  0.17120309  0.57045802  0.20764502  1
  S  S166  1  0.16823222  0.56313131  0.54076792  1
  S  S167  1  0.16370758  0.57113950  0.87713949  1
  S  S168  1  0.66985826  0.06571591  0.21141450  1
  S  S169  1  0.67007690  0.06996137  0.54306553  1
  S  S170  1  0.67140960  0.07017247  0.87511238  1
  S  S171  1  0.66810241  0.56775271  0.20855362  1
  S  S172  1  0.67324104  0.56690544  0.53828453  1
  S  S173  1  0.67864921  0.56987796  0.88125111  1
  O  O174  1  0.35911443  0.22339048  0.08096025  1
  O  O175  1  0.36892537  0.21898559  0.40907831  1
  O  O176  1  0.37048125  0.21530340  0.74090749  1
  O  O177  1  0.35950428  0.72846771  0.09224653  1
  O  O178  1  0.37206578  0.71469746  0.40402186  1
  O  O179  1  0.36341329  0.70752809  0.73185358  1
  O  O180  1  0.87396480  0.21991151  0.07805909  1
  O  O181  1  0.86890294  0.22011373  0.40903551  1
  O  O182  1  0.87347635  0.21059071  0.73327842  1
  O  O183  1  0.87086546  0.71699408  0.07158083  1
  O  O184  1  0.86873725  0.72879236  0.41650431  1
  O  O185  1  0.86851352  0.72105386  0.73753266  1
  O  O186  1  0.27784000  0.12952388  0.09730312  1
  O  O187  1  0.28171051  0.12971840  0.42414663  1
  O  O188  1  0.28438967  0.13036086  0.76285588  1
  O  O189  1  0.27690554  0.62854176  0.09835747  1
  O  O190  1  0.28022162  0.62928942  0.42129470  1
  O  O191  1  0.27364787  0.62235092  0.75227802  1
  O  O192  1  0.78950833  0.13174294  0.09902612  1
  O  O193  1  0.78258248  0.13221088  0.42674993  1
  O  O194  1  0.77808137  0.12916428  0.74877864  1
  O  O195  1  0.78150951  0.63162539  0.08891081  1
  O  O196  1  0.77955115  0.63695313  0.42466967  1
  O  O197  1  0.77817477  0.63526156  0.75593858  1
  O  O198  1  0.13110439  0.28435451  0.26429456  1
  O  O199  1  0.13844398  0.26942629  0.57498269  1
  O  O200  1  0.12489524  0.29051027  0.93990506  1
  O  O201  1  0.12900245  0.78050816  0.25828386  1
  O  O202  1  0.13500422  0.77917607  0.58884023  1
  O  O203  1  0.12653736  0.78412335  0.92772308  1
  O  O204  1  0.61853558  0.27993363  0.26157560  1
  O  O205  1  0.63278057  0.27736018  0.58756380  1
  O  O206  1  0.62908798  0.27982746  0.92813522  1
  O  O207  1  0.63225260  0.78141091  0.25718860  1
  O  O208  1  0.63251709  0.78392649  0.58534597  1
  O  O209  1  0.64073215  0.77947086  0.90696872  1
  O  O210  1  0.22129809  0.36791872  0.24621592  1
  O  O211  1  0.22202305  0.36777094  0.56965464  1
  O  O212  1  0.22121410  0.36352260  0.91585841  1
  O  O213  1  0.21870172  0.86848164  0.24365117  1
  O  O214  1  0.22259543  0.86962601  0.57451786  1
  O  O215  1  0.21566569  0.86741817  0.90683788  1
  O  O216  1  0.71164786  0.35674026  0.23874998  1
  O  O217  1  0.72083575  0.36878068  0.57491744  1
  O  O218  1  0.71794903  0.36442145  0.90905695  1
  O  O219  1  0.71828592  0.86979677  0.23980313  1
  O  O220  1  0.71637407  0.87459088  0.56783233  1
  O  O221  1  0.72501049  0.87686453  0.90071124  1
  O  O222  1  0.41606075  0.13499620  0.15340492  1
  O  O223  1  0.42038303  0.13046824  0.48381721  1
  O  O224  1  0.42244423  0.12646491  0.81553942  1
  O  O225  1  0.41525566  0.63557695  0.15770616  1
  O  O226  1  0.41846735  0.63148714  0.48544116  1
  O  O227  1  0.41189574  0.62838892  0.81560747  1
  O  O228  1  0.92796091  0.12558263  0.14646796  1
  O  O229  1  0.92087043  0.13099645  0.48354502  1
  O  O230  1  0.91492835  0.12644720  0.81502129  1
  O  O231  1  0.91934998  0.63439743  0.15302038  1
  O  O232  1  0.91718839  0.64105333  0.49211446  1
  O  O233  1  0.91506626  0.64012534  0.82019843  1
  O  O234  1  0.36210637  0.08663532  0.01649761  1
  O  O235  1  0.36937603  0.08100017  0.34818495  1
  O  O236  1  0.36448495  0.07797484  0.67967670  1
  O  O237  1  0.36414762  0.59397826  0.01953515  1
  O  O238  1  0.37058786  0.57595799  0.35079907  1
  O  O239  1  0.36215714  0.56958691  0.67873699  1
  O  O240  1  0.86713558  0.08269755  0.01221590  1
  O  O241  1  0.86831265  0.08198875  0.34798123  1
  O  O242  1  0.87077727  0.07250687  0.67999096  1
  O  O243  1  0.87310281  0.57800447  0.01779720  1
  O  O244  1  0.87302685  0.59078333  0.35601773  1
  O  O245  1  0.86753125  0.58258177  0.68393791  1
  O  O246  1  0.08431683  0.36561796  0.18057479  1
  O  O247  1  0.08380304  0.36399168  0.50997820  1
  O  O248  1  0.08468962  0.36560339  0.85045174  1
  O  O249  1  0.08063068  0.86967480  0.18384370  1
  O  O250  1  0.08476717  0.86663784  0.51248958  1
  O  O251  1  0.07774880  0.87196720  0.85093780  1
  O  O252  1  0.57416726  0.36766629  0.18280133  1
  O  O253  1  0.58278938  0.36347617  0.51192118  1
  O  O254  1  0.58059143  0.36264908  0.84733606  1
  O  O255  1  0.57902165  0.87220862  0.18505169  1
  O  O256  1  0.57707185  0.87469427  0.51512802  1
  O  O257  1  0.58593363  0.87994826  0.84954406  1
  O  O258  1  0.13158904  0.42325697  0.31701114  1
  O  O259  1  0.13305901  0.40425991  0.64654313  1
  O  O260  1  0.13417936  0.42974805  0.98628211  1
  O  O261  1  0.13158620  0.91837163  0.31966355  1
  O  O262  1  0.13265076  0.91713221  0.64843885  1
  O  O263  1  0.13292738  0.92172943  0.98686923  1
  O  O264  1  0.63092383  0.41895208  0.31745371  1
  O  O265  1  0.63102189  0.41502704  0.64883974  1
  O  O266  1  0.63040249  0.41812515  0.98354251  1
  O  O267  1  0.63491887  0.91922522  0.32047812  1
  O  O268  1  0.63392090  0.92196959  0.65037119  1
  O  O269  1  0.64293819  0.91356162  0.98434832  1
  O  O270  1  0.03750571  0.20471091  0.11288879  1
  O  O271  1  0.02869198  0.19272909  0.43404013  1
  O  O272  1  0.05061602  0.18663011  0.76891343  1
  O  O273  1  0.03402450  0.70157433  0.10678115  1
  O  O274  1  0.02742849  0.69949040  0.43784597  1
  O  O275  1  0.02795614  0.71270980  0.77298415  1
  O  O276  1  0.52242318  0.20372403  0.10374391  1
  O  O277  1  0.52823354  0.19692271  0.43668082  1
  O  O278  1  0.53185743  0.19835209  0.76967336  1
  O  O279  1  0.52956791  0.70386082  0.10705432  1
  O  O280  1  0.53386661  0.69851238  0.43714998  1
  O  O281  1  0.53496000  0.68104046  0.76255015  1
  O  O282  1  0.29671197  0.47382989  0.06911112  1
  O  O283  1  0.29635884  0.46925081  0.39977601  1
  O  O284  1  0.30306434  0.44632132  0.71652971  1
  O  O285  1  0.29795702  0.97010531  0.06548404  1
  O  O286  1  0.30376099  0.97123394  0.39585581  1
  O  O287  1  0.29761742  0.96856125  0.72869924  1
  O  O288  1  0.79423380  0.46777137  0.05849675  1
  O  O289  1  0.80277912  0.47186044  0.40002088  1
  O  O290  1  0.78803815  0.47630750  0.72513100  1
  O  O291  1  0.81933782  0.96486095  0.06376066  1
  O  O292  1  0.80356882  0.97127910  0.39335779  1
  O  O293  1  0.79734675  0.96650198  0.72620241  1
  O  O294  1  0.46174455  0.30523798  0.23050058  1
  O  O295  1  0.46578245  0.29745957  0.56250028  1
  O  O296  1  0.46917189  0.28802196  0.89449186  1
  O  O297  1  0.47447826  0.80422232  0.23216699  1
  O  O298  1  0.46761062  0.79821577  0.55506374  1
  O  O299  1  0.45962258  0.81506376  0.90079256  1
  O  O300  1  0.97102199  0.29393253  0.22748488  1
  O  O301  1  0.97487117  0.29966748  0.55843775  1
  O  O302  1  0.95393251  0.30296221  0.89679090  1
  O  O303  1  0.96811993  0.79981278  0.22911588  1
  O  O304  1  0.97778848  0.80638041  0.56482824  1
  O  O305  1  0.96667002  0.80264810  0.89502630  1
  O  O306  1  0.20032572  0.02881738  0.27286316  1
  O  O307  1  0.20275949  0.02844023  0.60296897  1
  O  O308  1  0.20599173  0.02725839  0.94006705  1
  O  O309  1  0.19792464  0.53113720  0.26726842  1
  O  O310  1  0.19589856  0.51994162  0.59598243  1
  O  O311  1  0.19269453  0.55280544  0.94989178  1
  O  O312  1  0.70364770  0.03362382  0.27775702  1
  O  O313  1  0.69916474  0.03204856  0.60216316  1
  O  O314  1  0.70256187  0.03899829  0.93749195  1
  O  O315  1  0.69292413  0.53261868  0.26928750  1
  O  O316  1  0.70023428  0.52868761  0.59787973  1
  O  O317  1  0.71129840  0.52523400  0.93706525  1
  O  O318  1  0.07995090  0.08421778  0.04486930  1
  O  O319  1  0.08169672  0.07933650  0.37034964  1
  O  O320  1  0.09542609  0.08089196  0.68856661  1
  O  O321  1  0.09345321  0.59264586  0.04472427  1
  O  O322  1  0.07413008  0.58364937  0.37041942  1
  O  O323  1  0.08275494  0.59914454  0.71308331  1
  O  O324  1  0.57357881  0.08671966  0.04344878  1
  O  O325  1  0.57941182  0.08401454  0.36881225  1
  O  O326  1  0.58865468  0.08899269  0.70319112  1
  O  O327  1  0.59880782  0.59980926  0.05018710  1
  O  O328  1  0.58992196  0.58986138  0.36715766  1
  O  O329  1  0.58710940  0.57976128  0.68234032  1
  O  O330  1  0.40664369  0.41306376  0.12947744  1
  O  O331  1  0.40545713  0.41220118  0.46353410  1
  O  O332  1  0.41556314  0.41043166  0.79920105  1
  O  O333  1  0.40637030  0.91086808  0.13227041  1
  O  O334  1  0.42150548  0.92532227  0.46293653  1
  O  O335  1  0.41246299  0.92183700  0.79848173  1
  O  O336  1  0.90731623  0.41447791  0.12394301  1
  O  O337  1  0.91487406  0.41878097  0.46351476  1
  O  O338  1  0.89173684  0.40470519  0.77254052  1
  O  O339  1  0.92236644  0.91169865  0.13826944  1
  O  O340  1  0.91587376  0.91982021  0.46176804  1
  O  O341  1  0.91342480  0.91951144  0.79463391  1
  O  O342  1  0.41051367  0.41375325  0.30508636  1
  O  O343  1  0.39833870  0.40186683  0.62038940  1
  O  O344  1  0.41043661  0.40104868  0.95095390  1
  O  O345  1  0.42163275  0.91773566  0.29686828  1
  O  O346  1  0.42071093  0.91516563  0.62310757  1
  O  O347  1  0.40801267  0.91784286  0.97766571  1
  O  O348  1  0.91551516  0.40411373  0.29315331  1
  O  O349  1  0.92060006  0.41387244  0.62195338  1
  O  O350  1  0.91187753  0.41832845  0.97212968  1
  O  O351  1  0.91789528  0.91454677  0.29617258  1
  O  O352  1  0.92203335  0.91905372  0.62529969  1
  O  O353  1  0.91493991  0.91635811  0.96055153  1
  O  O354  1  0.08549227  0.07863584  0.20648397  1
  O  O355  1  0.08818438  0.07773235  0.53314758  1
  O  O356  1  0.08892435  0.07610861  0.88069716  1
  O  O357  1  0.08840512  0.58669632  0.20001182  1
  O  O358  1  0.08619622  0.58109288  0.53929079  1
  O  O359  1  0.08065537  0.59056006  0.86836834  1
  O  O360  1  0.58884656  0.08409392  0.21231817  1
  O  O361  1  0.58688739  0.08566713  0.53702902  1
  O  O362  1  0.58848796  0.08702168  0.86928083  1
  O  O363  1  0.58603081  0.58799471  0.20163275  1
  O  O364  1  0.59162784  0.58714601  0.52968833  1
  O  O365  1  0.60646349  0.59679882  0.89166367  1
  O  O366  1  0.13618004  0.21263435  0.05408443  1
  O  O367  1  0.13592610  0.21150828  0.38659276  1
  O  O368  1  0.14930210  0.21701542  0.71518880  1
  O  O369  1  0.14202621  0.72705365  0.06347723  1
  O  O370  1  0.13435732  0.71322380  0.38823577  1
  O  O371  1  0.13764769  0.73121682  0.72952498  1
  O  O372  1  0.63293726  0.21766742  0.05969046  1
  O  O373  1  0.63783465  0.21719095  0.39305733  1
  O  O374  1  0.63248595  0.22401333  0.71736872  1
  O  O375  1  0.63068040  0.73355143  0.05807699  1
  O  O376  1  0.64182681  0.72629764  0.39555808  1
  O  O377  1  0.63968577  0.71595121  0.71789148  1
  O  O378  1  0.27268654  0.36414040  0.11081119  1
  O  O379  1  0.27138066  0.35551975  0.43616098  1
  O  O380  1  0.28216796  0.35829844  0.77983307  1
  O  O381  1  0.27071503  0.86393701  0.11011629  1
  O  O382  1  0.29214424  0.86288290  0.44379716  1
  O  O383  1  0.28023316  0.86036908  0.77392347  1
  O  O384  1  0.77465493  0.36021155  0.10419258  1
  O  O385  1  0.78220623  0.36172737  0.44272405  1
  O  O386  1  0.75954626  0.36964941  0.76894101  1
  O  O387  1  0.78538029  0.85909202  0.10806472  1
  O  O388  1  0.78162987  0.86445735  0.43931938  1
  O  O389  1  0.78256701  0.86177408  0.77719187  1
  O  O390  1  0.35668003  0.27756711  0.27557149  1
  O  O391  1  0.35660736  0.26653456  0.60234270  1
  O  O392  1  0.36319515  0.26853626  0.94169669  1
  O  O393  1  0.36539694  0.78532813  0.27709748  1
  O  O394  1  0.37050494  0.78545791  0.61538323  1
  O  O395  1  0.35583287  0.78098112  0.94804947  1
  O  O396  1  0.86064718  0.26979100  0.26793703  1
  O  O397  1  0.87003847  0.28199060  0.60751341  1
  O  O398  1  0.85817319  0.28729381  0.95774488  1
  O  O399  1  0.86022657  0.78223267  0.27607438  1
  O  O400  1  0.86571719  0.78706443  0.60582765  1
  O  O401  1  0.86068184  0.78295224  0.94322645  1
  O  O402  1  0.21739087  0.13708213  0.22688967  1
  O  O403  1  0.22121473  0.13365457  0.55377887  1
  O  O404  1  0.21824277  0.13689741  0.89436640  1
  O  O405  1  0.22328112  0.64168704  0.22715450  1
  O  O406  1  0.22031195  0.63420166  0.55920291  1
  O  O407  1  0.21419541  0.64089413  0.88588573  1
  O  O408  1  0.71921980  0.13887487  0.22731298  1
  O  O409  1  0.72080247  0.14190676  0.55945973  1
  O  O410  1  0.72012312  0.14043403  0.88336687  1
  O  O411  1  0.72131473  0.63975912  0.22616090  1
  O  O412  1  0.72743154  0.63649178  0.55544259  1
  O  O413  1  0.73831456  0.63610647  0.89799425  1
  O  O414  1  0.49081198  0.33007664  0.02904652  1
  O  O415  1  0.48809950  0.32934895  0.36437840  1
  O  O416  1  0.48337634  0.32890755  0.69403668  1
  O  O417  1  0.48765249  0.83223720  0.03369891  1
  O  O418  1  0.49595159  0.83763247  0.36565982  1
  O  O419  1  0.50647216  0.84186231  0.69056875  1
  O  O420  1  0.99232939  0.33833680  0.03429277  1
  O  O421  1  0.98978066  0.32119888  0.35980094  1
  O  O422  1  1.00263140  0.33974484  0.69354020  1
  O  O423  1  0.99175888  0.83770944  0.02945229  1
  O  O424  1  0.99288891  0.83381986  0.36306299  1
  O  O425  1  0.99458487  0.84053014  0.69764346  1
  O  O426  1  0.16706771  0.00563057  0.13878852  1
  O  O427  1  0.17022073  0.00100852  0.46886900  1
  O  O428  1  0.16498336  0.00770179  0.80460672  1
  O  O429  1  0.17062370  0.51192490  0.13447129  1
  O  O430  1  0.16190307  0.50809811  0.46430912  1
  O  O431  1  0.16080973  0.50276267  0.81405784  1
  O  O432  1  0.66787231  0.00484511  0.14339659  1
  O  O433  1  0.66696440  0.01145537  0.46901842  1
  O  O434  1  0.66479322  0.00713260  0.80152468  1
  O  O435  1  0.66738073  0.50951380  0.13652062  1
  O  O436  1  0.67058346  0.50720573  0.46499154  1
  O  O437  1  0.66677519  0.51415922  0.80430338  1
  O  O438  1  0.00490509  0.15656758  0.29967484  1
  O  O439  1  0.01526800  0.16708679  0.63431362  1
  O  O440  1  -0.00060275  0.16042010  0.97666577  1
  O  O441  1  0.00162635  0.66651746  0.30318971  1
  O  O442  1  0.00910123  0.67641683  0.63959786  1
  O  O443  1  0.01256955  0.67044047  0.97411784  1
  O  O444  1  0.50627165  0.16707758  0.30305804  1
  O  O445  1  0.50313888  0.16102228  0.63423126  1
  O  O446  1  0.50361176  0.16537982  0.96991248  1
  O  O447  1  0.51168387  0.67259511  0.30471040  1
  O  O448  1  0.50892145  0.66869916  0.63088777  1
  O  O449  1  0.50281724  0.65948572  0.97265423  1
  O  O450  1  0.33383290  0.49229660  0.20237391  1
  O  O451  1  0.32184092  0.48376167  0.53108678  1
  O  O452  1  0.33291955  0.49670449  0.85213647  1
  O  O453  1  0.33013859  0.99336513  0.19863468  1
  O  O454  1  0.33833707  0.99586750  0.53025571  1
  O  O455  1  0.32675949  0.99161650  0.86273619  1
  O  O456  1  0.82862057  0.49146868  0.19287542  1
  O  O457  1  0.83427006  0.49218333  0.53347495  1
  O  O458  1  0.83317221  0.49121676  0.85901455  1
  O  O459  1  0.83728190  0.99013854  0.19591000  1
  O  O460  1  0.83348217  0.99545063  0.52721213  1
  O  O461  1  0.83436579  0.99616410  0.86140353  1
