# generated using pymatgen
data_Na31Fe20(SO4)36
_symmetry_space_group_name_H-M   'P 1'
_cell_length_a   18.08045880
_cell_length_b   18.08382720
_cell_length_c   19.71085830
_cell_angle_alpha   107.62960642
_cell_angle_beta   107.58747614
_cell_angle_gamma   90.71670105
_symmetry_Int_Tables_number   1
_chemical_formula_structural   Na31Fe20(SO4)36
_chemical_formula_sum   'Na62 Fe40 S72 O288'
_cell_volume   5816.45076010
_cell_formula_units_Z   2
loop_
 _symmetry_equiv_pos_site_id
 _symmetry_equiv_pos_as_xyz
  1  'x, y, z'
loop_
 _atom_site_type_symbol
 _atom_site_label
 _atom_site_symmetry_multiplicity
 _atom_site_fract_x
 _atom_site_fract_y
 _atom_site_fract_z
 _atom_site_occupancy
  Na  Na0  1  0.13271356  0.36821881  0.08670453  1
  Na  Na1  1  0.14833564  0.36758508  0.41662386  1
  Na  Na2  1  0.13794562  0.36005684  0.74600181  1
  Na  Na3  1  0.13466536  0.87210377  0.09185094  1
  Na  Na4  1  0.14225360  0.85738065  0.42031367  1
  Na  Na5  1  0.13194599  0.86591248  0.74894960  1
  Na  Na6  1  0.62491225  0.36680005  0.07680644  1
  Na  Na7  1  0.62819877  0.36520649  0.41615459  1
  Na  Na8  1  0.63014795  0.37220744  0.75611338  1
  Na  Na9  1  0.62129510  0.85001648  0.06256529  1
  Na  Na10  1  0.63781323  0.87110837  0.42442194  1
  Na  Na11  1  0.64391240  0.86668426  0.75151683  1
  Na  Na12  1  0.35508173  0.13837534  0.25151777  1
  Na  Na13  1  0.36388891  0.13666931  0.58291104  1
  Na  Na14  1  0.37904887  0.13167646  0.91644780  1
  Na  Na15  1  0.37178076  0.63688014  0.25696059  1
  Na  Na16  1  0.36161036  0.63337803  0.57294389  1
  Na  Na17  1  0.36969988  0.64198308  0.91620947  1
  Na  Na18  1  0.86577113  0.13293445  0.25089039  1
  Na  Na19  1  0.86535841  0.13605796  0.58631474  1
  Na  Na20  1  0.85143806  0.12444218  0.90488093  1
  Na  Na21  1  0.86669229  0.63147323  0.25023782  1
  Na  Na22  1  0.86599300  0.64491640  0.59308463  1
  Na  Na23  1  0.85649151  0.63038196  0.91102788  1
  Na  Na24  1  0.99251542  0.50736311  0.75470465  1
  Na  Na25  1  0.96348741  0.01472601  0.00853908  1
  Na  Na26  1  0.97275392  0.00760661  0.76745898  1
  Na  Na27  1  0.48426342  0.50221155  0.40856931  1
  Na  Na28  1  0.46164923  0.00906217  0.42721905  1
  Na  Na29  1  0.50462755  0.01419716  0.06153026  1
  Na  Na30  1  1.02017908  0.49304488  0.40714424  1
  Na  Na31  1  0.49384378  0.55552030  0.76402451  1
  Na  Na32  1  1.00481768  0.00002650  0.40931752  1
  Na  Na33  1  0.01109087  0.49437524  0.58096891  1
  Na  Na34  1  0.02088628  0.99387689  0.23310802  1
  Na  Na35  1  0.52051059  0.96001263  0.80106112  1
  Na  Na36  1  0.03409195  0.49482053  0.24383920  1
  Na  Na37  1  0.00996162  0.98780908  0.58923455  1
  Na  Na38  1  0.47360874  1.00981231  0.25844429  1
  Na  Na39  1  0.00129937  0.49344415  0.93821758  1
  Na  Na40  1  0.50519815  0.49741810  0.92587214  1
  Na  Na41  1  0.50757156  0.45768998  0.57791967  1
  Na  Na42  1  0.73533193  0.23617951  0.67659413  1
  Na  Na43  1  0.26768926  0.76141453  0.64986168  1
  Na  Na44  1  0.72927079  0.23417823  0.00018283  1
  Na  Na45  1  0.24374471  0.24360755  0.01060519  1
  Na  Na46  1  0.24329660  0.72854046  0.35607701  1
  Na  Na47  1  0.74691506  0.74611316  0.33811025  1
  Na  Na48  1  0.26586709  0.26709493  0.32145538  1
  Na  Na49  1  0.74524191  0.76035345  -0.01355029  1
  Na  Na50  1  0.74519792  0.24804087  0.33922679  1
  Na  Na51  1  0.25621566  0.75780717  0.00050750  1
  Na  Na52  1  0.25715041  0.25736195  0.82666212  1
  Na  Na53  1  0.73893779  0.74263156  0.51744507  1
  Na  Na54  1  0.25692369  0.76218334  0.17374424  1
  Na  Na55  1  0.27179202  0.76555138  0.82333102  1
  Na  Na56  1  0.74326837  0.24197531  0.50618846  1
  Na  Na57  1  0.26338945  0.25366794  0.49303504  1
  Na  Na58  1  0.74825652  0.75034524  0.16243987  1
  Na  Na59  1  0.71486386  0.21939700  0.83169251  1
  Na  Na60  1  0.75528766  0.76668758  0.82286621  1
  Na  Na61  1  0.74839618  0.24894835  0.16926492  1
  Fe  Fe62  1  0.46709225  0.81030332  0.12184396  1
  Fe  Fe63  1  0.46768611  0.81053166  0.45684417  1
  Fe  Fe64  1  0.46537403  0.30062972  0.79167016  1
  Fe  Fe65  1  0.46248475  0.31372802  0.12181762  1
  Fe  Fe66  1  0.96585468  0.80663564  0.45357151  1
  Fe  Fe67  1  0.96727784  0.30807451  0.78498881  1
  Fe  Fe68  1  0.96124672  0.30466256  0.11556678  1
  Fe  Fe69  1  0.96007773  0.80588514  0.11655808  1
  Fe  Fe70  1  0.96867617  0.30486332  0.45076399  1
  Fe  Fe71  1  0.96509412  0.80596767  0.78828554  1
  Fe  Fe72  1  0.69166574  0.53519184  0.37935942  1
  Fe  Fe73  1  0.19525534  0.53795288  0.05178460  1
  Fe  Fe74  1  0.69259500  0.53699394  0.04829459  1
  Fe  Fe75  1  0.69410907  0.53517611  0.71470085  1
  Fe  Fe76  1  0.19261087  0.53140144  0.71660959  1
  Fe  Fe77  1  0.69126602  0.03416531  0.37599298  1
  Fe  Fe78  1  0.19126486  0.03531230  0.04786009  1
  Fe  Fe79  1  0.19383775  0.03852515  0.71488500  1
  Fe  Fe80  1  0.19879648  0.02702899  0.37860719  1
  Fe  Fe81  1  0.69651841  0.02731023  0.03753362  1
  Fe  Fe82  1  0.03315320  0.19258277  0.21161007  1
  Fe  Fe83  1  0.53550362  0.68951425  0.21229478  1
  Fe  Fe84  1  0.54152860  0.69626553  0.55239380  1
  Fe  Fe85  1  0.52989759  0.20134593  0.54399488  1
  Fe  Fe86  1  0.03843427  0.69218477  0.55050703  1
  Fe  Fe87  1  0.03373612  0.19514069  0.88261388  1
  Fe  Fe88  1  0.53178141  0.19680058  0.21390326  1
  Fe  Fe89  1  0.03882519  0.69117111  0.88512598  1
  Fe  Fe90  1  0.03317931  0.69113073  0.21566762  1
  Fe  Fe91  1  0.03948383  0.19025490  0.54874022  1
  Fe  Fe92  1  0.80815470  0.46607607  0.28580847  1
  Fe  Fe93  1  0.80857292  0.46481715  0.61613134  1
  Fe  Fe94  1  0.31779617  0.96430604  0.62571324  1
  Fe  Fe95  1  0.31198939  0.46850466  0.95905149  1
  Fe  Fe96  1  0.30728677  0.46625702  0.61957860  1
  Fe  Fe97  1  0.30535457  0.96703488  0.95330156  1
  Fe  Fe98  1  0.80713514  0.46297785  0.95215014  1
  Fe  Fe99  1  0.29967730  0.46809967  0.28885254  1
  Fe  Fe100  1  0.80738923  0.96582775  0.28659852  1
  Fe  Fe101  1  0.79495221  0.97134951  0.62426132  1
  S  S102  1  0.35953375  0.14035738  0.08264713  1
  S  S103  1  0.35784099  0.14000756  0.41355265  1
  S  S104  1  0.35522990  0.14223684  0.74859158  1
  S  S105  1  0.35787561  0.64537402  0.08698157  1
  S  S106  1  0.36826193  0.63984155  0.41599167  1
  S  S107  1  0.35159099  0.63977989  0.75082737  1
  S  S108  1  0.85733255  0.14523404  0.08676418  1
  S  S109  1  0.86244538  0.14078929  0.41714243  1
  S  S110  1  0.86014963  0.14468812  0.74777348  1
  S  S111  1  0.86029486  0.63911548  0.08291572  1
  S  S112  1  0.86167090  0.63989244  0.42005851  1
  S  S113  1  0.86424673  0.63533772  0.75118682  1
  S  S114  1  0.13352196  0.35923303  0.24976192  1
  S  S115  1  0.14096263  0.35884645  0.58229495  1
  S  S116  1  0.13918530  0.36188751  0.91863374  1
  S  S117  1  0.13422134  0.85782622  0.25101279  1
  S  S118  1  0.14073776  0.86211525  0.58608112  1
  S  S119  1  0.14043863  0.85892060  0.91672810  1
  S  S120  1  0.64176658  0.36048384  0.25041547  1
  S  S121  1  0.64834751  0.35989951  0.58460773  1
  S  S122  1  0.63887770  0.36251185  0.91659100  1
  S  S123  1  0.64424852  0.85759642  0.24841476  1
  S  S124  1  0.64248512  0.86068086  0.58289770  1
  S  S125  1  0.63910316  0.85671734  0.91903498  1
  S  S126  1  0.06422782  0.17135596  0.03970844  1
  S  S127  1  0.06823749  0.16788451  0.37633776  1
  S  S128  1  0.06699641  0.17057428  0.70963339  1
  S  S129  1  0.06753048  0.67193452  0.04523893  1
  S  S130  1  0.05990864  0.66731700  0.37599020  1
  S  S131  1  0.06765111  0.66677206  0.71229224  1
  S  S132  1  0.57162667  0.17066728  0.04645011  1
  S  S133  1  0.56921774  0.17024221  0.37426623  1
  S  S134  1  0.56467224  0.17940045  0.70749263  1
  S  S135  1  0.56409748  0.66575233  0.04446244  1
  S  S136  1  0.57287463  0.66938178  0.37642259  1
  S  S137  1  0.57057127  0.65671269  0.70232296  1
  S  S138  1  0.32356926  0.43378403  0.12294390  1
  S  S139  1  0.33126438  0.43684801  0.45661801  1
  S  S140  1  0.32914003  0.42938903  0.79623571  1
  S  S141  1  0.32818557  0.93690270  0.12622716  1
  S  S142  1  0.32596842  0.92702937  0.45692495  1
  S  S143  1  0.32403903  0.93381025  0.78704249  1
  S  S144  1  0.82949465  0.43112246  0.12460390  1
  S  S145  1  0.83592974  0.43328183  0.45753957  1
  S  S146  1  0.83782235  0.43322530  0.79185735  1
  S  S147  1  0.82931186  0.93440069  0.12647017  1
  S  S148  1  0.83305568  0.93502994  0.45915278  1
  S  S149  1  0.84073753  0.93325239  0.79450918  1
  S  S150  1  0.43315259  0.33312869  0.28952736  1
  S  S151  1  0.43433138  0.33442368  0.63103033  1
  S  S152  1  0.42976609  0.33200024  0.95768859  1
  S  S153  1  0.44385440  0.83312560  0.29313687  1
  S  S154  1  0.44047070  0.82803404  0.62588543  1
  S  S155  1  0.42328427  0.83298691  0.96049459  1
  S  S156  1  0.93331740  0.33054149  0.29132702  1
  S  S157  1  0.93670796  0.33224830  0.62252678  1
  S  S158  1  0.92732696  0.32642817  0.95308168  1
  S  S159  1  0.93038470  0.82965486  0.29230289  1
  S  S160  1  0.93617545  0.83198680  0.62417718  1
  S  S161  1  0.93142286  0.81911858  0.95324805  1
  S  S162  1  0.16067654  0.06822452  0.20674535  1
  S  S163  1  0.16487538  0.06398373  0.53912647  1
  S  S164  1  0.16811827  0.06910038  0.87553656  1
  S  S165  1  0.17107642  0.57033489  0.21064467  1
  S  S166  1  0.16489951  0.56281914  0.54420614  1
  S  S167  1  0.16913871  0.56477446  0.87932528  1
  S  S168  1  0.67210565  0.06926548  0.20779355  1
  S  S169  1  0.66941583  0.07153850  0.53762951  1
  S  S170  1  0.66970721  0.06174787  0.88023193  1
  S  S171  1  0.67566933  0.56900222  0.21185684  1
  S  S172  1  0.67439151  0.56494648  0.54072839  1
  S  S173  1  0.66979797  0.56367597  0.87907337  1
  O  O174  1  0.37067161  0.21847335  0.07384651  1
  O  O175  1  0.35951307  0.21854250  0.40732147  1
  O  O176  1  0.36769605  0.22487394  0.74598058  1
  O  O177  1  0.36852459  0.72603912  0.08304858  1
  O  O178  1  0.38246142  0.71464405  0.40006318  1
  O  O179  1  0.34953065  0.71604271  0.73983369  1
  O  O180  1  0.86015691  0.22788210  0.08474724  1
  O  O181  1  0.87154850  0.21830692  0.40565049  1
  O  O182  1  0.87605893  0.22061741  0.73455209  1
  O  O183  1  0.86619739  0.71810579  0.07354264  1
  O  O184  1  0.86873387  0.71840912  0.41027305  1
  O  O185  1  0.87377078  0.71323275  0.74304443  1
  O  O186  1  0.27842283  0.13032002  0.08468804  1
  O  O187  1  0.27940975  0.12256617  0.42249367  1
  O  O188  1  0.27320347  0.13684517  0.75284277  1
  O  O189  1  0.27785795  0.63785762  0.09415502  1
  O  O190  1  0.29296841  0.63833038  0.42803211  1
  O  O191  1  0.27412528  0.62249784  0.76256234  1
  O  O192  1  0.77816390  0.13013035  0.09421797  1
  O  O193  1  0.78168961  0.13214573  0.42095884  1
  O  O194  1  0.78328511  0.14284636  0.75691460  1
  O  O195  1  0.78190165  0.62957541  0.09235285  1
  O  O196  1  0.78229304  0.62914928  0.42662638  1
  O  O197  1  0.78736825  0.62632646  0.76290150  1
  O  O198  1  0.12602661  0.27923234  0.25745546  1
  O  O199  1  0.13007409  0.28072870  0.58961427  1
  O  O200  1  0.12916071  0.28380771  0.92841049  1
  O  O201  1  0.12307566  0.78005000  0.26201634  1
  O  O202  1  0.13060421  0.78449032  0.59693795  1
  O  O203  1  0.13400015  0.78051281  0.92716136  1
  O  O204  1  0.63353670  0.28213084  0.26043687  1
  O  O205  1  0.63779448  0.27809486  0.58533809  1
  O  O206  1  0.63426288  0.28600129  0.92604973  1
  O  O207  1  0.63730349  0.77780494  0.25490908  1
  O  O208  1  0.63773418  0.77665719  0.58120504  1
  O  O209  1  0.61630710  0.78783787  0.93608126  1
  O  O210  1  0.21334077  0.37019889  0.24563200  1
  O  O211  1  0.21915864  0.36895912  0.57380555  1
  O  O212  1  0.21911833  0.37191846  0.91456745  1
  O  O213  1  0.20852154  0.86609036  0.23867816  1
  O  O214  1  0.22065880  0.87207881  0.58275264  1
  O  O215  1  0.21844301  0.86917179  0.90706884  1
  O  O216  1  0.72188026  0.36915180  0.24363167  1
  O  O217  1  0.72896700  0.36823163  0.57752953  1
  O  O218  1  0.71281928  0.37470847  0.89957910  1
  O  O219  1  0.72444850  0.86903323  0.24282744  1
  O  O220  1  0.71837549  0.87193352  0.56623929  1
  O  O221  1  0.72113256  0.85557804  0.91914986  1
  O  O222  1  0.41555297  0.13288840  0.15263181  1
  O  O223  1  0.41751150  0.13596824  0.48497499  1
  O  O224  1  0.41064479  0.12968884  0.81311543  1
  O  O225  1  0.41551731  0.63455368  0.15378273  1
  O  O226  1  0.43123186  0.63072797  0.48176670  1
  O  O227  1  0.41334277  0.63412888  0.81641691  1
  O  O228  1  0.91583962  0.13933856  0.15653839  1
  O  O229  1  0.91895461  0.13689690  0.48810480  1
  O  O230  1  0.92070891  0.13534169  0.81502462  1
  O  O231  1  0.91905758  0.63405299  0.15220103  1
  O  O232  1  0.91998027  0.63484833  0.48971453  1
  O  O233  1  0.92544374  0.62306751  0.81622869  1
  O  O234  1  0.37183068  0.08021650  0.01669271  1
  O  O235  1  0.37200510  0.08123549  0.34974857  1
  O  O236  1  0.35784174  0.08697513  0.67606619  1
  O  O237  1  0.36254113  0.58875735  0.01641225  1
  O  O238  1  0.37321196  0.57557954  0.34815877  1
  O  O239  1  0.35949936  0.57963551  0.68144253  1
  O  O240  1  0.86938024  0.09284360  0.01985678  1
  O  O241  1  0.87454207  0.07953727  0.35246196  1
  O  O242  1  0.86607609  0.08176163  0.68027046  1
  O  O243  1  0.86969058  0.58021375  0.01590523  1
  O  O244  1  0.87177661  0.58040958  0.35316200  1
  O  O245  1  0.87028358  0.57619767  0.68130370  1
  O  O246  1  0.07635886  0.36356981  0.17759300  1
  O  O247  1  0.08117614  0.36916853  0.51503070  1
  O  O248  1  0.08213711  0.36612932  0.84726821  1
  O  O249  1  0.07019776  0.86666808  0.18469569  1
  O  O250  1  0.08302344  0.86711447  0.51522917  1
  O  O251  1  0.08110729  0.86300139  0.84755247  1
  O  O252  1  0.58383787  0.36616803  0.18142856  1
  O  O253  1  0.59085351  0.37568485  0.52209885  1
  O  O254  1  0.57282012  0.37123385  0.85192388  1
  O  O255  1  0.58679206  0.86602810  0.18016153  1
  O  O256  1  0.58025776  0.87044439  0.51686361  1
  O  O257  1  0.58834296  0.86887574  0.85100735  1
  O  O258  1  0.11715997  0.41689363  0.31265573  1
  O  O259  1  0.13211250  0.41818669  0.65077976  1
  O  O260  1  0.12518406  0.42259062  0.98293497  1
  O  O261  1  0.12631057  0.91803023  0.31945667  1
  O  O262  1  0.12616437  0.92335024  0.65016733  1
  O  O263  1  0.13219188  0.91848524  0.98421920  1
  O  O264  1  0.63511327  0.42005803  0.31839344  1
  O  O265  1  0.64568500  0.41433611  0.65777637  1
  O  O266  1  0.63392265  0.42429721  0.98542662  1
  O  O267  1  0.63650927  0.91535083  0.31721717  1
  O  O268  1  0.64205379  0.91378427  0.65368654  1
  O  O269  1  0.63431090  0.92634737  0.98837537  1
  O  O270  1  0.02567637  0.20049873  0.09981581  1
  O  O271  1  0.03133752  0.19846520  0.43766204  1
  O  O272  1  0.03257776  0.20109532  0.77191402  1
  O  O273  1  0.02943392  0.70047222  0.10487714  1
  O  O274  1  0.02769015  0.70359362  0.44030433  1
  O  O275  1  0.03301392  0.69819572  0.77429553  1
  O  O276  1  0.53737393  0.19659375  0.11061864  1
  O  O277  1  0.53555993  0.19498338  0.43517297  1
  O  O278  1  0.52384543  0.21190502  0.76551799  1
  O  O279  1  0.53086330  0.70026753  0.10861446  1
  O  O280  1  0.53944013  0.70165696  0.43807900  1
  O  O281  1  0.53874153  0.67531462  0.76368852  1
  O  O282  1  0.29641015  0.47515964  0.06378727  1
  O  O283  1  0.29447959  0.46765944  0.39443920  1
  O  O284  1  0.30229776  0.46136799  0.73216990  1
  O  O285  1  0.29501928  0.96770162  0.06049773  1
  O  O286  1  0.29668264  0.96322643  0.39712271  1
  O  O287  1  0.29372226  0.97664552  0.72953800  1
  O  O288  1  0.80131694  0.46759918  0.06361209  1
  O  O289  1  0.80370488  0.46692493  0.39540144  1
  O  O290  1  0.80829401  0.46919106  0.73106570  1
  O  O291  1  0.79900242  0.97382917  0.06972810  1
  O  O292  1  0.80421970  0.97243045  0.39850942  1
  O  O293  1  0.82081016  0.96603773  0.73076710  1
  O  O294  1  0.46685453  0.30176461  0.22428630  1
  O  O295  1  0.48089722  0.31192603  0.57911390  1
  O  O296  1  0.46622357  0.30622595  0.89729887  1
  O  O297  1  0.48007278  0.79842347  0.23127255  1
  O  O298  1  0.47174020  0.79523054  0.55966660  1
  O  O299  1  0.44743060  0.80958043  0.89507218  1
  O  O300  1  0.96700302  0.30028164  0.22909860  1
  O  O301  1  0.97255832  0.30108925  0.56147510  1
  O  O302  1  0.96658360  0.29867321  0.89348970  1
  O  O303  1  0.96217338  0.79710872  0.22894482  1
  O  O304  1  0.97212697  0.80027057  0.56220303  1
  O  O305  1  0.97258445  0.78694570  0.89498680  1
  O  O306  1  0.17485539  0.03023288  0.26522928  1
  O  O307  1  0.19438598  0.03027198  0.60125076  1
  O  O308  1  0.19646678  0.03164711  0.93595207  1
  O  O309  1  0.19929391  0.53293064  0.26918432  1
  O  O310  1  0.19643191  0.52953291  0.60806649  1
  O  O311  1  0.20112514  0.52934295  0.94048937  1
  O  O312  1  0.70092482  0.03135059  0.26843794  1
  O  O313  1  0.69660883  0.03566364  0.59712017  1
  O  O314  1  0.70939754  0.03420600  0.94762549  1
  O  O315  1  0.70659615  0.53250242  0.27353979  1
  O  O316  1  0.70383082  0.52896620  0.60265413  1
  O  O317  1  0.71123653  0.53228543  0.94253365  1
  O  O318  1  0.08476865  0.09110551  0.03711954  1
  O  O319  1  0.08297809  0.08530091  0.37060480  1
  O  O320  1  0.08327472  0.08824753  0.70370979  1
  O  O321  1  0.08984081  0.59214406  0.04204868  1
  O  O322  1  0.06732090  0.58482769  0.36886754  1
  O  O323  1  0.08093124  0.58303305  0.70689576  1
  O  O324  1  0.60233180  0.09309940  0.04778234  1
  O  O325  1  0.58646752  0.08662652  0.35985836  1
  O  O326  1  0.59073087  0.10607385  0.71287497  1
  O  O327  1  0.58792717  0.58669355  0.04678891  1
  O  O328  1  0.58880816  0.58751556  0.37309018  1
  O  O329  1  0.58566752  0.56962351  0.68456037  1
  O  O330  1  0.40247050  0.41261980  0.12506542  1
  O  O331  1  0.41449372  0.43006966  0.46446000  1
  O  O332  1  0.40984330  0.40544827  0.80383911  1
  O  O333  1  0.40892507  0.91486095  0.12956053  1
  O  O334  1  0.40799454  0.91088439  0.46059481  1
  O  O335  1  0.39972989  0.91106345  0.78501695  1
  O  O336  1  0.91057669  0.41128588  0.13059998  1
  O  O337  1  0.91804575  0.41570000  0.46135747  1
  O  O338  1  0.92240680  0.42025926  0.79927483  1
  O  O339  1  0.91038842  0.91492162  0.12883674  1
  O  O340  1  0.91644800  0.91938988  0.46518877  1
  O  O341  1  0.92232601  0.90789491  0.79962247  1
  O  O342  1  0.40298214  0.40915276  0.28691706  1
  O  O343  1  0.41713400  0.41741704  0.63759702  1
  O  O344  1  0.41366491  0.41510919  0.96646565  1
  O  O345  1  0.43585347  0.91570285  0.30037012  1
  O  O346  1  0.41189587  0.90460830  0.62276422  1
  O  O347  1  0.40659672  0.91774631  0.97890063  1
  O  O348  1  0.91592305  0.41261852  0.29741706  1
  O  O349  1  0.92132066  0.41517158  0.62758946  1
  O  O350  1  0.91084366  0.40848522  0.95765490  1
  O  O351  1  0.91474859  0.91211412  0.29756994  1
  O  O352  1  0.92368322  0.91504616  0.63069710  1
  O  O353  1  0.90872938  0.89488541  0.95099031  1
  O  O354  1  0.07629239  0.08546872  0.18927854  1
  O  O355  1  0.08044033  0.07947467  0.53416917  1
  O  O356  1  0.08649325  0.08817866  0.86963301  1
  O  O357  1  0.08980569  0.58989344  0.20813153  1
  O  O358  1  0.08273497  0.58326210  0.54383061  1
  O  O359  1  0.08614814  0.57963029  0.87521873  1
  O  O360  1  0.58990361  0.08565787  0.20030924  1
  O  O361  1  0.58881071  0.09301036  0.52882332  1
  O  O362  1  0.59163172  0.08014877  0.88166710  1
  O  O363  1  0.59744525  0.59082381  0.21077734  1
  O  O364  1  0.59315353  0.58338251  0.53325652  1
  O  O365  1  0.58785834  0.56555154  0.87611065  1
  O  O366  1  0.13256702  0.22507393  0.05394826  1
  O  O367  1  0.13951533  0.21918758  0.39296333  1
  O  O368  1  0.13704951  0.22193483  0.72372706  1
  O  O369  1  0.13602492  0.72698882  0.06024519  1
  O  O370  1  0.13304434  0.71399819  0.38981313  1
  O  O371  1  0.13954985  0.71554583  0.72642296  1
  O  O372  1  0.63912901  0.22902612  0.06361595  1
  O  O373  1  0.64152423  0.22224154  0.39090381  1
  O  O374  1  0.63186280  0.23938994  0.72397135  1
  O  O375  1  0.63466011  0.71810717  0.05834168  1
  O  O376  1  0.64576542  0.71902376  0.39058204  1
  O  O377  1  0.64356468  0.70523793  0.71689218  1
  O  O378  1  0.26709431  0.36471064  0.10180774  1
  O  O379  1  0.28597833  0.36077474  0.44240365  1
  O  O380  1  0.27359385  0.36368858  0.78539471  1
  O  O381  1  0.27530532  0.86670155  0.11290013  1
  O  O382  1  0.27646093  0.85456321  0.44174914  1
  O  O383  1  0.26552335  0.86543089  0.76679097  1
  O  O384  1  0.77489089  0.36244368  0.10969613  1
  O  O385  1  0.78585886  0.36215915  0.44532174  1
  O  O386  1  0.78987441  0.36048794  0.77624718  1
  O  O387  1  0.77809607  0.86279537  0.11150623  1
  O  O388  1  0.78290128  0.86210420  0.44004408  1
  O  O389  1  0.78569703  0.86491107  0.77835814  1
  O  O390  1  0.36943133  0.27487921  0.27823663  1
  O  O391  1  0.36242019  0.28126160  0.60645117  1
  O  O392  1  0.35773396  0.28045992  0.93999045  1
  O  O393  1  0.36928732  0.78527711  0.27410597  1
  O  O394  1  0.37516019  0.77165531  0.61516355  1
  O  O395  1  0.35161615  0.78270559  0.95081079  1
  O  O396  1  0.86274402  0.27949094  0.27883983  1
  O  O397  1  0.86511351  0.28214503  0.60720286  1
  O  O398  1  0.85583823  0.27510422  0.93546070  1
  O  O399  1  0.85908066  0.78006931  0.28035362  1
  O  O400  1  0.86354413  0.78243526  0.60688644  1
  O  O401  1  0.86307807  0.76234026  0.93630307  1
  O  O402  1  0.21445932  0.13905121  0.22857120  1
  O  O403  1  0.21239419  0.13499207  0.54979911  1
  O  O404  1  0.22101728  0.13998406  0.89281471  1
  O  O405  1  0.22274885  0.64183744  0.22588587  1
  O  O406  1  0.21487813  0.63319574  0.55687998  1
  O  O407  1  0.21765515  0.63706102  0.89407000  1
  O  O408  1  0.72497134  0.14175956  0.22882604  1
  O  O409  1  0.72504151  0.14173109  0.55420642  1
  O  O410  1  0.72183140  0.13384925  0.89386426  1
  O  O411  1  0.73082111  0.63844296  0.22757733  1
  O  O412  1  0.72824312  0.63389094  0.55609076  1
  O  O413  1  0.71251131  0.63952387  0.89266442  1
  O  O414  1  0.48767138  0.33012146  0.02951208  1
  O  O415  1  0.49801271  0.34736622  0.35933267  1
  O  O416  1  0.48520855  0.33593418  0.70807783  1
  O  O417  1  0.48613846  0.83019646  0.03087221  1
  O  O418  1  0.49961117  0.82856855  0.36506241  1
  O  O419  1  0.50560910  0.84058388  0.69493048  1
  O  O420  1  0.98613734  0.32847539  0.02562249  1
  O  O421  1  0.99510836  0.33391383  0.36338522  1
  O  O422  1  0.99591235  0.33559826  0.69562503  1
  O  O423  1  0.99008781  0.82487879  0.02804181  1
  O  O424  1  0.99187248  0.83411264  0.36473231  1
  O  O425  1  0.99467471  0.82940936  0.69533614  1
  O  O426  1  0.16598793  0.00991853  0.13597645  1
  O  O427  1  0.15869181  0.00223818  0.46612547  1
  O  O428  1  0.16515606  0.01008288  0.80265821  1
  O  O429  1  0.16476378  0.51184843  0.13585262  1
  O  O430  1  0.15482758  0.50073798  0.47326084  1
  O  O431  1  0.16498116  0.50492834  0.80620097  1
  O  O432  1  0.67424690  0.01174177  0.13615172  1
  O  O433  1  0.66848828  0.01222702  0.46406055  1
  O  O434  1  0.66868162  0.00008647  0.81215770  1
  O  O435  1  0.67297111  0.50866962  0.14017682  1
  O  O436  1  0.67304895  0.50347262  0.46901112  1
  O  O437  1  0.67442465  0.50733907  0.80685234  1
  O  O438  1  0.00875298  0.16661992  0.30408153  1
  O  O439  1  0.00639513  0.16789040  0.63721891  1
  O  O440  1  0.00272210  0.16528361  0.96677816  1
  O  O441  1  0.00031263  0.67100861  0.30492025  1
  O  O442  1  0.00767440  0.66495419  0.64007241  1
  O  O443  1  0.00738876  0.66354760  0.97103344  1
  O  O444  1  0.50962701  0.17161489  0.30241295  1
  O  O445  1  0.50739072  0.17349405  0.63207137  1
  O  O446  1  0.51021751  0.16251043  0.97716462  1
  O  O447  1  0.51406322  0.66689446  0.30364862  1
  O  O448  1  0.51086729  0.66014877  0.63107723  1
  O  O449  1  0.50274214  0.65553544  0.97370922  1
  O  O450  1  0.32462693  0.49169827  0.19524155  1
  O  O451  1  0.32641730  0.49287884  0.52933183  1
  O  O452  1  0.33547567  0.49441832  0.86740869  1
  O  O453  1  0.33513283  0.99982284  0.19578018  1
  O  O454  1  0.32732119  0.98584118  0.52990289  1
  O  O455  1  0.32719187  0.99032652  0.86181785  1
  O  O456  1  0.83394075  0.49200542  0.19766313  1
  O  O457  1  0.84098773  0.49413558  0.53022928  1
  O  O458  1  0.83972125  0.49211270  0.86488894  1
  O  O459  1  0.83692777  0.99223018  0.20250645  1
  O  O460  1  0.83369906  0.99209163  0.53178919  1
  O  O461  1  0.84927534  0.99543023  0.86475840  1
