# generated using pymatgen
data_Na31Fe20(SO4)36
_symmetry_space_group_name_H-M   'P 1'
_cell_length_a   18.08917115
_cell_length_b   18.07763188
_cell_length_c   19.71259689
_cell_angle_alpha   107.54760522
_cell_angle_beta   107.57129040
_cell_angle_gamma   90.76057839
_symmetry_Int_Tables_number   1
_chemical_formula_structural   Na31Fe20(SO4)36
_chemical_formula_sum   'Na62 Fe40 S72 O288'
_cell_volume   5820.77351212
_cell_formula_units_Z   2
loop_
 _symmetry_equiv_pos_site_id
 _symmetry_equiv_pos_as_xyz
  1  'x, y, z'
loop_
 _atom_site_type_symbol
 _atom_site_label
 _atom_site_symmetry_multiplicity
 _atom_site_fract_x
 _atom_site_fract_y
 _atom_site_fract_z
 _atom_site_occupancy
  Na  Na0  1  0.13508688  0.36718599  0.08434701  1
  Na  Na1  1  0.14147754  0.37552603  0.43444884  1
  Na  Na2  1  0.13217651  0.36607689  0.74861927  1
  Na  Na3  1  0.13742678  0.85779173  0.07505666  1
  Na  Na4  1  0.11274431  0.89023162  0.41341429  1
  Na  Na5  1  0.12422412  0.84757312  0.73534733  1
  Na  Na6  1  0.63715830  0.36573712  0.08486806  1
  Na  Na7  1  0.63780222  0.36640149  0.42371666  1
  Na  Na8  1  0.63532128  0.35845145  0.74220940  1
  Na  Na9  1  0.63646453  0.86594089  0.08154976  1
  Na  Na10  1  0.63028856  0.86402263  0.41024720  1
  Na  Na11  1  0.63182398  0.87266585  0.75171383  1
  Na  Na12  1  0.36344406  0.13339248  0.25141751  1
  Na  Na13  1  0.36417303  0.13088113  0.57660687  1
  Na  Na14  1  0.36505049  0.13065226  0.91283179  1
  Na  Na15  1  0.36462817  0.63850602  0.25233654  1
  Na  Na16  1  0.37342120  0.62763080  0.59179936  1
  Na  Na17  1  0.35132313  0.66992682  0.92132836  1
  Na  Na18  1  0.87861777  0.11716241  0.25884246  1
  Na  Na19  1  0.84260203  0.14956925  0.58040960  1
  Na  Na20  1  0.85537946  0.12770564  0.90200973  1
  Na  Na21  1  0.87500197  0.64353535  0.26494073  1
  Na  Na22  1  0.87721913  0.64676597  0.59722067  1
  Na  Na23  1  0.86731107  0.62927618  0.91297990  1
  Na  Na24  1  0.49446381  0.51367696  0.07907988  1
  Na  Na25  1  0.48630314  0.52167806  0.74002916  1
  Na  Na26  1  0.99903250  0.52206622  0.73775116  1
  Na  Na27  1  0.99590675  0.57986489  0.47653023  1
  Na  Na28  1  0.99097548  0.52116430  0.06577261  1
  Na  Na29  1  0.48390760  0.00624276  0.42400857  1
  Na  Na30  1  0.98882071  -0.00014530  0.10050839  1
  Na  Na31  1  0.99227685  -0.00207735  0.75304997  1
  Na  Na32  1  0.49119712  0.01274391  0.08452257  1
  Na  Na33  1  0.50607504  0.49193189  0.26087130  1
  Na  Na34  1  0.50430760  0.49142930  0.56855998  1
  Na  Na35  1  0.51161475  0.98310673  0.90168673  1
  Na  Na36  1  0.00308681  0.93641431  0.90105067  1
  Na  Na37  1  0.51079937  0.98474360  0.25289357  1
  Na  Na38  1  0.52906408  0.98598093  0.61236474  1
  Na  Na39  1  0.00580215  0.48585428  0.25227547  1
  Na  Na40  1  0.00632589  0.93443393  0.54225833  1
  Na  Na41  1  0.47501857  0.54754428  0.90067630  1
  Na  Na42  1  0.25081452  0.26042458  0.66372366  1
  Na  Na43  1  0.23892430  0.73283022  0.68377048  1
  Na  Na44  1  0.74725645  0.74699324  -0.00839795  1
  Na  Na45  1  0.76352894  0.75946320  0.66141389  1
  Na  Na46  1  0.23996389  0.23861828  0.34302612  1
  Na  Na47  1  0.24904599  0.25042916  0.00058640  1
  Na  Na48  1  0.24274898  0.75124662  0.34067190  1
  Na  Na49  1  0.74290496  0.23943938  0.34948146  1
  Na  Na50  1  0.75343244  0.25037777  -0.00338759  1
  Na  Na51  1  0.77386648  0.78269656  0.32671443  1
  Na  Na52  1  0.74943565  0.25298539  0.82112828  1
  Na  Na53  1  0.75779065  0.75766479  0.82342216  1
  Na  Na54  1  0.24335799  0.24128665  0.17050546  1
  Na  Na55  1  0.77430193  0.76699618  0.49507513  1
  Na  Na56  1  0.76212822  0.77091067  0.16289279  1
  Na  Na57  1  0.25645691  0.75624508  0.15525567  1
  Na  Na58  1  0.24414182  0.23751489  0.50134847  1
  Na  Na59  1  0.74746086  0.24240023  0.17573928  1
  Na  Na60  1  0.23596473  0.73592837  0.51163583  1
  Na  Na61  1  0.25481256  0.25340073  0.83139375  1
  Fe  Fe62  1  0.96253447  0.31079869  0.45509105  1
  Fe  Fe63  1  0.46642864  0.30438612  0.45101087  1
  Fe  Fe64  1  0.46591314  0.80512958  0.45490054  1
  Fe  Fe65  1  0.96400674  0.81389422  0.12793093  1
  Fe  Fe66  1  0.46378347  0.80732383  0.11148274  1
  Fe  Fe67  1  0.46628229  0.79627644  0.78735909  1
  Fe  Fe68  1  0.46531850  0.31119927  0.78459513  1
  Fe  Fe69  1  0.46542922  0.30724057  0.11702057  1
  Fe  Fe70  1  0.96682127  0.30974362  0.78360386  1
  Fe  Fe71  1  0.96576086  0.30446088  0.11944390  1
  Fe  Fe72  1  0.19147145  0.03052140  0.04132674  1
  Fe  Fe73  1  0.19858089  0.52697671  0.70376272  1
  Fe  Fe74  1  0.69069073  0.04094957  0.38317037  1
  Fe  Fe75  1  0.69339311  0.03442415  0.04946922  1
  Fe  Fe76  1  0.18869587  0.53874220  0.03996603  1
  Fe  Fe77  1  0.69290457  0.53527905  0.38388866  1
  Fe  Fe78  1  0.69417598  0.53095132  0.71652476  1
  Fe  Fe79  1  0.19226359  0.03328050  0.70916766  1
  Fe  Fe80  1  0.19951641  0.52995150  0.38369454  1
  Fe  Fe81  1  0.68742590  0.53766229  0.04513496  1
  Fe  Fe82  1  0.03888672  0.69140413  0.21458894  1
  Fe  Fe83  1  0.03629197  0.19327045  0.21877999  1
  Fe  Fe84  1  0.53276250  0.19508599  0.21616967  1
  Fe  Fe85  1  0.53729491  0.68788267  0.54620971  1
  Fe  Fe86  1  0.53838295  0.19270208  0.55469694  1
  Fe  Fe87  1  0.53620241  0.18768195  0.87686740  1
  Fe  Fe88  1  0.03735046  0.69444797  0.87487248  1
  Fe  Fe89  1  0.03015697  0.18387549  0.54110087  1
  Fe  Fe90  1  0.53512706  0.69430753  0.21832516  1
  Fe  Fe91  1  0.03498882  0.19219534  0.87791362  1
  Fe  Fe92  1  0.30460499  0.46671804  0.95003145  1
  Fe  Fe93  1  0.31626257  0.96846481  0.62303239  1
  Fe  Fe94  1  0.31110451  0.46352037  0.28609489  1
  Fe  Fe95  1  0.80287760  0.96611688  0.94953283  1
  Fe  Fe96  1  0.81006064  0.46725651  0.29029192  1
  Fe  Fe97  1  0.30924039  0.96033158  0.94874292  1
  Fe  Fe98  1  0.80672457  0.46116759  0.61806772  1
  Fe  Fe99  1  0.80405135  0.46306219  0.94943404  1
  Fe  Fe100  1  0.29981908  0.96778825  0.28810307  1
  Fe  Fe101  1  0.79300492  0.97350513  0.62588235  1
  S  S102  1  0.35813475  0.13960736  0.08057037  1
  S  S103  1  0.36312558  0.13937939  0.41518040  1
  S  S104  1  0.35930307  0.14374935  0.75174319  1
  S  S105  1  0.36247798  0.63905341  0.08194954  1
  S  S106  1  0.36156112  0.63836985  0.41585808  1
  S  S107  1  0.36096992  0.63597126  0.75618220  1
  S  S108  1  0.86124783  0.13930975  0.08559261  1
  S  S109  1  0.85647882  0.14588648  0.42032731  1
  S  S110  1  0.86303332  0.14237933  0.75209592  1
  S  S111  1  0.85837134  0.63829082  0.08353162  1
  S  S112  1  0.84774553  0.64569108  0.41243607  1
  S  S113  1  0.85843897  0.63643888  0.75258742  1
  S  S114  1  0.14190726  0.35783902  0.24800616  1
  S  S115  1  0.13555797  0.35398705  0.58363761  1
  S  S116  1  0.14069930  0.35986303  0.91884398  1
  S  S117  1  0.14464149  0.85456293  0.24423690  1
  S  S118  1  0.15445130  0.85778211  0.58433756  1
  S  S119  1  0.14451712  0.85688862  0.91400201  1
  S  S120  1  0.64012741  0.36182326  0.25065256  1
  S  S121  1  0.63903225  0.35956324  0.58202949  1
  S  S122  1  0.63963267  0.35863382  0.91968150  1
  S  S123  1  0.63473804  0.86139421  0.25077256  1
  S  S124  1  0.63950920  0.85185890  0.58050588  1
  S  S125  1  0.63829008  0.85929771  0.91568590  1
  S  S126  1  0.06679989  0.16972496  0.04048454  1
  S  S127  1  0.07013495  0.17549286  0.38113632  1
  S  S128  1  0.07202979  0.17308674  0.71145672  1
  S  S129  1  0.06610229  0.66939187  0.04046157  1
  S  S130  1  0.07289461  0.65712149  0.37037243  1
  S  S131  1  0.06919397  0.65563026  0.70270758  1
  S  S132  1  0.56535295  0.17098042  0.04360252  1
  S  S133  1  0.56369314  0.17026001  0.37253813  1
  S  S134  1  0.56074423  0.17099911  0.71287127  1
  S  S135  1  0.56610775  0.67373597  0.04734448  1
  S  S136  1  0.56623538  0.66862658  0.37655467  1
  S  S137  1  0.56882288  0.66587941  0.70784846  1
  S  S138  1  0.33413068  0.43488320  0.12396433  1
  S  S139  1  0.33495793  0.43087977  0.45370125  1
  S  S140  1  0.32955300  0.43307661  0.79185589  1
  S  S141  1  0.33155716  0.93451577  0.12499294  1
  S  S142  1  0.34540048  0.93234239  0.46329627  1
  S  S143  1  0.33042339  0.93030267  0.78879557  1
  S  S144  1  0.83023743  0.43239799  0.12452028  1
  S  S145  1  0.82718668  0.43314503  0.45598566  1
  S  S146  1  0.82882742  0.42801843  0.79224020  1
  S  S147  1  0.82479361  0.93408549  0.11946811  1
  S  S148  1  0.81491757  0.93876279  0.45931562  1
  S  S149  1  0.82566348  0.93781651  0.78853208  1
  S  S150  1  0.43400409  0.32855300  0.28700289  1
  S  S151  1  0.43859093  0.33420399  0.62331036  1
  S  S152  1  0.43274958  0.33302117  0.95839911  1
  S  S153  1  0.42938227  0.83027652  0.28940689  1
  S  S154  1  0.43456485  0.82358364  0.62377830  1
  S  S155  1  0.43915643  0.84511397  0.96396028  1
  S  S156  1  0.93409477  0.32985857  0.29058852  1
  S  S157  1  0.93199361  0.33595705  0.62867144  1
  S  S158  1  0.93184335  0.32866332  0.95874328  1
  S  S159  1  0.93393040  0.82646929  0.28224664  1
  S  S160  1  0.92562906  0.84640456  0.62690523  1
  S  S161  1  0.93020754  0.82779083  0.95969826  1
  S  S162  1  0.17152680  0.06768556  0.20563807  1
  S  S163  1  0.17651681  0.07152360  0.54672005  1
  S  S164  1  0.17267609  0.06834902  0.87490361  1
  S  S165  1  0.17361257  0.56457887  0.20586377  1
  S  S166  1  0.18513063  0.56543690  0.55112447  1
  S  S167  1  0.17199638  0.56729919  0.87302716  1
  S  S168  1  0.66253665  0.07071215  0.20898102  1
  S  S169  1  0.65775894  0.06167230  0.53947269  1
  S  S170  1  0.66610424  0.06630915  0.87953310  1
  S  S171  1  0.66741852  0.56737470  0.20890815  1
  S  S172  1  0.67373470  0.56590052  0.54515592  1
  S  S173  1  0.66477940  0.55862317  0.87445045  1
  O  O174  1  0.36845499  0.21866670  0.07267207  1
  O  O175  1  0.37500066  0.21612386  0.40169302  1
  O  O176  1  0.36438373  0.22405102  0.74503222  1
  O  O177  1  0.37339653  0.71801814  0.07535231  1
  O  O178  1  0.37013863  0.71683597  0.40579742  1
  O  O179  1  0.36826933  0.71817839  0.75353595  1
  O  O180  1  0.86969470  0.22025797  0.08084185  1
  O  O181  1  0.86870851  0.22605849  0.41272549  1
  O  O182  1  0.87908546  0.21975237  0.74448350  1
  O  O183  1  0.86632194  0.71814576  0.07732189  1
  O  O184  1  0.85521684  0.71707017  0.39377259  1
  O  O185  1  0.86015832  0.71259996  0.74144936  1
  O  O186  1  0.27802759  0.13118765  0.08605105  1
  O  O187  1  0.28685882  0.13464008  0.42523967  1
  O  O188  1  0.28160625  0.13113057  0.76138922  1
  O  O189  1  0.28293814  0.62970944  0.08843171  1
  O  O190  1  0.28208214  0.62941029  0.42261217  1
  O  O191  1  0.27557693  0.62283650  0.75074054  1
  O  O192  1  0.78368817  0.13069673  0.09641400  1
  O  O193  1  0.77586001  0.14121650  0.42649322  1
  O  O194  1  0.79620992  0.14108112  0.77846756  1
  O  O195  1  0.77918109  0.62809350  0.09098711  1
  O  O196  1  0.76434171  0.63242529  0.41101045  1
  O  O197  1  0.78225822  0.62206567  0.76650929  1
  O  O198  1  0.13490410  0.27645898  0.25130817  1
  O  O199  1  0.11674586  0.27936405  0.59708662  1
  O  O200  1  0.13009238  0.28157380  0.92868150  1
  O  O201  1  0.13914441  0.77036615  0.24251366  1
  O  O202  1  0.15169752  0.78270913  0.59815965  1
  O  O203  1  0.13143447  0.78059744  0.92513214  1
  O  O204  1  0.63076137  0.28266923  0.25785016  1
  O  O205  1  0.62956120  0.28220477  0.59139190  1
  O  O206  1  0.62689017  0.28098926  0.92994738  1
  O  O207  1  0.62294087  0.78607813  0.26646418  1
  O  O208  1  0.63624033  0.76992632  0.58313087  1
  O  O209  1  0.63257433  0.78513367  0.92927907  1
  O  O210  1  0.21828579  0.36809689  0.23515786  1
  O  O211  1  0.21095484  0.35113190  0.57061421  1
  O  O212  1  0.22105774  0.36607031  0.91230254  1
  O  O213  1  0.22250253  0.86781774  0.23267234  1
  O  O214  1  0.23527784  0.87460865  0.58108779  1
  O  O215  1  0.22605736  0.86844009  0.91465872  1
  O  O216  1  0.71909190  0.37101349  0.24282545  1
  O  O217  1  0.71517394  0.37020469  0.57075728  1
  O  O218  1  0.72086788  0.36323594  0.91502169  1
  O  O219  1  0.71244164  0.86654869  0.24354091  1
  O  O220  1  0.72143511  0.86890303  0.57946390  1
  O  O221  1  0.71528342  0.87061476  0.90286341  1
  O  O222  1  0.41562077  0.13182686  0.14955839  1
  O  O223  1  0.42510715  0.13118586  0.48193191  1
  O  O224  1  0.41879074  0.13799979  0.82071311  1
  O  O225  1  0.42025647  0.62916541  0.15037244  1
  O  O226  1  0.41970681  0.63183524  0.48436822  1
  O  O227  1  0.41001277  0.62803737  0.82765955  1
  O  O228  1  0.92248452  0.12844610  0.15119215  1
  O  O229  1  0.91248684  0.14287260  0.49322340  1
  O  O230  1  0.93212107  0.12138870  0.80606546  1
  O  O231  1  0.91812565  0.62637772  0.14892895  1
  O  O232  1  0.89825428  0.64896900  0.48715288  1
  O  O233  1  0.92129718  0.63204051  0.82025802  1
  O  O234  1  0.36819484  0.08022143  0.01388687  1
  O  O235  1  0.37002348  0.07761280  0.34739167  1
  O  O236  1  0.36914253  0.08700158  0.68400178  1
  O  O237  1  0.37206447  0.57995295  0.01459102  1
  O  O238  1  0.36923113  0.57932964  0.34753413  1
  O  O239  1  0.37967401  0.58252480  0.69276978  1
  O  O240  1  0.86747030  0.08317606  0.01564794  1
  O  O241  1  0.86567061  0.08648668  0.35640084  1
  O  O242  1  0.85043087  0.08389194  0.67587907  1
  O  O243  1  0.86604132  0.58027244  0.01386658  1
  O  O244  1  0.86583896  0.57914616  0.35323120  1
  O  O245  1  0.86613461  0.57446769  0.68561464  1
  O  O246  1  0.07944546  0.36897631  0.18302555  1
  O  O247  1  0.07529033  0.36832717  0.51999742  1
  O  O248  1  0.08362085  0.36741286  0.85042208  1
  O  O249  1  0.08401128  0.86433357  0.17750296  1
  O  O250  1  0.09787963  0.85847217  0.51350463  1
  O  O251  1  0.08894145  0.86494034  0.84575366  1
  O  O252  1  0.58104927  0.37015925  0.18236974  1
  O  O253  1  0.57697891  0.36887843  0.51510732  1
  O  O254  1  0.58443843  0.36660253  0.85038524  1
  O  O255  1  0.57506486  0.86567504  0.18022891  1
  O  O256  1  0.58439210  0.85750599  0.50913861  1
  O  O257  1  0.57677237  0.86510819  0.84710971  1
  O  O258  1  0.13620790  0.41336914  0.31826750  1
  O  O259  1  0.13815943  0.41748388  0.65493796  1
  O  O260  1  0.13472835  0.41967654  0.98697828  1
  O  O261  1  0.14224046  0.90665593  0.31499872  1
  O  O262  1  0.13898432  0.91995406  0.64849953  1
  O  O263  1  0.13189109  0.91838970  0.98122728  1
  O  O264  1  0.63003902  0.42077303  0.31784702  1
  O  O265  1  0.63082346  0.42001274  0.64981893  1
  O  O266  1  0.63267030  0.41921404  0.98727450  1
  O  O267  1  0.62187228  0.92502661  0.31370787  1
  O  O268  1  0.62365921  0.90521121  0.64512854  1
  O  O269  1  0.62954740  0.92392483  0.98110257  1
  O  O270  1  0.03073876  0.19911637  0.10203965  1
  O  O271  1  0.02899010  0.20864323  0.43919732  1
  O  O272  1  0.03918763  0.20799160  0.77491965  1
  O  O273  1  0.02502867  0.69293035  0.09812269  1
  O  O274  1  0.03833641  0.67257804  0.42974476  1
  O  O275  1  0.03505419  0.66958671  0.76522391  1
  O  O276  1  0.52930044  0.20225788  0.10511265  1
  O  O277  1  0.53396637  0.20201120  0.43741492  1
  O  O278  1  0.52438910  0.20902405  0.77439039  1
  O  O279  1  0.53658511  0.70293002  0.11404481  1
  O  O280  1  0.52737390  0.69587894  0.43575009  1
  O  O281  1  0.53150849  0.69482876  0.76615122  1
  O  O282  1  0.30382847  0.47034367  0.06305841  1
  O  O283  1  0.29971369  0.46188202  0.38744239  1
  O  O284  1  0.29561520  0.46623907  0.73093728  1
  O  O285  1  0.30219758  0.97173599  0.06427613  1
  O  O286  1  0.32439481  0.96492086  0.40078458  1
  O  O287  1  0.30689584  0.97231770  0.73165792  1
  O  O288  1  0.80213034  0.46798251  0.06322527  1
  O  O289  1  0.79573284  0.47187819  0.39584931  1
  O  O290  1  0.79531495  0.46032722  0.72872989  1
  O  O291  1  0.79435407  0.96711258  0.05410543  1
  O  O292  1  0.77963228  0.97832514  0.40351660  1
  O  O293  1  0.79037963  0.97370218  0.72893972  1
  O  O294  1  0.46890143  0.29654055  0.22402550  1
  O  O295  1  0.47074213  0.29149315  0.56083644  1
  O  O296  1  0.46658778  0.30582700  0.89635258  1
  O  O297  1  0.46343674  0.79896567  0.22724465  1
  O  O298  1  0.47434729  0.79413718  0.56409093  1
  O  O299  1  0.46690395  0.81138007  0.90014936  1
  O  O300  1  0.97305237  0.29834455  0.23065987  1
  O  O301  1  0.96274154  0.30613009  0.56478722  1
  O  O302  1  0.96766210  0.30008472  0.89765411  1
  O  O303  1  0.97660734  0.78748620  0.22362421  1
  O  O304  1  0.94423857  0.83092262  0.55742822  1
  O  O305  1  0.96875313  0.80160040  0.90177761  1
  O  O306  1  0.20088837  0.03233347  0.26507084  1
  O  O307  1  0.21013984  0.03750937  0.61073299  1
  O  O308  1  0.20315058  0.03109157  0.93527328  1
  O  O309  1  0.20178604  0.52577097  0.26489284  1
  O  O310  1  0.21179026  0.51997121  0.60506825  1
  O  O311  1  0.20073543  0.52626237  0.93267185  1
  O  O312  1  0.68681345  0.03796121  0.27032921  1
  O  O313  1  0.68876927  0.02277831  0.59785057  1
  O  O314  1  0.70272315  0.03704895  0.94624584  1
  O  O315  1  0.69744664  0.52770255  0.26679879  1
  O  O316  1  0.70398906  0.52945611  0.60630237  1
  O  O317  1  0.70081337  0.52434303  0.93770022  1
  O  O318  1  0.08520103  0.08853881  0.03462059  1
  O  O319  1  0.09454359  0.10102140  0.38391267  1
  O  O320  1  0.08846286  0.09216904  0.71024689  1
  O  O321  1  0.08406327  0.58668797  0.03472551  1
  O  O322  1  0.09567676  0.57404616  0.35372330  1
  O  O323  1  0.10100700  0.57586663  0.69615080  1
  O  O324  1  0.57904241  0.08815894  0.03753546  1
  O  O325  1  0.58057235  0.08811967  0.36767562  1
  O  O326  1  0.57527045  0.09283115  0.71480571  1
  O  O327  1  0.58070437  0.58924147  0.03854371  1
  O  O328  1  0.58554872  0.58735331  0.37112095  1
  O  O329  1  0.58594113  0.58289448  0.70286989  1
  O  O330  1  0.41707393  0.41879693  0.12969683  1
  O  O331  1  0.41257937  0.40524759  0.44934101  1
  O  O332  1  0.41106120  0.41621908  0.79314914  1
  O  O333  1  0.41544167  0.92066571  0.13141724  1
  O  O334  1  0.43125671  0.91801227  0.47867931  1
  O  O335  1  0.40973838  0.90580961  0.79371444  1
  O  O336  1  0.91230517  0.41348255  0.13096288  1
  O  O337  1  0.90633978  0.41398228  0.45570537  1
  O  O338  1  0.90932853  0.41058456  0.79526158  1
  O  O339  1  0.90557455  0.91465388  0.12139251  1
  O  O340  1  0.89383122  0.92666618  0.45946852  1
  O  O341  1  0.90799139  0.92857004  0.79621870  1
  O  O342  1  0.41785456  0.40977637  0.28883476  1
  O  O343  1  0.43545991  0.41568103  0.62470142  1
  O  O344  1  0.41281749  0.41472804  0.96655902  1
  O  O345  1  0.41505279  0.91319841  0.29516142  1
  O  O346  1  0.41904240  0.90531293  0.62794287  1
  O  O347  1  0.42507650  0.92944810  0.96890129  1
  O  O348  1  0.91450571  0.40965272  0.28876003  1
  O  O349  1  0.91453956  0.41878885  0.63564912  1
  O  O350  1  0.91158026  0.40988410  0.96525203  1
  O  O351  1  0.91051738  0.89812635  0.26837539  1
  O  O352  1  0.89189515  0.92639246  0.64231842  1
  O  O353  1  0.91179624  0.91063904  0.96558975  1
  O  O354  1  0.09025498  0.08835242  0.19969678  1
  O  O355  1  0.09682597  0.09118740  0.54803550  1
  O  O356  1  0.09141908  0.08632729  0.87097302  1
  O  O357  1  0.09030150  0.57969878  0.19680776  1
  O  O358  1  0.11041658  0.59190805  0.55297001  1
  O  O359  1  0.08950335  0.58044139  0.86608628  1
  O  O360  1  0.57809908  0.08817687  0.19860754  1
  O  O361  1  0.57670828  0.08045178  0.54198460  1
  O  O362  1  0.58621370  0.08632664  0.88361272  1
  O  O363  1  0.58398812  0.58165365  0.20420194  1
  O  O364  1  0.59270479  0.58355706  0.54227118  1
  O  O365  1  0.58296166  0.56777535  0.86857468  1
  O  O366  1  0.13844271  0.22305547  0.05821242  1
  O  O367  1  0.13665859  0.23505095  0.39560663  1
  O  O368  1  0.14464473  0.22310223  0.72627067  1
  O  O369  1  0.13823215  0.72126220  0.06174320  1
  O  O370  1  0.14221867  0.71264772  0.38709929  1
  O  O371  1  0.13350774  0.71606677  0.72148679  1
  O  O372  1  0.63917566  0.22035532  0.06192506  1
  O  O373  1  0.63184723  0.22075082  0.38053961  1
  O  O374  1  0.63135935  0.22243223  0.72648169  1
  O  O375  1  0.63951150  0.72167381  0.06213153  1
  O  O376  1  0.63430388  0.72302241  0.39209465  1
  O  O377  1  0.64060141  0.71602187  0.72154310  1
  O  O378  1  0.28409200  0.36251076  0.10884071  1
  O  O379  1  0.28122491  0.36322478  0.44372281  1
  O  O380  1  0.28027426  0.36174296  0.78173245  1
  O  O381  1  0.28291774  0.86185175  0.10804720  1
  O  O382  1  0.29633051  0.85986263  0.44717044  1
  O  O383  1  0.27258882  0.86438721  0.77194375  1
  O  O384  1  0.77793989  0.36092266  0.10825540  1
  O  O385  1  0.77294445  0.36350014  0.43851921  1
  O  O386  1  0.77755431  0.35941373  0.78316537  1
  O  O387  1  0.77308230  0.86077839  0.10022906  1
  O  O388  1  0.76501840  0.86384669  0.43980252  1
  O  O389  1  0.77778438  0.86310356  0.77214272  1
  O  O390  1  0.36174255  0.27841010  0.27102654  1
  O  O391  1  0.36307648  0.29092300  0.61054039  1
  O  O392  1  0.36287094  0.27969489  0.94454613  1
  O  O393  1  0.35700029  0.78028718  0.27419086  1
  O  O394  1  0.36340228  0.77094735  0.60451247  1
  O  O395  1  0.36852534  0.80218589  0.96092033  1
  O  O396  1  0.86347898  0.27712009  0.27382531  1
  O  O397  1  0.86351147  0.28694441  0.62118098  1
  O  O398  1  0.86182398  0.27510182  0.94366647  1
  O  O399  1  0.86420898  0.76847403  0.26250111  1
  O  O400  1  0.86389692  0.78565734  0.61876191  1
  O  O401  1  0.85781134  0.77577136  0.94174946  1
  O  O402  1  0.22401324  0.13953201  0.22087931  1
  O  O403  1  0.22861522  0.14472502  0.56481760  1
  O  O404  1  0.22481137  0.14062205  0.89308124  1
  O  O405  1  0.22504144  0.63711596  0.22535490  1
  O  O406  1  0.24420522  0.63264885  0.57009487  1
  O  O407  1  0.22256210  0.63884313  0.89370186  1
  O  O408  1  0.71312821  0.14253404  0.22344983  1
  O  O409  1  0.70701188  0.13184735  0.55178935  1
  O  O410  1  0.71502715  0.13862541  0.89166374  1
  O  O411  1  0.71617228  0.63997286  0.22501237  1
  O  O412  1  0.72613687  0.63582524  0.55961500  1
  O  O413  1  0.71312240  0.63206279  0.89035208  1
  O  O414  1  0.49396806  0.33566472  0.03056600  1
  O  O415  1  0.49380694  0.32905418  0.35763978  1
  O  O416  1  0.49541260  0.33286826  0.69678943  1
  O  O417  1  0.50251437  0.85061461  0.03636603  1
  O  O418  1  0.48814422  0.83081454  0.36164110  1
  O  O419  1  0.49153388  0.82352117  0.69639710  1
  O  O420  1  0.99227057  0.33231379  0.03159458  1
  O  O421  1  0.99189724  0.33588712  0.36410838  1
  O  O422  1  0.99710789  0.34114621  0.70002497  1
  O  O423  1  0.98690732  0.83155182  0.03444446  1
  O  O424  1  0.98815703  0.83355219  0.35601521  1
  O  O425  1  0.99444100  0.85760264  0.69349067  1
  O  O426  1  0.16662636  0.00923776  0.13107905  1
  O  O427  1  0.17477793  0.01348745  0.47719071  1
  O  O428  1  0.17050318  0.01053624  0.80230971  1
  O  O429  1  0.17426536  0.50794600  0.13276076  1
  O  O430  1  0.17896686  0.50940033  0.47473307  1
  O  O431  1  0.17448643  0.50875452  0.80077983  1
  O  O432  1  0.66017425  0.01110322  0.13594251  1
  O  O433  1  0.64509405  0.00374077  0.46294930  1
  O  O434  1  0.65893964  0.00464803  0.81058130  1
  O  O435  1  0.66379026  0.50945780  0.13438577  1
  O  O436  1  0.66914299  0.50598556  0.47216348  1
  O  O437  1  0.66822937  0.49987530  0.80349012  1
  O  O438  1  0.01112325  0.17070627  0.30603762  1
  O  O439  1  0.01172444  0.17167551  0.64092001  1
  O  O440  1  0.00812279  0.16969518  0.96861066  1
  O  O441  1  0.01302245  0.65652705  0.29712907  1
  O  O442  1  0.00675677  0.64724755  0.63285043  1
  O  O443  1  0.01124091  0.66897826  0.96696553  1
  O  O444  1  0.49978540  0.16495417  0.30109371  1
  O  O445  1  0.50139944  0.16898349  0.63979607  1
  O  O446  1  0.50740479  0.17309776  0.97243767  1
  O  O447  1  0.50544955  0.66333389  0.30272994  1
  O  O448  1  0.51087300  0.65992753  0.63251263  1
  O  O449  1  0.50358851  0.67569419  0.98087630  1
  O  O450  1  0.33720919  0.49323810  0.19731669  1
  O  O451  1  0.34833895  0.49517688  0.52302199  1
  O  O452  1  0.33790783  0.49318104  0.86640443  1
  O  O453  1  0.33288649  0.99293667  0.19772289  1
  O  O454  1  0.34226048  0.99291233  0.53335451  1
  O  O455  1  0.33641944  0.99095324  0.86301548  1
  O  O456  1  0.83211277  0.49170298  0.19685243  1
  O  O457  1  0.83145120  0.49147521  0.52922157  1
  O  O458  1  0.83316217  0.49114974  0.86405726  1
  O  O459  1  0.82366493  0.99338655  0.18709787  1
  O  O460  1  0.81300598  0.99111401  0.53533077  1
  O  O461  1  0.82318642  0.99338631  0.86232499  1
