# generated using pymatgen
data_Na31Fe20(SO4)36
_symmetry_space_group_name_H-M   'P 1'
_cell_length_a   18.06538672
_cell_length_b   18.07313263
_cell_length_c   19.68919610
_cell_angle_alpha   107.60103095
_cell_angle_beta   107.58457529
_cell_angle_gamma   90.64890697
_symmetry_Int_Tables_number   1
_chemical_formula_structural   Na31Fe20(SO4)36
_chemical_formula_sum   'Na62 Fe40 S72 O288'
_cell_volume   5803.79459842
_cell_formula_units_Z   2
loop_
 _symmetry_equiv_pos_site_id
 _symmetry_equiv_pos_as_xyz
  1  'x, y, z'
loop_
 _atom_site_type_symbol
 _atom_site_label
 _atom_site_symmetry_multiplicity
 _atom_site_fract_x
 _atom_site_fract_y
 _atom_site_fract_z
 _atom_site_occupancy
  Na  Na0  1  0.13185657  0.36608741  0.08347730  1
  Na  Na1  1  0.13380096  0.37369911  0.41740665  1
  Na  Na2  1  0.13128713  0.36663329  0.74451183  1
  Na  Na3  1  0.13695187  0.86651052  0.08933294  1
  Na  Na4  1  0.13365071  0.86273869  0.41893989  1
  Na  Na5  1  0.12885182  0.86908573  0.75129434  1
  Na  Na6  1  0.63938814  0.36863434  0.10141078  1
  Na  Na7  1  0.65137787  0.34585979  0.40669989  1
  Na  Na8  1  0.63251875  0.36625711  0.74848512  1
  Na  Na9  1  0.63253568  0.86290193  0.08217393  1
  Na  Na10  1  0.64360466  0.86112892  0.40594237  1
  Na  Na11  1  0.63314768  0.85831566  0.74401332  1
  Na  Na12  1  0.36481173  0.13599765  0.25438313  1
  Na  Na13  1  0.35323855  0.12245204  0.56482750  1
  Na  Na14  1  0.37327123  0.14041209  0.92705360  1
  Na  Na15  1  0.38596561  0.63418814  0.25593175  1
  Na  Na16  1  0.36089195  0.62618069  0.56949750  1
  Na  Na17  1  0.37551165  0.63967498  0.92139615  1
  Na  Na18  1  0.86647938  0.13243934  0.25287126  1
  Na  Na19  1  0.85021866  0.13906167  0.57066192  1
  Na  Na20  1  0.86170369  0.13507432  0.91118689  1
  Na  Na21  1  0.86440331  0.65231406  0.27632472  1
  Na  Na22  1  0.85907562  0.63626891  0.57864333  1
  Na  Na23  1  0.86243039  0.63691540  0.91901660  1
  Na  Na24  1  0.50809427  0.47929582  0.14470133  1
  Na  Na25  1  0.51545154  0.49631335  0.37532875  1
  Na  Na26  1  0.96685870  0.00212366  0.59470241  1
  Na  Na27  1  0.99150420  0.51136515  0.09669497  1
  Na  Na28  1  0.48029684  -0.00070919  0.43789491  1
  Na  Na29  1  0.50199685  0.01060699  0.72368907  1
  Na  Na30  1  0.98978302  0.00801371  0.09367400  1
  Na  Na31  1  0.48857409  0.01443816  0.09065271  1
  Na  Na32  1  0.48780387  0.53263559  0.75863645  1
  Na  Na33  1  0.00741807  1.00147236  0.89666244  1
  Na  Na34  1  0.51351272  0.98159648  0.91222967  1
  Na  Na35  1  0.00115413  0.50910550  0.56589456  1
  Na  Na36  1  0.01082370  0.49279994  0.90413788  1
  Na  Na37  1  -0.03407796  0.51277229  0.30852028  1
  Na  Na38  1  0.51203133  0.48965240  0.57716491  1
  Na  Na39  1  0.02904512  0.98866660  0.38667445  1
  Na  Na40  1  0.51279178  0.50136626  0.92962226  1
  Na  Na41  1  0.50156500  0.97829619  0.25884627  1
  Na  Na42  1  0.25388814  0.75102002  0.66446107  1
  Na  Na43  1  0.74590544  0.25067333  0.00997437  1
  Na  Na44  1  0.24354028  0.73335204  0.33690520  1
  Na  Na45  1  0.26593601  0.26178004  -0.00081329  1
  Na  Na46  1  0.24917274  0.74544982  0.00234069  1
  Na  Na47  1  0.75782646  0.25884961  0.65404833  1
  Na  Na48  1  0.76152449  0.76614056  0.65583780  1
  Na  Na49  1  0.25491220  0.25445802  0.64387880  1
  Na  Na50  1  0.24116682  0.23637702  0.35204390  1
  Na  Na51  1  0.73310394  0.73578387  0.00779104  1
  Na  Na52  1  0.73916093  0.74434065  0.83910001  1
  Na  Na53  1  0.25348655  0.75211046  0.83101703  1
  Na  Na54  1  0.24374863  0.73771267  0.49853474  1
  Na  Na55  1  0.24797967  0.74653494  0.17214188  1
  Na  Na56  1  0.24806979  0.24681352  0.17079501  1
  Na  Na57  1  0.72941459  0.74485190  0.19459285  1
  Na  Na58  1  0.25978632  0.25662729  0.82551251  1
  Na  Na59  1  0.75525963  0.25283873  0.82763187  1
  Na  Na60  1  0.74509676  0.25576924  0.18847200  1
  Na  Na61  1  0.77985305  0.77543526  0.48525505  1
  Fe  Fe62  1  0.96082739  0.80681276  0.78337910  1
  Fe  Fe63  1  0.96116284  0.30805121  0.44777224  1
  Fe  Fe64  1  0.46942123  0.79657283  0.78913717  1
  Fe  Fe65  1  0.96439341  0.30423305  0.77897738  1
  Fe  Fe66  1  0.96237049  0.81250193  0.12140906  1
  Fe  Fe67  1  0.46497117  0.30786251  0.78407122  1
  Fe  Fe68  1  0.47366591  0.79439784  0.12292449  1
  Fe  Fe69  1  0.47385051  0.80219305  0.45373868  1
  Fe  Fe70  1  0.46658490  0.30509195  0.44907639  1
  Fe  Fe71  1  0.96594572  0.31036666  0.12341854  1
  Fe  Fe72  1  0.18986819  0.53767540  0.04623501  1
  Fe  Fe73  1  0.69943545  0.53485569  0.06033374  1
  Fe  Fe74  1  0.18914082  0.53551608  0.71071294  1
  Fe  Fe75  1  0.19233681  0.03264962  0.04788717  1
  Fe  Fe76  1  0.69325022  0.03744651  0.05113764  1
  Fe  Fe77  1  0.69405212  0.53317015  0.71481476  1
  Fe  Fe78  1  0.69236746  0.04404773  0.38329038  1
  Fe  Fe79  1  0.18856040  0.03358955  0.71145122  1
  Fe  Fe80  1  0.70428973  0.52998118  0.37646435  1
  Fe  Fe81  1  0.69859306  0.03015545  0.70579732  1
  Fe  Fe82  1  0.03939404  0.19288887  0.22052582  1
  Fe  Fe83  1  0.53516801  0.19455223  0.54733216  1
  Fe  Fe84  1  0.54165025  0.68602529  0.54615392  1
  Fe  Fe85  1  0.52669160  0.20279050  0.21472363  1
  Fe  Fe86  1  0.03278400  0.69918243  0.22196639  1
  Fe  Fe87  1  0.03435130  0.19162628  0.87708158  1
  Fe  Fe88  1  0.03477904  0.18982207  0.54207264  1
  Fe  Fe89  1  0.03158974  0.69721392  0.54026405  1
  Fe  Fe90  1  0.03215550  0.69003304  0.87540674  1
  Fe  Fe91  1  0.53427046  0.19527925  0.88089797  1
  Fe  Fe92  1  0.29969275  0.46850556  0.28628680  1
  Fe  Fe93  1  0.81017942  0.46397229  0.95498413  1
  Fe  Fe94  1  0.30495590  0.96007556  0.61994296  1
  Fe  Fe95  1  0.81111649  0.96850013  0.28850691  1
  Fe  Fe96  1  0.81074091  0.46285957  0.61574256  1
  Fe  Fe97  1  0.80595682  0.96747859  0.95106424  1
  Fe  Fe98  1  0.30918358  0.46472187  0.95451693  1
  Fe  Fe99  1  0.30277519  0.46582108  0.61295724  1
  Fe  Fe100  1  0.30656590  0.96131853  0.95354838  1
  Fe  Fe101  1  0.29950698  0.96812333  0.29340049  1
  S  S102  1  0.35840329  0.13619662  0.08151661  1
  S  S103  1  0.36172184  0.13837088  0.41820495  1
  S  S104  1  0.36045635  0.13797637  0.74888659  1
  S  S105  1  0.35602540  0.63819687  0.07943886  1
  S  S106  1  0.36825112  0.63790492  0.41315004  1
  S  S107  1  0.35546938  0.63809294  0.74975267  1
  S  S108  1  0.86119874  0.14066863  0.08282326  1
  S  S109  1  0.85875668  0.14480952  0.41598593  1
  S  S110  1  0.86054986  0.14299815  0.74769629  1
  S  S111  1  0.86208609  0.64119549  0.08343187  1
  S  S112  1  0.86493021  0.63457175  0.42259619  1
  S  S113  1  0.85566156  0.64115265  0.75051136  1
  S  S114  1  0.14149336  0.35533346  0.24704564  1
  S  S115  1  0.13643822  0.36247701  0.58180249  1
  S  S116  1  0.13895882  0.35892649  0.91402567  1
  S  S117  1  0.13813703  0.85874457  0.25013862  1
  S  S118  1  0.14316112  0.85669798  0.58702323  1
  S  S119  1  0.13825552  0.85885063  0.91624529  1
  S  S120  1  0.62700978  0.36783987  0.25043100  1
  S  S121  1  0.63981973  0.36129114  0.58501252  1
  S  S122  1  0.64143995  0.36065886  0.91931296  1
  S  S123  1  0.63817464  0.87134923  0.24784646  1
  S  S124  1  0.64136578  0.85600647  0.58601991  1
  S  S125  1  0.64143785  0.86155445  0.91650757  1
  S  S126  1  0.06512541  0.16339920  0.03834615  1
  S  S127  1  0.06708509  0.17394493  0.37827129  1
  S  S128  1  0.06775928  0.17155003  0.70853020  1
  S  S129  1  0.06369363  0.67072467  0.03921677  1
  S  S130  1  0.06800107  0.66931068  0.37792439  1
  S  S131  1  0.06729482  0.67335226  0.70886492  1
  S  S132  1  0.56954204  0.16824346  0.04243392  1
  S  S133  1  0.56430222  0.16828063  0.37304781  1
  S  S134  1  0.56953237  0.17331540  0.71058032  1
  S  S135  1  0.56906611  0.66668626  0.04496831  1
  S  S136  1  0.58195868  0.67174696  0.38187572  1
  S  S137  1  0.56447241  0.66257606  0.70685111  1
  S  S138  1  0.31890103  0.43227158  0.11791194  1
  S  S139  1  0.33245011  0.42950276  0.45613162  1
  S  S140  1  0.32942828  0.43293562  0.78766808  1
  S  S141  1  0.32973085  0.92937778  0.12607258  1
  S  S142  1  0.33166124  0.92166573  0.45933040  1
  S  S143  1  0.33365800  0.93007830  0.79301578  1
  S  S144  1  0.83707372  0.43783083  0.12629221  1
  S  S145  1  0.83173440  0.43297644  0.46367185  1
  S  S146  1  0.83169715  0.43323621  0.79192698  1
  S  S147  1  0.82616831  0.93393100  0.11939764  1
  S  S148  1  0.83283100  0.94623776  0.45261281  1
  S  S149  1  0.82845429  0.93434932  0.79155565  1
  S  S150  1  0.42328989  0.32876153  0.29131571  1
  S  S151  1  0.43323032  0.33459518  0.62595393  1
  S  S152  1  0.43725561  0.33480419  0.95561816  1
  S  S153  1  0.43128102  0.83578543  0.29386123  1
  S  S154  1  0.43052522  0.82182677  0.62527868  1
  S  S155  1  0.43257433  0.83143075  0.96005314  1
  S  S156  1  0.93244587  0.32164791  0.28401879  1
  S  S157  1  0.93344502  0.33136808  0.62398326  1
  S  S158  1  0.93618211  0.33013385  0.95677175  1
  S  S159  1  0.93354238  0.83466418  0.28751173  1
  S  S160  1  0.93641727  0.82717460  0.62446032  1
  S  S161  1  0.93211286  0.83233723  0.95698573  1
  S  S162  1  0.17096397  0.06611904  0.20812848  1
  S  S163  1  0.16866035  0.06153270  0.54549174  1
  S  S164  1  0.17474624  0.06967460  0.87882803  1
  S  S165  1  0.16873446  0.56995730  0.20530249  1
  S  S166  1  0.16863296  0.56969175  0.54103857  1
  S  S167  1  0.16832493  0.56670481  0.87449433  1
  S  S168  1  0.66337041  0.07490958  0.20597281  1
  S  S169  1  0.66429717  0.06915697  0.54101197  1
  S  S170  1  0.66829894  0.06930020  0.87235861  1
  S  S171  1  0.67602829  0.56784911  0.21588064  1
  S  S172  1  0.67270091  0.56360910  0.54289867  1
  S  S173  1  0.67098446  0.55841845  0.87689838  1
  O  O174  1  0.36573280  0.20993059  0.06750163  1
  O  O175  1  0.37524475  0.21590166  0.40783148  1
  O  O176  1  0.36778956  0.21641663  0.73886759  1
  O  O177  1  0.37143070  0.71727532  0.07215085  1
  O  O178  1  0.38454740  0.71356488  0.39955182  1
  O  O179  1  0.36565140  0.71962823  0.74705654  1
  O  O180  1  0.87196379  0.21993884  0.07556649  1
  O  O181  1  0.86746580  0.22158913  0.40512193  1
  O  O182  1  0.86545445  0.22773167  0.74932321  1
  O  O183  1  0.87028590  0.71763059  0.06968186  1
  O  O184  1  0.86443262  0.71283109  0.41659583  1
  O  O185  1  0.86302745  0.72099395  0.74373684  1
  O  O186  1  0.27990604  0.12542407  0.09158938  1
  O  O187  1  0.28664903  0.13160413  0.42919711  1
  O  O188  1  0.28144353  0.12811548  0.75659491  1
  O  O189  1  0.27198359  0.63615479  0.07906224  1
  O  O190  1  0.29056745  0.63706898  0.42146078  1
  O  O191  1  0.27448018  0.63042436  0.75516667  1
  O  O192  1  0.78145333  0.13345716  0.08966682  1
  O  O193  1  0.78227694  0.13525591  0.42765112  1
  O  O194  1  0.78185422  0.13030721  0.75670738  1
  O  O195  1  0.78197616  0.63310192  0.08845742  1
  O  O196  1  0.78982444  0.61656426  0.43852067  1
  O  O197  1  0.77759690  0.63105924  0.76112138  1
  O  O198  1  0.13899433  0.27182235  0.24793511  1
  O  O199  1  0.12709321  0.28379931  0.59069271  1
  O  O200  1  0.13078359  0.28032734  0.92322057  1
  O  O201  1  0.13292926  0.77556234  0.25207484  1
  O  O202  1  0.13036881  0.77583878  0.59401926  1
  O  O203  1  0.12895356  0.77821789  0.92038235  1
  O  O204  1  0.61373016  0.29268034  0.26563015  1
  O  O205  1  0.62773447  0.28453816  0.59682080  1
  O  O206  1  0.63079833  0.28158210  0.92733589  1
  O  O207  1  0.63597309  0.79635936  0.26039475  1
  O  O208  1  0.62517521  0.78142231  0.60227918  1
  O  O209  1  0.63670579  0.78514071  0.92618811  1
  O  O210  1  0.21858026  0.36963092  0.23574962  1
  O  O211  1  0.21583302  0.37152099  0.57527395  1
  O  O212  1  0.21910369  0.36787803  0.90771650  1
  O  O213  1  0.21689759  0.86957623  0.24019520  1
  O  O214  1  0.22683397  0.85980488  0.58652714  1
  O  O215  1  0.21662202  0.86777778  0.90617879  1
  O  O216  1  0.70222296  0.36983942  0.23692938  1
  O  O217  1  0.72186413  0.36961855  0.58646934  1
  O  O218  1  0.72045541  0.36645405  0.90996318  1
  O  O219  1  0.71283168  0.88579758  0.23238052  1
  O  O220  1  0.71964956  0.85774549  0.57980833  1
  O  O221  1  0.71888949  0.87533436  0.90560779  1
  O  O222  1  0.41827245  0.12908608  0.15023055  1
  O  O223  1  0.42547598  0.12935848  0.48469732  1
  O  O224  1  0.41938091  0.13315900  0.81890369  1
  O  O225  1  0.40768588  0.62629623  0.14647270  1
  O  O226  1  0.42696402  0.63022265  0.48203610  1
  O  O227  1  0.41208714  0.62469682  0.81444531  1
  O  O228  1  0.91975444  0.12832918  0.14872823  1
  O  O229  1  0.92004559  0.13807603  0.48402364  1
  O  O230  1  0.91959288  0.13512566  0.81701574  1
  O  O231  1  0.92008330  0.63563175  0.15295619  1
  O  O232  1  0.92867298  0.63028867  0.49304561  1
  O  O233  1  0.91566971  0.63431520  0.81874869  1
  O  O234  1  0.36789948  0.07156006  0.01619393  1
  O  O235  1  0.36941932  0.07729888  0.34983576  1
  O  O236  1  0.37174415  0.07724582  0.68310075  1
  O  O237  1  0.36194969  0.57974570  0.00924538  1
  O  O238  1  0.37503640  0.57453818  0.34658680  1
  O  O239  1  0.36232919  0.58270253  0.67850038  1
  O  O240  1  0.86782074  0.08215984  0.01319996  1
  O  O241  1  0.86633580  0.08390221  0.34803286  1
  O  O242  1  0.87032795  0.09235694  0.67915683  1
  O  O243  1  0.87390778  0.57919183  0.01806091  1
  O  O244  1  0.87431793  0.57589998  0.35735426  1
  O  O245  1  0.86226061  0.58354606  0.68180069  1
  O  O246  1  0.08099887  0.36061386  0.17711634  1
  O  O247  1  0.07689151  0.37242360  0.51535763  1
  O  O248  1  0.08110933  0.36589042  0.84454340  1
  O  O249  1  0.07947384  0.86525159  0.18034055  1
  O  O250  1  0.09041716  0.86740735  0.52037499  1
  O  O251  1  0.07815420  0.87171450  0.85138680  1
  O  O252  1  0.56406903  0.37877016  0.18847353  1
  O  O253  1  0.58521700  0.36623064  0.51338648  1
  O  O254  1  0.58239413  0.36913706  0.85115747  1
  O  O255  1  0.57401318  0.87561038  0.17933895  1
  O  O256  1  0.58313848  0.86172795  0.51609133  1
  O  O257  1  0.58024964  0.86775404  0.84755004  1
  O  O258  1  0.13221546  0.40862749  0.31435479  1
  O  O259  1  0.12937941  0.42162605  0.65095023  1
  O  O260  1  0.12730038  0.41907690  0.97950103  1
  O  O261  1  0.12993928  0.91278022  0.31798916  1
  O  O262  1  0.13763866  0.91412415  0.65763148  1
  O  O263  1  0.13352628  0.91543280  0.98687331  1
  O  O264  1  0.62878461  0.43085450  0.32415238  1
  O  O265  1  0.62489038  0.42322178  0.64884882  1
  O  O266  1  0.63447331  0.42034261  0.98712840  1
  O  O267  1  0.62704775  0.93399836  0.31316161  1
  O  O268  1  0.63237274  0.91962100  0.65191937  1
  O  O269  1  0.63113060  0.92377511  0.98255597  1
  O  O270  1  0.02959825  0.19159610  0.09923286  1
  O  O271  1  0.02867352  0.20997702  0.43847866  1
  O  O272  1  0.03075644  0.20256965  0.76977072  1
  O  O273  1  0.02918715  0.69914641  0.10065119  1
  O  O274  1  0.03555273  0.70017180  0.44201879  1
  O  O275  1  0.02695320  0.70053294  0.76775066  1
  O  O276  1  0.53531398  0.19049476  0.10310712  1
  O  O277  1  0.53345863  0.20292372  0.43824398  1
  O  O278  1  0.53149445  0.20182945  0.77148904  1
  O  O279  1  0.53598243  0.69668443  0.10735550  1
  O  O280  1  0.54790447  0.69788296  0.44678751  1
  O  O281  1  0.52490332  0.69031508  0.76389675  1
  O  O282  1  0.28661134  0.47287515  0.05814868  1
  O  O283  1  0.31083074  0.46498160  0.39629173  1
  O  O284  1  0.29978341  0.46839392  0.72596749  1
  O  O285  1  0.29693472  0.96440112  0.06383585  1
  O  O286  1  0.30699965  0.95829749  0.39992760  1
  O  O287  1  0.30572990  0.96789475  0.73335908  1
  O  O288  1  0.79988033  0.46896140  0.06045384  1
  O  O289  1  0.79214479  0.45946226  0.39876714  1
  O  O290  1  0.80258081  0.47113982  0.73233977  1
  O  O291  1  0.79590473  0.97286717  0.05919042  1
  O  O292  1  0.78885711  0.97592652  0.38641748  1
  O  O293  1  0.80150316  0.97060951  0.73255512  1
  O  O294  1  0.45018117  0.29209674  0.22686090  1
  O  O295  1  0.46912692  0.30378792  0.56474010  1
  O  O296  1  0.46742831  0.29917725  0.88910414  1
  O  O297  1  0.46324295  0.81675009  0.23097381  1
  O  O298  1  0.46486991  0.79472542  0.56325772  1
  O  O299  1  0.46644902  0.80963101  0.89853177  1
  O  O300  1  0.97643548  0.29016577  0.22685167  1
  O  O301  1  0.96697647  0.29978984  0.56150816  1
  O  O302  1  0.97205424  0.30136619  0.89534877  1
  O  O303  1  0.96483603  0.79768195  0.22137051  1
  O  O304  1  0.97725463  0.79225396  0.56816364  1
  O  O305  1  0.96880735  0.80228433  0.89612718  1
  O  O306  1  0.19903188  0.03073015  0.26770238  1
  O  O307  1  0.20087156  0.02561007  0.60910120  1
  O  O308  1  0.20165064  0.02986174  0.93797702  1
  O  O309  1  0.19973103  0.53390362  0.26395943  1
  O  O310  1  0.19836085  0.53590035  0.60575389  1
  O  O311  1  0.19776496  0.52775525  0.93349690  1
  O  O312  1  0.69726236  0.04687253  0.27108704  1
  O  O313  1  0.68932579  0.03239539  0.60012052  1
  O  O314  1  0.69811892  0.03497852  0.93478931  1
  O  O315  1  0.70945905  0.53750781  0.28113052  1
  O  O316  1  0.70233718  0.52550618  0.60319472  1
  O  O317  1  0.70944121  0.52665838  0.94004867  1
  O  O318  1  0.08009157  0.07930375  0.02949267  1
  O  O319  1  0.08980081  0.09896482  0.38414462  1
  O  O320  1  0.08472411  0.09019672  0.70488672  1
  O  O321  1  0.07947860  0.58720175  0.03024250  1
  O  O322  1  0.08409708  0.58908467  0.36873908  1
  O  O323  1  0.08455405  0.59164261  0.70167244  1
  O  O324  1  0.58449918  0.08307651  0.02671043  1
  O  O325  1  0.57612030  0.08467356  0.36711817  1
  O  O326  1  0.59082910  0.09354592  0.70775451  1
  O  O327  1  0.59766540  0.58814468  0.04555737  1
  O  O328  1  0.61029914  0.59259737  0.38255133  1
  O  O329  1  0.58316720  0.58013781  0.70377284  1
  O  O330  1  0.39414311  0.40920642  0.11311572  1
  O  O331  1  0.41582483  0.41009821  0.47028594  1
  O  O332  1  0.41305027  0.41893479  0.79609512  1
  O  O333  1  0.41188235  0.91470642  0.13023167  1
  O  O334  1  0.41460307  0.90464688  0.46993754  1
  O  O335  1  0.41403460  0.90806761  0.79711547  1
  O  O336  1  0.91473214  0.41362770  0.11843098  1
  O  O337  1  0.91124602  0.41319573  0.46028476  1
  O  O338  1  0.91191147  0.41163316  0.79514287  1
  O  O339  1  0.90799068  0.91856025  0.12219542  1
  O  O340  1  0.91163626  0.93320131  0.44862274  1
  O  O341  1  0.90989328  0.91295020  0.79873868  1
  O  O342  1  0.40407000  0.40942171  0.29290257  1
  O  O343  1  0.41770386  0.41758183  0.63222453  1
  O  O344  1  0.41417298  0.41377614  0.95202791  1
  O  O345  1  0.41188854  0.91942138  0.30847856  1
  O  O346  1  0.41188647  0.90408194  0.63545084  1
  O  O347  1  0.41742345  0.91641752  0.97464463  1
  O  O348  1  0.90586694  0.39480159  0.27650240  1
  O  O349  1  0.91548945  0.41260556  0.62844471  1
  O  O350  1  0.92163595  0.41371513  0.96448677  1
  O  O351  1  0.91236212  0.91357431  0.28305905  1
  O  O352  1  0.91739289  0.90411090  0.62197923  1
  O  O353  1  0.91615608  0.91505712  0.96362600  1
  O  O354  1  0.08967156  0.08761571  0.20194538  1
  O  O355  1  0.09136479  0.08865321  0.54855877  1
  O  O356  1  0.09370135  0.08874558  0.87459039  1
  O  O357  1  0.08967513  0.59503558  0.20474112  1
  O  O358  1  0.09076065  0.59851623  0.54483679  1
  O  O359  1  0.08714068  0.58508050  0.87264711  1
  O  O360  1  0.58164604  0.09348695  0.20248274  1
  O  O361  1  0.58132429  0.08811353  0.53173698  1
  O  O362  1  0.58428588  0.08328410  0.86418287  1
  O  O363  1  0.59625136  0.58475959  0.20915778  1
  O  O364  1  0.58770209  0.57240371  0.53265373  1
  O  O365  1  0.58822348  0.56269049  0.87041116  1
  O  O366  1  0.13765921  0.21295303  0.05370914  1
  O  O367  1  0.13226694  0.23041417  0.38823365  1
  O  O368  1  0.13947752  0.22345716  0.72578142  1
  O  O369  1  0.13599619  0.72136525  0.05477796  1
  O  O370  1  0.13818248  0.72305941  0.39185713  1
  O  O371  1  0.13867132  0.72719218  0.73011963  1
  O  O372  1  0.64272241  0.21894706  0.06050433  1
  O  O373  1  0.63642602  0.21342749  0.38399506  1
  O  O374  1  0.63938371  0.22783861  0.72793001  1
  O  O375  1  0.63758545  0.72283633  0.05885745  1
  O  O376  1  0.64876191  0.72797407  0.39725854  1
  O  O377  1  0.63639526  0.71404438  0.72431321  1
  O  O378  1  0.26235964  0.36335740  0.10046068  1
  O  O379  1  0.27896829  0.36050023  0.44132383  1
  O  O380  1  0.27976089  0.35877664  0.76877912  1
  O  O381  1  0.27932077  0.85659846  0.10955860  1
  O  O382  1  0.27962166  0.84989293  0.44271694  1
  O  O383  1  0.27848142  0.86095741  0.77729872  1
  O  O384  1  0.78544334  0.36836834  0.11579945  1
  O  O385  1  0.78526463  0.36782023  0.46650012  1
  O  O386  1  0.77700829  0.36381081  0.77586548  1
  O  O387  1  0.77582945  0.86128517  0.10016461  1
  O  O388  1  0.78337870  0.87562699  0.44208646  1
  O  O389  1  0.77564096  0.86403492  0.77779916  1
  O  O390  1  0.35445133  0.28008089  0.28773686  1
  O  O391  1  0.36264143  0.28424118  0.61213873  1
  O  O392  1  0.36636900  0.28260376  0.94241586  1
  O  O393  1  0.36137355  0.78175039  0.27734117  1
  O  O394  1  0.35974334  0.76867260  0.60911496  1
  O  O395  1  0.35844211  0.78146443  0.94095003  1
  O  O396  1  0.86725056  0.26235595  0.26735103  1
  O  O397  1  0.86425329  0.28033875  0.61411294  1
  O  O398  1  0.86269782  0.28056206  0.93928803  1
  O  O399  1  0.86413255  0.78386010  0.27666497  1
  O  O400  1  0.86576348  0.77294949  0.60839549  1
  O  O401  1  0.86016539  0.78124316  0.94032826  1
  O  O402  1  0.22426061  0.13566515  0.22117731  1
  O  O403  1  0.22513350  0.12874192  0.56083044  1
  O  O404  1  0.22829246  0.14027647  0.89681579  1
  O  O405  1  0.22330187  0.63758057  0.21511925  1
  O  O406  1  0.22455348  0.63825277  0.55617610  1
  O  O407  1  0.22015839  0.63846657  0.89158655  1
  O  O408  1  0.71312413  0.14195293  0.21005488  1
  O  O409  1  0.71554210  0.14121083  0.55861250  1
  O  O410  1  0.71778204  0.14297513  0.88981504  1
  O  O411  1  0.72935743  0.63522331  0.22515727  1
  O  O412  1  0.71880773  0.63934057  0.56483775  1
  O  O413  1  0.71499249  0.63499618  0.89211572  1
  O  O414  1  0.49948117  0.34321609  0.02524441  1
  O  O415  1  0.48951031  0.33809699  0.36346976  1
  O  O416  1  0.49372909  0.33671499  0.69894218  1
  O  O417  1  0.49025572  0.82532959  0.02975799  1
  O  O418  1  0.49369330  0.83427449  0.36360944  1
  O  O419  1  0.49083620  0.82139577  0.69682379  1
  O  O420  1  0.99392834  0.32800785  0.02813568  1
  O  O421  1  0.99081785  0.33159734  0.35941251  1
  O  O422  1  0.99570655  0.33493445  0.69616071  1
  O  O423  1  0.99086417  0.83385975  0.02986029  1
  O  O424  1  0.99825264  0.84468041  0.35622671  1
  O  O425  1  0.99227093  0.83231584  0.70112764  1
  O  O426  1  0.16383791  0.00594949  0.13314393  1
  O  O427  1  0.15846072  -0.00047100  0.47481024  1
  O  O428  1  0.17299689  0.01142451  0.80599532  1
  O  O429  1  0.15535654  0.50956905  0.12875427  1
  O  O430  1  0.15959003  0.50811646  0.47156414  1
  O  O431  1  0.16480752  0.50946376  0.80076532  1
  O  O432  1  0.65573136  0.00897419  0.13405555  1
  O  O433  1  0.66336659  0.01111855  0.46800056  1
  O  O434  1  0.66890800  0.01082528  0.80059563  1
  O  O435  1  0.67681419  0.50263301  0.14579067  1
  O  O436  1  0.67844393  0.50827428  0.47149127  1
  O  O437  1  0.67673346  0.50246775  0.80493506  1
  O  O438  1  0.00577086  0.16401955  0.30330055  1
  O  O439  1  0.00858505  0.16990124  0.63655931  1
  O  O440  1  0.00607489  0.16223752  0.96517304  1
  O  O441  1  0.00524180  0.67383403  0.30854044  1
  O  O442  1  0.01075400  0.67311090  0.63567415  1
  O  O443  1  0.00460991  0.66997908  0.96662029  1
  O  O444  1  0.50115320  0.16815039  0.30314111  1
  O  O445  1  0.50961836  0.17121690  0.63886547  1
  O  O446  1  0.51109025  0.17218487  0.97101583  1
  O  O447  1  0.51842640  0.66260224  0.31310218  1
  O  O448  1  0.50898843  0.65552187  0.63040689  1
  O  O449  1  0.50890412  0.65326514  0.97174104  1
  O  O450  1  0.32345243  0.49032863  0.19164911  1
  O  O451  1  0.33271784  0.49093840  0.52854039  1
  O  O452  1  0.32656385  0.49032525  0.85895179  1
  O  O453  1  0.33033228  0.98774174  0.19837244  1
  O  O454  1  0.32973643  0.98100385  0.53130592  1
  O  O455  1  0.33874248  0.98946993  0.86681143  1
  O  O456  1  0.85046293  0.50171701  0.19605287  1
  O  O457  1  0.84696107  0.50040500  0.53639518  1
  O  O458  1  0.83878808  0.49207084  0.86661225  1
  O  O459  1  0.82522458  0.99181185  0.19092816  1
  O  O460  1  0.83723012  1.00849470  0.52287081  1
  O  O461  1  0.83453383  0.99453016  0.86635153  1
