# generated using pymatgen
data_Na31Fe20(SO4)36
_symmetry_space_group_name_H-M   'P 1'
_cell_length_a   18.06783348
_cell_length_b   18.06150489
_cell_length_c   19.69738505
_cell_angle_alpha   107.59166194
_cell_angle_beta   107.57710868
_cell_angle_gamma   90.69411096
_symmetry_Int_Tables_number   1
_chemical_formula_structural   Na31Fe20(SO4)36
_chemical_formula_sum   'Na62 Fe40 S72 O288'
_cell_volume   5803.28978745
_cell_formula_units_Z   2
loop_
 _symmetry_equiv_pos_site_id
 _symmetry_equiv_pos_as_xyz
  1  'x, y, z'
loop_
 _atom_site_type_symbol
 _atom_site_label
 _atom_site_symmetry_multiplicity
 _atom_site_fract_x
 _atom_site_fract_y
 _atom_site_fract_z
 _atom_site_occupancy
  Na  Na0  1  0.12582258  0.37146891  0.08200228  1
  Na  Na1  1  0.15833977  0.34927071  0.42124419  1
  Na  Na2  1  0.14711571  0.35027769  0.74206895  1
  Na  Na3  1  0.13813314  0.86664023  0.08876330  1
  Na  Na4  1  0.12805294  0.86320080  0.41440748  1
  Na  Na5  1  0.13111390  0.87434396  0.75113051  1
  Na  Na6  1  0.63007143  0.35469545  0.07403207  1
  Na  Na7  1  0.63072183  0.36385001  0.41195934  1
  Na  Na8  1  0.63597590  0.36342926  0.75223947  1
  Na  Na9  1  0.64246864  0.87487741  0.09681482  1
  Na  Na10  1  0.63732677  0.87011282  0.42367438  1
  Na  Na11  1  0.63140145  0.86667690  0.74728876  1
  Na  Na12  1  0.36349089  0.14103793  0.25491906  1
  Na  Na13  1  0.34571154  0.14864331  0.58329888  1
  Na  Na14  1  0.36237641  0.13850902  0.91597377  1
  Na  Na15  1  0.37283644  0.62613387  0.25134962  1
  Na  Na16  1  0.36398421  0.63049705  0.57695341  1
  Na  Na17  1  0.36791078  0.63530795  0.91829999  1
  Na  Na18  1  0.86531406  0.13149228  0.25764282  1
  Na  Na19  1  0.86412890  0.12499233  0.57830636  1
  Na  Na20  1  0.86050174  0.14578257  0.91431312  1
  Na  Na21  1  0.87924358  0.62891788  0.25056536  1
  Na  Na22  1  0.86962257  0.62843903  0.58072267  1
  Na  Na23  1  0.86883149  0.63399629  0.91756146  1
  Na  Na24  1  0.51251542  0.45489482  0.13844761  1
  Na  Na25  1  0.95968142  0.00736622  0.42581641  1
  Na  Na26  1  1.02083107  0.48668541  0.73098276  1
  Na  Na27  1  0.48395606  0.02512675  0.08015580  1
  Na  Na28  1  0.48638537  0.01543938  0.41074265  1
  Na  Na29  1  0.97157425  0.02103100  0.70328788  1
  Na  Na30  1  0.99267661  0.01224063  0.08383964  1
  Na  Na31  1  0.47784897  0.01280526  0.74399247  1
  Na  Na32  1  0.48877222  0.50743951  0.40996684  1
  Na  Na33  1  0.51309850  0.99095755  0.91392503  1
  Na  Na34  1  -0.00240288  0.98069950  0.25714724  1
  Na  Na35  1  0.50821853  0.49122898  0.91911821  1
  Na  Na36  1  0.52254013  0.99535883  0.24708305  1
  Na  Na37  1  -0.01467799  1.03560252  0.88609458  1
  Na  Na38  1  0.51314551  0.99499494  0.58143144  1
  Na  Na39  1  0.00480426  0.48136837  0.93452809  1
  Na  Na40  1  0.50694795  0.49072317  0.59905535  1
  Na  Na41  1  0.02495249  0.45854517  0.44687551  1
  Na  Na42  1  0.24415359  0.74421938  0.00622815  1
  Na  Na43  1  0.23366968  0.23978950  0.00359931  1
  Na  Na44  1  0.76428029  0.26247324  0.33075413  1
  Na  Na45  1  0.21082893  0.71564736  0.33122045  1
  Na  Na46  1  0.76135045  0.26399273  -0.01373052  1
  Na  Na47  1  0.74716574  0.23998756  0.67862635  1
  Na  Na48  1  0.75878333  0.76367705  0.65689166  1
  Na  Na49  1  0.24915861  0.74842114  0.66806044  1
  Na  Na50  1  0.76142394  0.76571860  0.32722865  1
  Na  Na51  1  0.75339647  0.75263210  -0.00117335  1
  Na  Na52  1  0.75620797  0.75664259  0.82758099  1
  Na  Na53  1  0.76277414  0.76558529  0.49751089  1
  Na  Na54  1  0.23970430  0.24371445  0.17671575  1
  Na  Na55  1  0.23971435  0.23609696  0.83505573  1
  Na  Na56  1  0.25157163  0.74918303  0.83450816  1
  Na  Na57  1  0.76275917  0.76364925  0.16497499  1
  Na  Na58  1  0.22962343  0.72648392  0.50022979  1
  Na  Na59  1  0.76101098  0.25651125  0.49667651  1
  Na  Na60  1  0.75705421  0.25681382  0.16282833  1
  Na  Na61  1  0.23641755  0.73807118  0.17953862  1
  Fe  Fe62  1  0.96971095  0.29981021  0.79150495  1
  Fe  Fe63  1  0.46381546  0.80849198  0.11773113  1
  Fe  Fe64  1  0.46617408  0.80431115  0.78306672  1
  Fe  Fe65  1  0.46163819  0.30931089  0.45228392  1
  Fe  Fe66  1  0.46115460  0.80903088  0.44964908  1
  Fe  Fe67  1  0.46344985  0.30820414  0.78259180  1
  Fe  Fe68  1  0.97092256  0.31176652  0.12494025  1
  Fe  Fe69  1  0.97029721  0.80008566  0.12475763  1
  Fe  Fe70  1  0.96591330  0.80880350  0.78733641  1
  Fe  Fe71  1  0.96542431  0.80991667  0.45731417  1
  Fe  Fe72  1  0.69809366  0.03522843  0.71357933  1
  Fe  Fe73  1  0.69590386  0.53781591  0.05173914  1
  Fe  Fe74  1  0.69573478  0.03495743  0.05107313  1
  Fe  Fe75  1  0.19557971  0.52904737  0.71197444  1
  Fe  Fe76  1  0.70237588  0.03064756  0.38255074  1
  Fe  Fe77  1  0.18631841  0.03559880  0.04489433  1
  Fe  Fe78  1  0.19401289  0.53616450  0.05075138  1
  Fe  Fe79  1  0.19079181  0.03838003  0.38443301  1
  Fe  Fe80  1  0.69692103  0.53362661  0.71672344  1
  Fe  Fe81  1  0.69033495  0.53693465  0.38134058  1
  Fe  Fe82  1  0.53222516  0.19512075  0.54966679  1
  Fe  Fe83  1  0.53227585  0.69343558  0.54732683  1
  Fe  Fe84  1  0.03612324  0.69140561  0.87699034  1
  Fe  Fe85  1  0.53485524  0.69213274  0.21469697  1
  Fe  Fe86  1  0.03805419  0.68422362  0.54261412  1
  Fe  Fe87  1  0.03302752  0.19825605  0.54180396  1
  Fe  Fe88  1  0.52831650  0.20488721  0.21177278  1
  Fe  Fe89  1  0.03773001  0.19597599  0.22173309  1
  Fe  Fe90  1  0.53649008  0.68950833  0.87942919  1
  Fe  Fe91  1  0.53472258  0.19571017  0.88135898  1
  Fe  Fe92  1  0.80938427  0.46617751  0.95671339  1
  Fe  Fe93  1  0.30407572  0.96850863  0.94772061  1
  Fe  Fe94  1  0.31021191  0.45971363  0.61779179  1
  Fe  Fe95  1  0.30043374  0.46498846  0.28857640  1
  Fe  Fe96  1  0.81483881  0.46528165  0.29368409  1
  Fe  Fe97  1  0.31147828  0.46350589  0.95471821  1
  Fe  Fe98  1  0.80746806  0.96567203  0.95384322  1
  Fe  Fe99  1  0.81006543  0.46328765  0.61969381  1
  Fe  Fe100  1  0.30604686  0.96818962  0.28374423  1
  Fe  Fe101  1  0.28818544  0.97344216  0.61732053  1
  S  S102  1  0.35632817  0.14135889  0.08275830  1
  S  S103  1  0.36092184  0.13902528  0.41613401  1
  S  S104  1  0.36286074  0.13981953  0.74971113  1
  S  S105  1  0.36102168  0.64150722  0.08258055  1
  S  S106  1  0.36252244  0.63958958  0.41225502  1
  S  S107  1  0.36243283  0.63817614  0.75021828  1
  S  S108  1  0.86049113  0.14136608  0.08359501  1
  S  S109  1  0.85708880  0.14326659  0.42059911  1
  S  S110  1  0.85859475  0.14248043  0.75396913  1
  S  S111  1  0.85701006  0.64155706  0.08166133  1
  S  S112  1  0.85545508  0.64166331  0.41874249  1
  S  S113  1  0.85928664  0.64102862  0.75004474  1
  S  S114  1  0.14284183  0.35659186  0.25458305  1
  S  S115  1  0.14097081  0.35983539  0.58235447  1
  S  S116  1  0.14070499  0.36231308  0.91442490  1
  S  S117  1  0.14359109  0.86196569  0.24781292  1
  S  S118  1  0.14214427  0.85553064  0.58216792  1
  S  S119  1  0.14204188  0.85873669  0.91689288  1
  S  S120  1  0.64416569  0.36286767  0.25144788  1
  S  S121  1  0.64047417  0.36004832  0.58440456  1
  S  S122  1  0.63863828  0.36398507  0.91902729  1
  S  S123  1  0.63636898  0.86086785  0.24973239  1
  S  S124  1  0.63445136  0.86066853  0.58572304  1
  S  S125  1  0.64046099  0.85901028  0.91739342  1
  S  S126  1  0.06014651  0.16677205  0.04339738  1
  S  S127  1  0.06430841  0.16384845  0.37323862  1
  S  S128  1  0.06401439  0.17210899  0.70570257  1
  S  S129  1  0.06883138  0.67201202  0.03877555  1
  S  S130  1  0.06229968  0.66875271  0.38499180  1
  S  S131  1  0.07006463  0.66948358  0.71026586  1
  S  S132  1  0.56717622  0.16501710  0.04088004  1
  S  S133  1  0.56856931  0.17127846  0.37593817  1
  S  S134  1  0.56726386  0.16868427  0.70813700  1
  S  S135  1  0.57038924  0.67458017  0.04428419  1
  S  S136  1  0.57030659  0.67355901  0.37915716  1
  S  S137  1  0.56942418  0.67058388  0.71048139  1
  S  S138  1  0.31921812  0.42632869  0.12054856  1
  S  S139  1  0.34181717  0.43570235  0.46058783  1
  S  S140  1  0.33460994  0.43438455  0.79436153  1
  S  S141  1  0.33353740  0.93488960  0.12258011  1
  S  S142  1  0.32754820  0.93023326  0.45482868  1
  S  S143  1  0.33917578  0.93148502  0.79143624  1
  S  S144  1  0.82496914  0.42988150  0.12401202  1
  S  S145  1  0.82730829  0.43521562  0.45715175  1
  S  S146  1  0.83119735  0.43075626  0.79157190  1
  S  S147  1  0.83440954  0.93548653  0.12446798  1
  S  S148  1  0.82594767  0.93147163  0.46149362  1
  S  S149  1  0.82769533  0.93245684  0.79158461  1
  S  S150  1  0.42968230  0.33102061  0.29112845  1
  S  S151  1  0.43570521  0.33152710  0.62526948  1
  S  S152  1  0.43479231  0.33190261  0.95565005  1
  S  S153  1  0.43179207  0.83503540  0.28937833  1
  S  S154  1  0.42735983  0.82956053  0.62150517  1
  S  S155  1  0.43600526  0.83311083  0.95770955  1
  S  S156  1  0.93530386  0.32657084  0.29050639  1
  S  S157  1  0.93119234  0.32500600  0.62795877  1
  S  S158  1  0.93296526  0.33507817  0.95961059  1
  S  S159  1  0.93460667  0.83381472  0.29320434  1
  S  S160  1  0.93523614  0.82330696  0.62436443  1
  S  S161  1  0.93405863  0.82957935  0.95888002  1
  S  S162  1  0.16965665  0.06751946  0.20773240  1
  S  S163  1  0.16143478  0.06840289  0.53335402  1
  S  S164  1  0.17210221  0.06173237  0.87620927  1
  S  S165  1  0.17777140  0.56799579  0.21140731  1
  S  S166  1  0.17608764  0.56112087  0.54714479  1
  S  S167  1  0.17246518  0.56830010  0.87539447  1
  S  S168  1  0.66427548  0.07377704  0.21042398  1
  S  S169  1  0.66050059  0.06792250  0.54103965  1
  S  S170  1  0.66895185  0.06602565  0.87688667  1
  S  S171  1  0.66986116  0.57002389  0.21076796  1
  S  S172  1  0.66647889  0.56754941  0.54477301  1
  S  S173  1  0.67070856  0.56660012  0.87714234  1
  O  O174  1  0.36102657  0.21575912  0.06968206  1
  O  O175  1  0.37309852  0.21579386  0.40655516  1
  O  O176  1  0.37725328  0.21623707  0.73881774  1
  O  O177  1  0.37251589  0.71837567  0.06959326  1
  O  O178  1  0.37874513  0.71301194  0.39637800  1
  O  O179  1  0.37118139  0.71710278  0.74041912  1
  O  O180  1  0.86727816  0.22065438  0.07598574  1
  O  O181  1  0.85728421  0.22269519  0.41642934  1
  O  O182  1  0.87120197  0.22889258  0.76046862  1
  O  O183  1  0.86815451  0.72107778  0.07284367  1
  O  O184  1  0.86224353  0.72224608  0.41371799  1
  O  O185  1  0.86639055  0.72140980  0.74419676  1
  O  O186  1  0.27859872  0.12667525  0.09261147  1
  O  O187  1  0.28222797  0.12766471  0.42113050  1
  O  O188  1  0.29162154  0.13457750  0.76810718  1
  O  O189  1  0.28092208  0.63708131  0.08878833  1
  O  O190  1  0.28545936  0.63769692  0.42095017  1
  O  O191  1  0.28368419  0.63102651  0.75943142  1
  O  O192  1  0.78181100  0.13053963  0.09271172  1
  O  O193  1  0.78381253  0.12661712  0.43877948  1
  O  O194  1  0.77594786  0.13421876  0.75492198  1
  O  O195  1  0.77350946  0.63667099  0.08347323  1
  O  O196  1  0.77765494  0.63220446  0.43042587  1
  O  O197  1  0.78076983  0.63111093  0.75981169  1
  O  O198  1  0.13682275  0.27226169  0.25064119  1
  O  O199  1  0.12550532  0.27917737  0.58747113  1
  O  O200  1  0.13677421  0.28590427  0.92408920  1
  O  O201  1  0.14158336  0.78368356  0.25402231  1
  O  O202  1  0.13838636  0.77114948  0.58170769  1
  O  O203  1  0.13371967  0.77766817  0.92140766  1
  O  O204  1  0.63042018  0.28397903  0.25922484  1
  O  O205  1  0.63079835  0.28252432  0.59473807  1
  O  O206  1  0.62886383  0.28672755  0.93115663  1
  O  O207  1  0.62451104  0.78266812  0.25957618  1
  O  O208  1  0.61962346  0.78427135  0.59883377  1
  O  O209  1  0.63060798  0.77918331  0.92342749  1
  O  O210  1  0.22489054  0.36957549  0.24857068  1
  O  O211  1  0.22332213  0.36759930  0.58271952  1
  O  O212  1  0.21765750  0.37799004  0.90374915  1
  O  O213  1  0.21859690  0.87722174  0.23227333  1
  O  O214  1  0.21990424  0.86788090  0.56998363  1
  O  O215  1  0.22048479  0.86795986  0.90721197  1
  O  O216  1  0.72827907  0.36843418  0.25303604  1
  O  O217  1  0.71974391  0.36891215  0.57711593  1
  O  O218  1  0.71865621  0.37205567  0.91428009  1
  O  O219  1  0.71109801  0.86699608  0.23678328  1
  O  O220  1  0.71088684  0.86220628  0.57545538  1
  O  O221  1  0.71965921  0.86712532  0.90946612  1
  O  O222  1  0.41708191  0.13644569  0.15266192  1
  O  O223  1  0.41953228  0.13062688  0.48519528  1
  O  O224  1  0.42998306  0.12627869  0.81182804  1
  O  O225  1  0.41816894  0.63736055  0.15318018  1
  O  O226  1  0.42284658  0.63191122  0.48115535  1
  O  O227  1  0.42110970  0.63470227  0.82066628  1
  O  O228  1  0.92068850  0.13078895  0.14938236  1
  O  O229  1  0.92321139  0.13709620  0.48805668  1
  O  O230  1  0.91250099  0.12474525  0.81794257  1
  O  O231  1  0.91084919  0.63266887  0.14855131  1
  O  O232  1  0.91621904  0.63029234  0.48361732  1
  O  O233  1  0.91905138  0.63249269  0.81702980  1
  O  O234  1  0.36929071  0.07781349  0.01805865  1
  O  O235  1  0.37313791  0.07748588  0.34962324  1
  O  O236  1  0.36353638  0.07813766  0.67829183  1
  O  O237  1  0.36965137  0.57959103  0.01698308  1
  O  O238  1  0.37085074  0.57357134  0.34707490  1
  O  O239  1  0.37162300  0.57849772  0.68396830  1
  O  O240  1  0.86663197  0.08262803  0.01388581  1
  O  O241  1  0.86309200  0.08465575  0.35336410  1
  O  O242  1  0.86650410  0.09437815  0.68252967  1
  O  O243  1  0.86244726  0.58321143  0.01137550  1
  O  O244  1  0.85861393  0.58507295  0.34734608  1
  O  O245  1  0.86563130  0.58348152  0.68081217  1
  O  O246  1  0.08712121  0.36651812  0.18508175  1
  O  O247  1  0.08747107  0.37116782  0.51549590  1
  O  O248  1  0.07874731  0.36711323  0.84458408  1
  O  O249  1  0.07934088  0.87032815  0.18204034  1
  O  O250  1  0.08124904  0.86615128  0.51674483  1
  O  O251  1  0.08171941  0.86843487  0.85092223  1
  O  O252  1  0.59369358  0.37058934  0.18118650  1
  O  O253  1  0.58169670  0.36738331  0.51600041  1
  O  O254  1  0.58080124  0.36939875  0.84912369  1
  O  O255  1  0.57308839  0.87176366  0.18404312  1
  O  O256  1  0.57308798  0.87053909  0.51888377  1
  O  O257  1  0.58168102  0.86924689  0.84990425  1
  O  O258  1  0.13488596  0.40780300  0.32333870  1
  O  O259  1  0.13190923  0.41631800  0.65330715  1
  O  O260  1  0.12846426  0.42448828  0.97931703  1
  O  O261  1  0.13680170  0.92090853  0.31662208  1
  O  O262  1  0.13893539  0.90726635  0.65309533  1
  O  O263  1  0.13646011  0.91419889  0.98756568  1
  O  O264  1  0.63282005  0.42213445  0.31808113  1
  O  O265  1  0.63192733  0.42136122  0.65175291  1
  O  O266  1  0.62702599  0.42576372  0.98426880  1
  O  O267  1  0.62971319  0.92118623  0.31841884  1
  O  O268  1  0.62850151  0.92311637  0.65349047  1
  O  O269  1  0.63264165  0.91738367  0.98604662  1
  O  O270  1  0.02939792  0.20071280  0.10848664  1
  O  O271  1  0.02948722  0.18914412  0.43513293  1
  O  O272  1  0.01969081  0.20470700  0.76085560  1
  O  O273  1  0.03210322  0.69918777  0.09737078  1
  O  O274  1  0.02097107  0.70839117  0.44384306  1
  O  O275  1  0.03100519  0.70056635  0.76997574  1
  O  O276  1  0.53188333  0.18942941  0.10092614  1
  O  O277  1  0.53271423  0.20141839  0.43746530  1
  O  O278  1  0.53842230  0.20455710  0.77345138  1
  O  O279  1  0.53360721  0.70267112  0.10514859  1
  O  O280  1  0.53688864  0.70773292  0.44178616  1
  O  O281  1  0.53343558  0.70084102  0.77216953  1
  O  O282  1  0.29288457  0.47215931  0.06481616  1
  O  O283  1  0.31614318  0.47031914  0.39882560  1
  O  O284  1  0.30317602  0.46876150  0.73189393  1
  O  O285  1  0.30115117  0.96668422  0.05934058  1
  O  O286  1  0.29994702  0.96697113  0.39362377  1
  O  O287  1  0.31373656  0.96249429  0.72873463  1
  O  O288  1  0.79636444  0.47077598  0.06541891  1
  O  O289  1  0.79332226  0.47572435  0.39872493  1
  O  O290  1  0.80667384  0.47036086  0.73171315  1
  O  O291  1  0.80064916  0.96769062  0.05900488  1
  O  O292  1  0.79783339  0.96373280  0.39775893  1
  O  O293  1  0.79800277  0.96873233  0.73279596  1
  O  O294  1  0.46920847  0.30816095  0.23391521  1
  O  O295  1  0.47146227  0.29972017  0.56275264  1
  O  O296  1  0.46817732  0.29816366  0.89135606  1
  O  O297  1  0.46613522  0.80109292  0.22747769  1
  O  O298  1  0.45889008  0.79581524  0.55728871  1
  O  O299  1  0.47094937  0.80130825  0.89591360  1
  O  O300  1  0.96902405  0.29561505  0.22587985  1
  O  O301  1  0.97079312  0.29683178  0.57100156  1
  O  O302  1  0.97250151  0.31671034  0.90097223  1
  O  O303  1  0.96823676  0.80567058  0.23096543  1
  O  O304  1  0.97440884  0.79028207  0.56582366  1
  O  O305  1  0.96967741  0.80121867  0.89680259  1
  O  O306  1  0.20175717  0.03448011  0.27075342  1
  O  O307  1  0.19036282  0.03750911  0.59674612  1
  O  O308  1  0.20409023  0.02943893  0.94389041  1
  O  O309  1  0.21047686  0.52475813  0.26691455  1
  O  O310  1  0.21154590  0.53049562  0.61334924  1
  O  O311  1  0.20344944  0.53726151  0.93925976  1
  O  O312  1  0.68384878  0.03929790  0.27146277  1
  O  O313  1  0.68039099  0.03182862  0.60094201  1
  O  O314  1  0.69743412  0.02784575  0.93727824  1
  O  O315  1  0.69919406  0.53375970  0.27146475  1
  O  O316  1  0.69862651  0.53096369  0.60545085  1
  O  O317  1  0.70171958  0.52961710  0.93726604  1
  O  O318  1  0.07836599  0.08434182  0.04182685  1
  O  O319  1  0.08052274  0.07985806  0.36174332  1
  O  O320  1  0.07311920  0.09139527  0.70126096  1
  O  O321  1  0.08958356  0.59062968  0.03080948  1
  O  O322  1  0.09139108  0.60055303  0.40433009  1
  O  O323  1  0.09148293  0.59044895  0.71171926  1
  O  O324  1  0.58411318  0.08053403  0.03021192  1
  O  O325  1  0.58337282  0.08822113  0.36949187  1
  O  O326  1  0.58276539  0.08631883  0.70587955  1
  O  O327  1  0.59022352  0.59350800  0.03795461  1
  O  O328  1  0.58506196  0.59176125  0.37694367  1
  O  O329  1  0.59029450  0.59036385  0.70687222  1
  O  O330  1  0.39509056  0.40226957  0.11996586  1
  O  O331  1  0.42811731  0.42466873  0.47327838  1
  O  O332  1  0.41687500  0.41760727  0.79893009  1
  O  O333  1  0.41769387  0.92181324  0.12923299  1
  O  O334  1  0.41315026  0.91948005  0.46464879  1
  O  O335  1  0.42360215  0.91402452  0.80087203  1
  O  O336  1  0.90256779  0.40629274  0.12423920  1
  O  O337  1  0.90459223  0.41656298  0.45602406  1
  O  O338  1  0.91175806  0.40732638  0.79808399  1
  O  O339  1  0.91432464  0.91339281  0.12393486  1
  O  O340  1  0.90562339  0.90629244  0.46107407  1
  O  O341  1  0.90934971  0.91304874  0.79684001  1
  O  O342  1  0.40428157  0.41183288  0.29773031  1
  O  O343  1  0.42026051  0.41347739  0.62809652  1
  O  O344  1  0.41606136  0.41311144  0.95535153  1
  O  O345  1  0.41825386  0.91822138  0.29285246  1
  O  O346  1  0.41296845  0.91169694  0.62665274  1
  O  O347  1  0.41974707  0.91543371  0.96252790  1
  O  O348  1  0.91070514  0.40538111  0.29073718  1
  O  O349  1  0.91182375  0.40655881  0.63142098  1
  O  O350  1  0.91436136  0.41816843  0.97158961  1
  O  O351  1  0.92273563  0.91697291  0.30504321  1
  O  O352  1  0.91516588  0.90104157  0.62582939  1
  O  O353  1  0.91621119  0.91183443  0.96619258  1
  O  O354  1  0.08764790  0.08466334  0.20365462  1
  O  O355  1  0.08029394  0.09274084  0.52822107  1
  O  O356  1  0.09190317  0.07803373  0.87110749  1
  O  O357  1  0.10905438  0.60119763  0.22336592  1
  O  O358  1  0.09798638  0.58520787  0.55086090  1
  O  O359  1  0.08947657  0.58396981  0.86643971  1
  O  O360  1  0.58046369  0.09170589  0.19600462  1
  O  O361  1  0.57537139  0.08467215  0.52792261  1
  O  O362  1  0.58521920  0.07991870  0.86902815  1
  O  O363  1  0.58742740  0.58694734  0.20533712  1
  O  O364  1  0.58381227  0.58293097  0.54072790  1
  O  O365  1  0.58952160  0.58388636  0.87467631  1
  O  O366  1  0.13284569  0.21540775  0.05658447  1
  O  O367  1  0.13415980  0.21399929  0.38644777  1
  O  O368  1  0.13794968  0.22233633  0.72935899  1
  O  O369  1  0.14038850  0.72540761  0.05532144  1
  O  O370  1  0.12856805  0.72836777  0.39875684  1
  O  O371  1  0.14042216  0.72374519  0.72727342  1
  O  O372  1  0.63952021  0.21533775  0.05676365  1
  O  O373  1  0.64113183  0.22152995  0.39240327  1
  O  O374  1  0.63674587  0.21699190  0.71540426  1
  O  O375  1  0.63955216  0.72927528  0.05993080  1
  O  O376  1  0.64214650  0.72257332  0.39171951  1
  O  O377  1  0.63882608  0.72448150  0.72546609  1
  O  O378  1  0.25928217  0.36013848  0.10077136  1
  O  O379  1  0.29616357  0.36228866  0.44544516  1
  O  O380  1  0.28527211  0.36419477  0.78332318  1
  O  O381  1  0.28699782  0.86109508  0.10930665  1
  O  O382  1  0.28114550  0.85509721  0.43527563  1
  O  O383  1  0.28971730  0.85985293  0.77989055  1
  O  O384  1  0.76792730  0.36017085  0.10418150  1
  O  O385  1  0.77152826  0.36567198  0.44037696  1
  O  O386  1  0.77373113  0.36389409  0.77327852  1
  O  O387  1  0.78098411  0.86474024  0.10917209  1
  O  O388  1  0.77163915  0.86006859  0.44436168  1
  O  O389  1  0.77565589  0.86080417  0.77705794  1
  O  O390  1  0.36224467  0.27492423  0.27527538  1
  O  O391  1  0.36566423  0.28237159  0.61249347  1
  O  O392  1  0.36324586  0.28149489  0.94121050  1
  O  O393  1  0.35951599  0.78739628  0.27601782  1
  O  O394  1  0.35693936  0.77889761  0.61028990  1
  O  O395  1  0.36391410  0.78269357  0.94293184  1
  O  O396  1  0.86518845  0.27123710  0.27341311  1
  O  O397  1  0.86030999  0.27286326  0.61294696  1
  O  O398  1  0.86195898  0.28149439  0.93817931  1
  O  O399  1  0.86054080  0.78335505  0.27507662  1
  O  O400  1  0.86466856  0.76816143  0.60785865  1
  O  O401  1  0.86150234  0.77736590  0.93999262  1
  O  O402  1  0.22096587  0.13607474  0.21827950  1
  O  O403  1  0.21325919  0.13379679  0.53787816  1
  O  O404  1  0.22464636  0.13473892  0.89601229  1
  O  O405  1  0.24035333  0.63079588  0.22317318  1
  O  O406  1  0.22983844  0.63085910  0.56027746  1
  O  O407  1  0.22303430  0.64023388  0.88883729  1
  O  O408  1  0.71783941  0.14383786  0.22647023  1
  O  O409  1  0.71129917  0.14044046  0.55975212  1
  O  O410  1  0.71851772  0.13919894  0.89638831  1
  O  O411  1  0.72079820  0.64116127  0.22460003  1
  O  O412  1  0.71597480  0.64018588  0.56060385  1
  O  O413  1  0.72163544  0.63861713  0.89218758  1
  O  O414  1  0.49584493  0.33887059  0.02651369  1
  O  O415  1  0.48937392  0.33840085  0.36647323  1
  O  O416  1  0.49772295  0.33449093  0.69694222  1
  O  O417  1  0.49524039  0.83496186  0.03012100  1
  O  O418  1  0.49179732  0.83879455  0.36248110  1
  O  O419  1  0.49012387  0.83055306  0.69265721  1
  O  O420  1  0.99091416  0.33154543  0.03067540  1
  O  O421  1  0.99643145  0.33254764  0.36027003  1
  O  O422  1  0.98854956  0.33354390  0.70492001  1
  O  O423  1  0.99254494  0.82889476  0.03013911  1
  O  O424  1  0.99142081  0.82678006  0.36372178  1
  O  O425  1  0.99311909  0.82546913  0.69884182  1
  O  O426  1  0.16418373  0.00478056  0.13508684  1
  O  O427  1  0.15281013  0.00212257  0.46159641  1
  O  O428  1  0.17804833  0.00141504  0.81034883  1
  O  O429  1  0.16226505  0.51005928  0.13366384  1
  O  O430  1  0.16767840  0.49735880  0.47853304  1
  O  O431  1  0.17106896  0.50662631  0.80401837  1
  O  O432  1  0.66720681  0.01271675  0.13945260  1
  O  O433  1  0.66222026  0.00950730  0.46926225  1
  O  O434  1  0.67057776  0.00876708  0.80480093  1
  O  O435  1  0.66573441  0.50972270  0.13761435  1
  O  O436  1  0.66318617  0.50898500  0.47150675  1
  O  O437  1  0.66859295  0.50813392  0.80409652  1
  O  O438  1  0.00206661  0.16243739  0.30145798  1
  O  O439  1  0.01230270  0.17699567  0.63058366  1
  O  O440  1  -0.00126885  0.16096193  0.97325822  1
  O  O441  1  0.00551729  0.65354804  0.31110630  1
  O  O442  1  0.01204526  0.66398485  0.63684920  1
  O  O443  1  0.01058074  0.66847469  0.96411134  1
  O  O444  1  0.50984684  0.17131743  0.30362588  1
  O  O445  1  0.50320122  0.16297121  0.63678409  1
  O  O446  1  0.50829840  0.16492287  0.96822245  1
  O  O447  1  0.51006678  0.67121777  0.30700138  1
  O  O448  1  0.50799465  0.66607367  0.63840326  1
  O  O449  1  0.50973350  0.67104448  0.97158949  1
  O  O450  1  0.32406837  0.48291736  0.19676070  1
  O  O451  1  0.33964668  0.49521688  0.53214636  1
  O  O452  1  0.33893079  0.49716380  0.86651417  1
  O  O453  1  0.33366271  0.99496783  0.19397910  1
  O  O454  1  0.32396501  0.98799648  0.52572278  1
  O  O455  1  0.34283516  0.99267436  0.86403227  1
  O  O456  1  0.82788110  0.48744091  0.19720467  1
  O  O457  1  0.82954095  0.49241856  0.53179875  1
  O  O458  1  0.83583948  0.49128671  0.86449483  1
  O  O459  1  0.84072441  0.99670297  0.19429464  1
  O  O460  1  0.83217776  0.99007448  0.53288027  1
  O  O461  1  0.83357467  0.99086668  0.86695944  1
