# generated using pymatgen
data_Na31Fe20(SO4)36
_symmetry_space_group_name_H-M   'P 1'
_cell_length_a   18.07811889
_cell_length_b   18.07488249
_cell_length_c   19.71511451
_cell_angle_alpha   107.60746602
_cell_angle_beta   107.60725086
_cell_angle_gamma   90.72972370
_symmetry_Int_Tables_number   1
_chemical_formula_structural   Na31Fe20(SO4)36
_chemical_formula_sum   'Na62 Fe40 S72 O288'
_cell_volume   5813.99450115
_cell_formula_units_Z   2
loop_
 _symmetry_equiv_pos_site_id
 _symmetry_equiv_pos_as_xyz
  1  'x, y, z'
loop_
 _atom_site_type_symbol
 _atom_site_label
 _atom_site_symmetry_multiplicity
 _atom_site_fract_x
 _atom_site_fract_y
 _atom_site_fract_z
 _atom_site_occupancy
  Na  Na0  1  0.13422319  0.36481557  0.08212320  1
  Na  Na1  1  0.14618277  0.37067138  0.43313841  1
  Na  Na2  1  0.13499425  0.36632288  0.75050763  1
  Na  Na3  1  0.13155729  0.85366171  0.06529507  1
  Na  Na4  1  0.14444341  0.86557278  0.41521595  1
  Na  Na5  1  0.13993538  0.85797557  0.75380368  1
  Na  Na6  1  0.63808176  0.37233117  0.08147611  1
  Na  Na7  1  0.63757311  0.36112780  0.42035311  1
  Na  Na8  1  0.62419699  0.37748918  0.75111187  1
  Na  Na9  1  0.63669512  0.86479515  0.08796619  1
  Na  Na10  1  0.62765564  0.85974227  0.40780910  1
  Na  Na11  1  0.63387504  0.86369427  0.75352791  1
  Na  Na12  1  0.35961633  0.13379380  0.25139725  1
  Na  Na13  1  0.35758960  0.12984138  0.57101255  1
  Na  Na14  1  0.36324378  0.13624843  0.91102328  1
  Na  Na15  1  0.37265807  0.63264118  0.24838754  1
  Na  Na16  1  0.37789497  0.62239535  0.59423370  1
  Na  Na17  1  0.36543764  0.62994041  0.91399017  1
  Na  Na18  1  0.86530049  0.13405039  0.25009504  1
  Na  Na19  1  0.85561450  0.13770239  0.57736131  1
  Na  Na20  1  0.86417049  0.13666135  0.91899350  1
  Na  Na21  1  0.86518017  0.63245620  0.24746070  1
  Na  Na22  1  0.88306057  0.64255962  0.60281205  1
  Na  Na23  1  0.86823976  0.64498420  0.92047035  1
  Na  Na24  1  0.48201040  0.00597318  0.08499716  1
  Na  Na25  1  0.49180473  0.50793278  0.41844774  1
  Na  Na26  1  0.98908847  0.50248172  0.43817133  1
  Na  Na27  1  1.02197409  -0.00720826  0.40132305  1
  Na  Na28  1  1.00162069  0.54746214  0.74514271  1
  Na  Na29  1  0.49283979  0.00541321  0.75276382  1
  Na  Na30  1  0.43616565  0.00259224  0.40100672  1
  Na  Na31  1  0.98325408  0.51102625  0.07847539  1
  Na  Na32  1  1.00904580  -0.02089595  0.76213505  1
  Na  Na33  1  0.51296359  0.98824113  0.58341886  1
  Na  Na34  1  0.49529900  0.98999850  0.25565787  1
  Na  Na35  1  0.50765708  0.54585374  0.10933073  1
  Na  Na36  1  0.05519974  0.99851639  0.24629292  1
  Na  Na37  1  0.01091847  0.48803633  0.25562018  1
  Na  Na38  1  0.00342300  0.94961207  0.91822529  1
  Na  Na39  1  -0.00859475  0.52201552  0.90285841  1
  Na  Na40  1  0.00496805  0.99424300  0.58232831  1
  Na  Na41  1  0.50444326  0.95183205  0.90528961  1
  Na  Na42  1  0.74296263  0.24362964  0.34101029  1
  Na  Na43  1  0.73215505  0.73318210  0.33769764  1
  Na  Na44  1  0.25650386  0.75123618  0.67107807  1
  Na  Na45  1  0.74103709  0.73915808  0.00875077  1
  Na  Na46  1  0.24054151  0.23552067  0.34203150  1
  Na  Na47  1  0.75502231  0.74657881  0.67685733  1
  Na  Na48  1  0.26039002  0.26043186  -0.01483766  1
  Na  Na49  1  0.75342406  0.25603399  0.66067028  1
  Na  Na50  1  0.24449020  0.24627991  0.67722759  1
  Na  Na51  1  0.26268830  0.76706544  0.32067693  1
  Na  Na52  1  0.24806524  0.24705721  0.16615205  1
  Na  Na53  1  0.75369985  0.74603885  0.83812008  1
  Na  Na54  1  0.72665767  0.72463864  0.17226577  1
  Na  Na55  1  0.23302771  0.73620484  0.85515497  1
  Na  Na56  1  0.73830483  0.24496468  0.84529178  1
  Na  Na57  1  0.74694513  0.74231354  0.50818872  1
  Na  Na58  1  0.24680355  0.24631513  0.50789646  1
  Na  Na59  1  0.25760197  0.76609109  0.15075938  1
  Na  Na60  1  0.25869379  0.75125429  0.50276697  1
  Na  Na61  1  0.75611739  0.25969103  0.15495102  1
  Fe  Fe62  1  0.96440165  0.80533018  0.44996989  1
  Fe  Fe63  1  0.96598320  0.80728297  0.11840597  1
  Fe  Fe64  1  0.46406196  0.31511921  0.45956897  1
  Fe  Fe65  1  0.46726253  0.80402289  0.45127203  1
  Fe  Fe66  1  0.96554950  0.31105276  0.78769845  1
  Fe  Fe67  1  0.46510956  0.80054302  0.12317402  1
  Fe  Fe68  1  0.46448581  0.31448514  0.78702602  1
  Fe  Fe69  1  0.46732954  0.31100891  0.12060707  1
  Fe  Fe70  1  0.96139812  0.30780859  0.45516327  1
  Fe  Fe71  1  0.96171842  0.30483469  0.11416449  1
  Fe  Fe72  1  0.19227962  0.04185116  0.71750323  1
  Fe  Fe73  1  0.20418981  0.52967669  0.70859302  1
  Fe  Fe74  1  0.68961132  0.53455110  0.71042737  1
  Fe  Fe75  1  0.19657167  0.53277254  0.38370286  1
  Fe  Fe76  1  0.69189254  0.03396458  0.04835539  1
  Fe  Fe77  1  0.19301518  0.03660244  0.04561236  1
  Fe  Fe78  1  0.69178017  0.03534952  0.38370127  1
  Fe  Fe79  1  0.18955465  0.53604417  0.04393536  1
  Fe  Fe80  1  0.68816189  0.53368943  0.37791489  1
  Fe  Fe81  1  0.69331785  0.03565355  0.71777400  1
  Fe  Fe82  1  0.03266877  0.19336973  0.54965417  1
  Fe  Fe83  1  0.03359724  0.19382582  0.87991898  1
  Fe  Fe84  1  0.03824886  0.69641826  0.55093567  1
  Fe  Fe85  1  0.53490768  0.69637363  0.55195323  1
  Fe  Fe86  1  0.53696918  0.19616954  0.88459988  1
  Fe  Fe87  1  0.03572623  0.69066332  0.21497449  1
  Fe  Fe88  1  0.53452039  0.19116543  0.54695393  1
  Fe  Fe89  1  0.52959611  0.69564388  0.87355577  1
  Fe  Fe90  1  0.03179672  0.19121710  0.20999155  1
  Fe  Fe91  1  0.53400268  0.19385976  0.21575909  1
  Fe  Fe92  1  0.79350643  0.47261538  0.95483423  1
  Fe  Fe93  1  0.80648139  0.96564172  0.28541637  1
  Fe  Fe94  1  0.30714105  0.46219831  0.28363093  1
  Fe  Fe95  1  0.80875540  0.46450826  0.28533000  1
  Fe  Fe96  1  0.30883076  0.46385259  0.95093194  1
  Fe  Fe97  1  0.30932312  0.96367478  0.94935404  1
  Fe  Fe98  1  0.30826578  0.96833612  0.62037994  1
  Fe  Fe99  1  0.80927545  0.96597505  0.62178625  1
  Fe  Fe100  1  0.80596014  0.46132001  0.61790203  1
  Fe  Fe101  1  0.80993105  0.96584192  0.95731198  1
  S  S102  1  0.36142790  0.14073432  0.08154299  1
  S  S103  1  0.36100874  0.14538316  0.41607435  1
  S  S104  1  0.36226935  0.14354946  0.75055620  1
  S  S105  1  0.35494778  0.63976522  0.08263687  1
  S  S106  1  0.36087601  0.63843273  0.41562246  1
  S  S107  1  0.35811329  0.64397035  0.75523760  1
  S  S108  1  0.85558453  0.14232396  0.08418086  1
  S  S109  1  0.85918534  0.13840910  0.41747809  1
  S  S110  1  0.85811398  0.14255372  0.75008025  1
  S  S111  1  0.86100520  0.64118052  0.08518185  1
  S  S112  1  0.86225832  0.63903290  0.41983319  1
  S  S113  1  0.85999402  0.63439214  0.74833878  1
  S  S114  1  0.13723040  0.35902558  0.24853816  1
  S  S115  1  0.13600066  0.35996241  0.58219103  1
  S  S116  1  0.14118730  0.35925455  0.91944186  1
  S  S117  1  0.13745354  0.85634949  0.25261057  1
  S  S118  1  0.13936934  0.86416378  0.58295304  1
  S  S119  1  0.14317126  0.86451159  0.91355010  1
  S  S120  1  0.64246810  0.35658917  0.25068767  1
  S  S121  1  0.64049158  0.35812103  0.58264401  1
  S  S122  1  0.63851948  0.35804105  0.91509906  1
  S  S123  1  0.64068127  0.86212715  0.24927829  1
  S  S124  1  0.64347359  0.85989032  0.58480925  1
  S  S125  1  0.64312789  0.85913270  0.91792486  1
  S  S126  1  0.06525154  0.17085234  0.04011723  1
  S  S127  1  0.06162525  0.17142221  0.37605232  1
  S  S128  1  0.06239526  0.16824543  0.70785522  1
  S  S129  1  0.06328070  0.66538955  0.04309437  1
  S  S130  1  0.06887226  0.66868136  0.37873116  1
  S  S131  1  0.08285449  0.66605073  0.70881528  1
  S  S132  1  0.56514293  0.16581825  0.04215414  1
  S  S133  1  0.56761587  0.16666087  0.37312956  1
  S  S134  1  0.56543106  0.16432256  0.70762256  1
  S  S135  1  0.56421926  0.67426210  0.04120837  1
  S  S136  1  0.56479954  0.66781256  0.38060133  1
  S  S137  1  0.57123083  0.67312980  0.71226162  1
  S  S138  1  0.32954917  0.43195768  0.12237002  1
  S  S139  1  0.33033199  0.43404193  0.45247752  1
  S  S140  1  0.32534723  0.42983724  0.78923715  1
  S  S141  1  0.33625917  0.93605053  0.12623140  1
  S  S142  1  0.33355837  0.92784062  0.45988639  1
  S  S143  1  0.33028040  0.94182390  0.78782386  1
  S  S144  1  0.83681016  0.43396399  0.12755728  1
  S  S145  1  0.82739825  0.43231612  0.45567001  1
  S  S146  1  0.82565844  0.43163328  0.79198302  1
  S  S147  1  0.83138776  0.93362388  0.12634002  1
  S  S148  1  0.82874239  0.93039770  0.45640915  1
  S  S149  1  0.83128003  0.93811160  0.79198011  1
  S  S150  1  0.43391029  0.32931383  0.29028394  1
  S  S151  1  0.43134423  0.32469009  0.61991344  1
  S  S152  1  0.43435215  0.32931383  0.95994213  1
  S  S153  1  0.43568648  0.82766773  0.28639013  1
  S  S154  1  0.43841026  0.83690362  0.62742036  1
  S  S155  1  0.43528451  0.82813357  0.96022680  1
  S  S156  1  0.93528361  0.33225862  0.29358710  1
  S  S157  1  0.92931843  0.32916072  0.62712480  1
  S  S158  1  0.93050626  0.33295896  0.95558634  1
  S  S159  1  0.92776569  0.82901577  0.29004074  1
  S  S160  1  0.93785258  0.83415659  0.62343413  1
  S  S161  1  0.93034980  0.83456541  0.96139975  1
  S  S162  1  0.16882759  0.07593833  0.20497958  1
  S  S163  1  0.16507720  0.06584434  0.54405353  1
  S  S164  1  0.16893486  0.07028844  0.87560631  1
  S  S165  1  0.16903697  0.56537304  0.21022672  1
  S  S166  1  0.17352998  0.57095418  0.54381302  1
  S  S167  1  0.16948491  0.55965167  0.87311860  1
  S  S168  1  0.66735731  0.06810354  0.20945841  1
  S  S169  1  0.66674913  0.06336242  0.54308225  1
  S  S170  1  0.66810672  0.06524682  0.87586569  1
  S  S171  1  0.67489225  0.56414534  0.21743642  1
  S  S172  1  0.67149284  0.56799060  0.54259742  1
  S  S173  1  0.67213201  0.57669421  0.87456145  1
  O  O174  1  0.37052253  0.22017004  0.07495964  1
  O  O175  1  0.37689634  0.22515195  0.40929742  1
  O  O176  1  0.37304994  0.22232749  0.74351486  1
  O  O177  1  0.36631380  0.72323711  0.08287393  1
  O  O178  1  0.36952136  0.71643790  0.40532806  1
  O  O179  1  0.35854304  0.72386632  0.75341672  1
  O  O180  1  0.86477020  0.22277851  0.07969145  1
  O  O181  1  0.86632018  0.21702458  0.40804819  1
  O  O182  1  0.86826983  0.22149790  0.74276440  1
  O  O183  1  0.87389029  0.71813568  0.07357680  1
  O  O184  1  0.87028901  0.71676697  0.40840997  1
  O  O185  1  0.87309049  0.70829245  0.73534878  1
  O  O186  1  0.28233520  0.13100900  0.08886509  1
  O  O187  1  0.28633802  0.14377272  0.43064382  1
  O  O188  1  0.28363898  0.13573653  0.75867577  1
  O  O189  1  0.27387887  0.63139866  0.08745526  1
  O  O190  1  0.28118598  0.62982015  0.42212360  1
  O  O191  1  0.28203190  0.62389124  0.77038410  1
  O  O192  1  0.77673161  0.13148703  0.09262873  1
  O  O193  1  0.78141905  0.12730235  0.42660859  1
  O  O194  1  0.77973816  0.13427631  0.75986647  1
  O  O195  1  0.78536159  0.63591731  0.09618315  1
  O  O196  1  0.78236586  0.63094159  0.42582237  1
  O  O197  1  0.77692936  0.62790504  0.75063242  1
  O  O198  1  0.12872541  0.28099233  0.25793911  1
  O  O199  1  0.12347552  0.28295252  0.59529153  1
  O  O200  1  0.12749087  0.28142911  0.92925010  1
  O  O201  1  0.12242506  0.77848652  0.26485860  1
  O  O202  1  0.13272187  0.78586541  0.59300659  1
  O  O203  1  0.13548959  0.78839362  0.92238605  1
  O  O204  1  0.63181930  0.27691779  0.25784374  1
  O  O205  1  0.63169671  0.27889544  0.59035226  1
  O  O206  1  0.63369018  0.27449769  0.91548964  1
  O  O207  1  0.64025264  0.78493274  0.25835759  1
  O  O208  1  0.63654942  0.78127470  0.59406593  1
  O  O209  1  0.63115525  0.77808812  0.92263466  1
  O  O210  1  0.21461612  0.36742667  0.23730319  1
  O  O211  1  0.20842531  0.36281077  0.56458859  1
  O  O212  1  0.22216191  0.36463219  0.91696895  1
  O  O213  1  0.21529055  0.85774177  0.24523583  1
  O  O214  1  0.21825792  0.87370068  0.57489680  1
  O  O215  1  0.22235864  0.87554166  0.90252327  1
  O  O216  1  0.72241604  0.36477084  0.24429926  1
  O  O217  1  0.71895734  0.36799516  0.57400281  1
  O  O218  1  0.71764691  0.37158703  0.90679505  1
  O  O219  1  0.71477863  0.87832060  0.23396048  1
  O  O220  1  0.72341924  0.86985825  0.57852832  1
  O  O221  1  0.72367460  0.86722490  0.91308724  1
  O  O222  1  0.42033078  0.13149209  0.14933671  1
  O  O223  1  0.42323898  0.13151536  0.48150840  1
  O  O224  1  0.42204965  0.13298431  0.81752791  1
  O  O225  1  0.41192816  0.62512354  0.14630393  1
  O  O226  1  0.41910706  0.63224806  0.48504545  1
  O  O227  1  0.42222970  0.63960439  0.82477151  1
  O  O228  1  0.91455484  0.13408743  0.15193571  1
  O  O229  1  0.91954140  0.13147171  0.48521935  1
  O  O230  1  0.91812692  0.13306719  0.81677344  1
  O  O231  1  0.92338310  0.63132248  0.15186723  1
  O  O232  1  0.92028279  0.63407222  0.49012716  1
  O  O233  1  0.91371931  0.62388369  0.81642799  1
  O  O234  1  0.37041624  0.08167139  0.01369712  1
  O  O235  1  0.36383099  0.08653817  0.34733335  1
  O  O236  1  0.37011051  0.08426710  0.68191432  1
  O  O237  1  0.36068722  0.58573551  0.01102227  1
  O  O238  1  0.37087389  0.57781363  0.34940921  1
  O  O239  1  0.36448220  0.58642060  0.68877461  1
  O  O240  1  0.86173552  0.08563944  0.01466424  1
  O  O241  1  0.86759862  0.07956534  0.34930119  1
  O  O242  1  0.86300237  0.08365271  0.68023439  1
  O  O243  1  0.86800473  0.57938450  0.01715039  1
  O  O244  1  0.87488417  0.57833018  0.35513493  1
  O  O245  1  0.86831536  0.56959909  0.68120131  1
  O  O246  1  0.07654609  0.36690000  0.18081827  1
  O  O247  1  0.07053218  0.36987611  0.51901169  1
  O  O248  1  0.08501520  0.36537366  0.84904738  1
  O  O249  1  0.07898246  0.86209263  0.18159681  1
  O  O250  1  0.07988678  0.86916250  0.51324310  1
  O  O251  1  0.08411524  0.87908519  0.85009477  1
  O  O252  1  0.58509893  0.36332949  0.18156603  1
  O  O253  1  0.58133644  0.36559184  0.51422537  1
  O  O254  1  0.58017881  0.36344455  0.84474985  1
  O  O255  1  0.57533727  0.86872013  0.18312019  1
  O  O256  1  0.58537587  0.86670487  0.51567849  1
  O  O257  1  0.58612674  0.87174834  0.85320554  1
  O  O258  1  0.12928512  0.41959860  0.31606446  1
  O  O259  1  0.13687983  0.42188265  0.65307897  1
  O  O260  1  0.13034751  0.41999019  0.98550526  1
  O  O261  1  0.12649497  0.91799014  0.31642369  1
  O  O262  1  0.12853322  0.92426859  0.64889470  1
  O  O263  1  0.13970395  0.92571596  0.98500770  1
  O  O264  1  0.63415459  0.41432576  0.31893213  1
  O  O265  1  0.63346965  0.41678842  0.65087338  1
  O  O266  1  0.62939237  0.41193457  0.98202654  1
  O  O267  1  0.63266845  0.92203771  0.31757539  1
  O  O268  1  0.63245498  0.91940958  0.65115613  1
  O  O269  1  0.63639329  0.91597131  0.98896111  1
  O  O270  1  0.02618193  0.20014066  0.09964498  1
  O  O271  1  0.02546246  0.20523193  0.43746286  1
  O  O272  1  0.02978789  0.20152172  0.77117171  1
  O  O273  1  0.03243316  0.69797539  0.10849302  1
  O  O274  1  0.03121331  0.69863841  0.43893357  1
  O  O275  1  0.04986556  0.67923000  0.76912401  1
  O  O276  1  0.52915600  0.19656618  0.10357775  1
  O  O277  1  0.53678977  0.19795996  0.43674906  1
  O  O278  1  0.53063505  0.19408313  0.76879482  1
  O  O279  1  0.52134665  0.71015203  0.09632299  1
  O  O280  1  0.53389869  0.70297646  0.44693311  1
  O  O281  1  0.53410175  0.69650717  0.77242724  1
  O  O282  1  0.29922412  0.47063557  0.06335472  1
  O  O283  1  0.29481896  0.46501490  0.38571517  1
  O  O284  1  0.29443197  0.46695852  0.72960806  1
  O  O285  1  0.31258302  0.96613308  0.05988537  1
  O  O286  1  0.31140193  0.95761876  0.39733046  1
  O  O287  1  0.29368363  0.97888310  0.72731215  1
  O  O288  1  0.81190302  0.46704707  0.06612783  1
  O  O289  1  0.79826985  0.47019408  0.39566760  1
  O  O290  1  0.79582131  0.46582477  0.72960673  1
  O  O291  1  0.80136346  0.97258044  0.06690873  1
  O  O292  1  0.79783397  0.96559391  0.39473342  1
  O  O293  1  0.79512121  0.97413856  0.73037122  1
  O  O294  1  0.47083837  0.29995316  0.22893938  1
  O  O295  1  0.47307692  0.29092659  0.56115494  1
  O  O296  1  0.47106887  0.30063413  0.89878520  1
  O  O297  1  0.47371645  0.79656717  0.22745755  1
  O  O298  1  0.46918799  0.80174940  0.56160384  1
  O  O299  1  0.47844626  0.80138253  0.90520471  1
  O  O300  1  0.97010033  0.30216067  0.23174791  1
  O  O301  1  0.96166514  0.29580418  0.56361011  1
  O  O302  1  0.96809842  0.30378575  0.89484530  1
  O  O303  1  0.96092438  0.79816092  0.22770575  1
  O  O304  1  0.96822077  0.80110856  0.55740443  1
  O  O305  1  0.96098202  0.81663564  0.89921021  1
  O  O306  1  0.18685839  0.04655164  0.26801308  1
  O  O307  1  0.20050782  0.03660805  0.61008168  1
  O  O308  1  0.20195300  0.03674394  0.93769488  1
  O  O309  1  0.20023265  0.52922998  0.27142860  1
  O  O310  1  0.20012429  0.53682029  0.60518530  1
  O  O311  1  0.20201949  0.51837759  0.93103517  1
  O  O312  1  0.69846116  0.03601360  0.27297212  1
  O  O313  1  0.69829576  0.02800175  0.60491843  1
  O  O314  1  0.69770939  0.02910176  0.93721193  1
  O  O315  1  0.71180109  0.52750073  0.28021281  1
  O  O316  1  0.69974051  0.52914760  0.60154490  1
  O  O317  1  0.69742876  0.54033272  0.93410313  1
  O  O318  1  0.08360729  0.08977936  0.03214937  1
  O  O319  1  0.07242100  0.08966728  0.37017121  1
  O  O320  1  0.07941991  0.08606892  0.70505609  1
  O  O321  1  0.08164917  0.58265808  0.04132191  1
  O  O322  1  0.08604901  0.58646347  0.37309169  1
  O  O323  1  0.10564983  0.58317595  0.69085993  1
  O  O324  1  0.57971885  0.08244944  0.03644965  1
  O  O325  1  0.58440396  0.08376925  0.36726486  1
  O  O326  1  0.58251439  0.08108021  0.70337179  1
  O  O327  1  0.57653800  0.59627506  0.04436506  1
  O  O328  1  0.58624016  0.58860631  0.38350288  1
  O  O329  1  0.59050508  0.59225116  0.69909317  1
  O  O330  1  0.41037440  0.41405477  0.12643876  1
  O  O331  1  0.41066196  0.41583217  0.45003677  1
  O  O332  1  0.40350272  0.40808726  0.78862203  1
  O  O333  1  0.41458616  0.90236650  0.12781000  1
  O  O334  1  0.41869034  0.91068671  0.47418425  1
  O  O335  1  0.41184106  0.93374625  0.79071622  1
  O  O336  1  0.92075435  0.41544526  0.13652890  1
  O  O337  1  0.90812469  0.41257555  0.45724833  1
  O  O338  1  0.90850509  0.41506823  0.79842795  1
  O  O339  1  0.91290608  0.91632254  0.13417184  1
  O  O340  1  0.91125046  0.91422178  0.46190055  1
  O  O341  1  0.91272440  0.92936931  0.79571179  1
  O  O342  1  0.41612998  0.41095803  0.29602832  1
  O  O343  1  0.41053615  0.40006749  0.61643103  1
  O  O344  1  0.41251853  0.40908545  0.96518598  1
  O  O345  1  0.42351604  0.90948903  0.29286018  1
  O  O346  1  0.41821117  0.91832435  0.62710049  1
  O  O347  1  0.41888870  0.91112016  0.96236698  1
  O  O348  1  0.91964480  0.41554539  0.29937606  1
  O  O349  1  0.91294539  0.41057923  0.63197886  1
  O  O350  1  0.91025369  0.41352012  0.96017257  1
  O  O351  1  0.91219197  0.91192811  0.29785108  1
  O  O352  1  0.91742915  0.91588409  0.62489486  1
  O  O353  1  0.91127011  0.91865406  0.97798383  1
  O  O354  1  0.08419168  0.09312208  0.18699467  1
  O  O355  1  0.08296143  0.08404731  0.54299314  1
  O  O356  1  0.08692310  0.08701291  0.87128683  1
  O  O357  1  0.08534503  0.57860270  0.20496755  1
  O  O358  1  0.09146461  0.59104891  0.53292693  1
  O  O359  1  0.08644200  0.56477752  0.86551656  1
  O  O360  1  0.58400876  0.08294656  0.20222623  1
  O  O361  1  0.58421843  0.07820884  0.53790317  1
  O  O362  1  0.58685973  0.08489504  0.87193092  1
  O  O363  1  0.60194989  0.59124386  0.22726311  1
  O  O364  1  0.59093074  0.58857648  0.53748065  1
  O  O365  1  0.59397049  0.60460992  0.87114728  1
  O  O366  1  0.13643856  0.22451203  0.05925308  1
  O  O367  1  0.13531256  0.22129665  0.39413393  1
  O  O368  1  0.13240641  0.21735125  0.71794248  1
  O  O369  1  0.13381685  0.71517225  0.05535417  1
  O  O370  1  0.14018380  0.72051863  0.39616006  1
  O  O371  1  0.15185695  0.72237387  0.72575320  1
  O  O372  1  0.63694099  0.21573472  0.05785323  1
  O  O373  1  0.63767476  0.21601134  0.38263910  1
  O  O374  1  0.63750325  0.21382405  0.72176400  1
  O  O375  1  0.63781515  0.72627385  0.06181415  1
  O  O376  1  0.63691760  0.71986437  0.39582212  1
  O  O377  1  0.64189963  0.72861633  0.73184422  1
  O  O378  1  0.27698267  0.35988164  0.10445770  1
  O  O379  1  0.28034432  0.36153493  0.43768664  1
  O  O380  1  0.27111481  0.36113408  0.77602903  1
  O  O381  1  0.27712955  0.87502249  0.11737982  1
  O  O382  1  0.28381091  0.85533213  0.44730661  1
  O  O383  1  0.28229166  0.86839196  0.77051685  1
  O  O384  1  0.78530196  0.36456055  0.11578890  1
  O  O385  1  0.77525364  0.36142473  0.43883676  1
  O  O386  1  0.77491010  0.35974589  0.77636374  1
  O  O387  1  0.77854500  0.86251209  0.10841300  1
  O  O388  1  0.77809858  0.85882230  0.44179494  1
  O  O389  1  0.78313789  0.86392305  0.77490540  1
  O  O390  1  0.36215747  0.27713537  0.27185031  1
  O  O391  1  0.36359164  0.26681359  0.60404998  1
  O  O392  1  0.36669371  0.27375165  0.94535485  1
  O  O393  1  0.36223586  0.77683211  0.26726229  1
  O  O394  1  0.36701543  0.78687357  0.61499202  1
  O  O395  1  0.36396279  0.77727992  0.94203210  1
  O  O396  1  0.86272140  0.28225190  0.27764601  1
  O  O397  1  0.85952937  0.27850707  0.61613840  1
  O  O398  1  0.86241952  0.27776839  0.94010932  1
  O  O399  1  0.85688985  0.77894367  0.27814504  1
  O  O400  1  0.86703707  0.78319448  0.61087692  1
  O  O401  1  0.85962347  0.78189150  0.94765714  1
  O  O402  1  0.22048805  0.14877128  0.22054384  1
  O  O403  1  0.21376345  0.13820164  0.55629175  1
  O  O404  1  0.21927422  0.14032925  0.88704692  1
  O  O405  1  0.21768332  0.63851865  0.22694206  1
  O  O406  1  0.22676637  0.64079941  0.55756071  1
  O  O407  1  0.21731940  0.63411903  0.89616405  1
  O  O408  1  0.71718978  0.13990310  0.22314172  1
  O  O409  1  0.71649182  0.13545126  0.55872980  1
  O  O410  1  0.72125085  0.13339708  0.88824929  1
  O  O411  1  0.73297661  0.63173076  0.23240618  1
  O  O412  1  0.72624647  0.63822060  0.56025927  1
  O  O413  1  0.72965477  0.64429255  0.88942325  1
  O  O414  1  0.49589117  0.33297128  0.03242335  1
  O  O415  1  0.49288081  0.33007745  0.36218240  1
  O  O416  1  0.49046435  0.32675415  0.69342225  1
  O  O417  1  0.49046652  0.83498559  0.03719316  1
  O  O418  1  0.49081277  0.82586272  0.36046130  1
  O  O419  1  0.50066425  0.84590393  0.69742783  1
  O  O420  1  0.99131106  0.33711862  0.02861607  1
  O  O421  1  0.99387525  0.33553476  0.36654884  1
  O  O422  1  0.99240448  0.33188888  0.69853827  1
  O  O423  1  0.99176724  0.83141573  0.03182125  1
  O  O424  1  0.99012607  0.83218271  0.36235974  1
  O  O425  1  1.00067628  0.84124971  0.69276773  1
  O  O426  1  0.17530882  0.01556233  0.13602276  1
  O  O427  1  0.15849537  0.00346855  0.47437189  1
  O  O428  1  0.16319913  0.00867906  0.80240039  1
  O  O429  1  0.16828580  0.50720383  0.13782058  1
  O  O430  1  0.17072246  0.50889603  0.47166816  1
  O  O431  1  0.17376847  0.50766221  0.79805558  1
  O  O432  1  0.66617698  0.00733882  0.13807824  1
  O  O433  1  0.66635345  0.00414877  0.47102704  1
  O  O434  1  0.66164303  0.00369713  0.80253606  1
  O  O435  1  0.66480324  0.50412382  0.14574919  1
  O  O436  1  0.66870742  0.50838523  0.46980122  1
  O  O437  1  0.66483346  0.51618486  0.80085251  1
  O  O438  1  0.00522033  0.17353873  0.30306804  1
  O  O439  1  -0.00055132  0.16214510  0.63592324  1
  O  O440  1  0.00622374  0.17202310  0.96835617  1
  O  O441  1  0.00946402  0.66585036  0.30587650  1
  O  O442  1  0.02082694  0.66956545  0.63855099  1
  O  O443  1  0.00079308  0.65755391  0.97301461  1
  O  O444  1  0.50478744  0.16189499  0.30087697  1
  O  O445  1  0.50635971  0.15888085  0.63414541  1
  O  O446  1  0.50619882  0.16504569  0.96985838  1
  O  O447  1  0.50381152  0.66277071  0.31196978  1
  O  O448  1  0.51202435  0.67754247  0.64158356  1
  O  O449  1  0.51260821  0.67402011  0.96483054  1
  O  O450  1  0.33067912  0.48894131  0.19596139  1
  O  O451  1  0.33391975  0.49530425  0.52054210  1
  O  O452  1  0.33352075  0.48910605  0.86395908  1
  O  O453  1  0.35480130  1.00265369  0.19527340  1
  O  O454  1  0.33161747  0.98945481  0.53085169  1
  O  O455  1  0.32979588  0.99791632  0.86173846  1
  O  O456  1  0.84158827  0.49511418  0.20094632  1
  O  O457  1  0.83212955  0.49051460  0.52898638  1
  O  O458  1  0.82814908  0.49187000  0.86407419  1
  O  O459  1  0.83092339  0.99323534  0.19837799  1
  O  O460  1  0.83126627  0.99091318  0.52864791  1
  O  O461  1  0.82885612  0.99447436  0.86465256  1
