# generated using pymatgen
data_Na31Fe20(SO4)36
_symmetry_space_group_name_H-M   'P 1'
_cell_length_a   18.05849692
_cell_length_b   18.06270887
_cell_length_c   19.68736632
_cell_angle_alpha   107.58555108
_cell_angle_beta   107.57596499
_cell_angle_gamma   90.69869447
_symmetry_Int_Tables_number   1
_chemical_formula_structural   Na31Fe20(SO4)36
_chemical_formula_sum   'Na62 Fe40 S72 O288'
_cell_volume   5797.93087963
_cell_formula_units_Z   2
loop_
 _symmetry_equiv_pos_site_id
 _symmetry_equiv_pos_as_xyz
  1  'x, y, z'
loop_
 _atom_site_type_symbol
 _atom_site_label
 _atom_site_symmetry_multiplicity
 _atom_site_fract_x
 _atom_site_fract_y
 _atom_site_fract_z
 _atom_site_occupancy
  Na  Na0  1  0.13167592  0.37039921  0.08810123  1
  Na  Na1  1  0.14499666  0.34363950  0.41164633  1
  Na  Na2  1  0.12815608  0.35274949  0.73573457  1
  Na  Na3  1  0.13304879  0.86572704  0.08339257  1
  Na  Na4  1  0.13604321  0.86911827  0.41954803  1
  Na  Na5  1  0.13803369  0.85746728  0.74568590  1
  Na  Na6  1  0.64219663  0.37446370  0.09606832  1
  Na  Na7  1  0.61456384  0.36564284  0.40928128  1
  Na  Na8  1  0.65275166  0.37019326  0.77064307  1
  Na  Na9  1  0.63683277  0.87149770  0.08067219  1
  Na  Na10  1  0.63330749  0.86561209  0.41473762  1
  Na  Na11  1  0.63916791  0.87023982  0.75457953  1
  Na  Na12  1  0.36535631  0.17678736  0.28300017  1
  Na  Na13  1  0.35122892  0.13985416  0.57268937  1
  Na  Na14  1  0.37346502  0.13121016  0.92288807  1
  Na  Na15  1  0.36673956  0.62902434  0.24816546  1
  Na  Na16  1  0.37058533  0.63859143  0.58878106  1
  Na  Na17  1  0.36893503  0.63158589  0.91652500  1
  Na  Na18  1  0.84954526  0.12664422  0.23154625  1
  Na  Na19  1  0.86398920  0.14589487  0.58659686  1
  Na  Na20  1  0.86189276  0.13829844  0.91458687  1
  Na  Na21  1  0.85449968  0.62888262  0.23937124  1
  Na  Na22  1  0.86885361  0.62618330  0.57845115  1
  Na  Na23  1  0.87341838  0.63103911  0.92452368  1
  Na  Na24  1  0.99091016  0.50765015  0.76204560  1
  Na  Na25  1  0.99465089  0.00099703  0.08754049  1
  Na  Na26  1  0.49112048  0.00065445  0.77079644  1
  Na  Na27  1  0.51168782  0.50170980  0.72388847  1
  Na  Na28  1  0.94878600  0.50250970  0.06399285  1
  Na  Na29  1  0.98888426  0.04184390  0.42265611  1
  Na  Na30  1  0.48909827  0.02167313  0.41005011  1
  Na  Na31  1  0.50807834  0.03279912  0.07268332  1
  Na  Na32  1  0.99005483  0.01114436  0.75175279  1
  Na  Na33  1  0.04199930  0.98995691  0.93152279  1
  Na  Na34  1  0.00876199  0.96378766  0.24421562  1
  Na  Na35  1  0.51319822  0.48462808  0.25399469  1
  Na  Na36  1  0.50034461  1.00182102  0.58443358  1
  Na  Na37  1  0.51095433  0.48024521  0.93443290  1
  Na  Na38  1  0.01056744  0.47977495  0.56986482  1
  Na  Na39  1  0.47183745  1.04421488  0.22615995  1
  Na  Na40  1  -0.03668807  0.51041915  0.30367294  1
  Na  Na41  1  -0.00747545  1.01647876  0.57900319  1
  Na  Na42  1  0.76015989  0.26598845  -0.01344445  1
  Na  Na43  1  0.74403112  0.24983274  0.67973877  1
  Na  Na44  1  0.76356817  0.76083759  -0.00217747  1
  Na  Na45  1  0.73544586  0.24619830  0.32599031  1
  Na  Na46  1  0.74622189  0.74570295  0.66809147  1
  Na  Na47  1  0.25087559  0.74967928  -0.00288714  1
  Na  Na48  1  0.25118694  0.25556067  0.65589979  1
  Na  Na49  1  0.24403990  0.74598442  0.33870400  1
  Na  Na50  1  0.24371757  0.23398128  0.00975829  1
  Na  Na51  1  0.75472607  0.75304755  0.33086902  1
  Na  Na52  1  0.74446447  0.25488070  0.49743089  1
  Na  Na53  1  0.76409026  0.76041839  0.15993475  1
  Na  Na54  1  0.24755729  0.74706557  0.16784403  1
  Na  Na55  1  0.24537319  0.74222497  0.51358166  1
  Na  Na56  1  0.24525426  0.24532514  0.83197704  1
  Na  Na57  1  0.75046172  0.74789026  0.83703459  1
  Na  Na58  1  0.75327659  0.74593927  0.49850789  1
  Na  Na59  1  0.75074818  0.25682684  0.16333353  1
  Na  Na60  1  0.25955617  0.75507288  0.82119153  1
  Na  Na61  1  0.23553411  0.23586938  0.17607241  1
  Fe  Fe62  1  0.46915882  0.29963272  0.12275461  1
  Fe  Fe63  1  0.96537047  0.80976466  0.78674853  1
  Fe  Fe64  1  0.46366039  0.80840478  0.78506622  1
  Fe  Fe65  1  0.96803848  0.29177863  0.45286480  1
  Fe  Fe66  1  0.96469050  0.30888455  0.12038501  1
  Fe  Fe67  1  0.46665012  0.80587011  0.44999157  1
  Fe  Fe68  1  0.46404910  0.30637001  0.78550720  1
  Fe  Fe69  1  0.96691632  0.80979758  0.45536150  1
  Fe  Fe70  1  0.46778565  0.80670664  0.11988733  1
  Fe  Fe71  1  0.96438211  0.31374891  0.79220942  1
  Fe  Fe72  1  0.69767065  0.53300656  0.71241168  1
  Fe  Fe73  1  0.68405621  0.03388258  0.37394262  1
  Fe  Fe74  1  0.19122585  0.03355235  0.71395437  1
  Fe  Fe75  1  0.18972262  0.53299283  0.04450123  1
  Fe  Fe76  1  0.70555534  0.52731275  0.37584091  1
  Fe  Fe77  1  0.19035201  0.53313238  0.37881694  1
  Fe  Fe78  1  0.69113385  0.03841243  0.71436297  1
  Fe  Fe79  1  0.70338687  0.53048764  0.04647702  1
  Fe  Fe80  1  0.18950003  0.03949585  0.38159113  1
  Fe  Fe81  1  0.19484703  0.53420329  0.71251460  1
  Fe  Fe82  1  0.53665763  0.68415152  0.53892742  1
  Fe  Fe83  1  0.52722905  0.20492416  0.54893112  1
  Fe  Fe84  1  0.03575467  0.19120306  0.88475272  1
  Fe  Fe85  1  0.53780611  0.19484726  0.88348947  1
  Fe  Fe86  1  0.53723495  0.68532090  0.20788272  1
  Fe  Fe87  1  0.03381061  0.69603524  0.88242642  1
  Fe  Fe88  1  0.03001437  0.70162113  0.20899339  1
  Fe  Fe89  1  0.04011719  0.68840207  0.54671997  1
  Fe  Fe90  1  0.53612713  0.69586886  0.88009018  1
  Fe  Fe91  1  0.03693587  0.18978938  0.21565601  1
  Fe  Fe92  1  0.79942169  0.97020828  0.95513389  1
  Fe  Fe93  1  0.30430831  0.96876854  0.95787667  1
  Fe  Fe94  1  0.30595290  0.46265022  0.60536000  1
  Fe  Fe95  1  0.80889068  0.46125224  0.61944326  1
  Fe  Fe96  1  0.80319831  0.96629866  0.28092557  1
  Fe  Fe97  1  0.30793590  0.96416849  0.61914456  1
  Fe  Fe98  1  0.31320123  0.46124189  0.29155900  1
  Fe  Fe99  1  0.30828877  0.46276852  0.95575988  1
  Fe  Fe100  1  0.30405423  0.96730237  0.28375837  1
  Fe  Fe101  1  0.80474578  0.96586868  0.61793832  1
  S  S102  1  0.36150392  0.13998758  0.08572066  1
  S  S103  1  0.36010737  0.13693899  0.41924447  1
  S  S104  1  0.36000030  0.13775407  0.75056491  1
  S  S105  1  0.36039941  0.63861406  0.08182723  1
  S  S106  1  0.35817384  0.64333795  0.41527902  1
  S  S107  1  0.36345058  0.63843792  0.74968867  1
  S  S108  1  0.86080398  0.14106895  0.08084390  1
  S  S109  1  0.85253073  0.13724341  0.41925772  1
  S  S110  1  0.86081713  0.13890166  0.74753570  1
  S  S111  1  0.85856980  0.64473265  0.08582789  1
  S  S112  1  0.86568662  0.64417251  0.41840218  1
  S  S113  1  0.86105441  0.64177832  0.74828684  1
  S  S114  1  0.13769078  0.36162339  0.25068173  1
  S  S115  1  0.13955455  0.36178056  0.58378217  1
  S  S116  1  0.14339424  0.35637136  0.91710809  1
  S  S117  1  0.14374164  0.86121917  0.25254585  1
  S  S118  1  0.14125781  0.85845749  0.58478628  1
  S  S119  1  0.14263604  0.85493669  0.91261592  1
  S  S120  1  0.63442867  0.36128666  0.24967584  1
  S  S121  1  0.64087050  0.36134832  0.58821242  1
  S  S122  1  0.63800345  0.36356571  0.91771318  1
  S  S123  1  0.64127343  0.85540522  0.24976276  1
  S  S124  1  0.64031119  0.85849308  0.58141497  1
  S  S125  1  0.63785721  0.85954386  0.91331439  1
  S  S126  1  0.06243987  0.16670189  0.04386547  1
  S  S127  1  0.05720963  0.15599601  0.36553118  1
  S  S128  1  0.06266155  0.16313072  0.71066843  1
  S  S129  1  0.07157455  0.67061032  0.04135741  1
  S  S130  1  0.06962869  0.67577061  0.37679990  1
  S  S131  1  0.06561362  0.66713475  0.70943059  1
  S  S132  1  0.57115419  0.17767529  0.04253862  1
  S  S133  1  0.56431819  0.16389577  0.37809963  1
  S  S134  1  0.56646389  0.17297319  0.70949377  1
  S  S135  1  0.57203906  0.67042300  0.04225554  1
  S  S136  1  0.57252459  0.66965266  0.37452465  1
  S  S137  1  0.57136953  0.67385752  0.70740300  1
  S  S138  1  0.32614955  0.42669297  0.12195882  1
  S  S139  1  0.33202665  0.44180246  0.45756530  1
  S  S140  1  0.32732139  0.43067932  0.79224100  1
  S  S141  1  0.33110733  0.92591875  0.12359975  1
  S  S142  1  0.33424353  0.93170866  0.45916152  1
  S  S143  1  0.32810108  0.93116415  0.79098279  1
  S  S144  1  0.83498988  0.43424358  0.12822639  1
  S  S145  1  0.83018655  0.42440641  0.45804807  1
  S  S146  1  0.83588592  0.43983237  0.79297702  1
  S  S147  1  0.83337203  0.93471681  0.12248813  1
  S  S148  1  0.82858963  0.93361007  0.45768258  1
  S  S149  1  0.83107848  0.93450243  0.79028606  1
  S  S150  1  0.42942207  0.33930235  0.28690084  1
  S  S151  1  0.42992234  0.33114923  0.63037649  1
  S  S152  1  0.42860028  0.32551319  0.95777579  1
  S  S153  1  0.43286050  0.82855214  0.28916352  1
  S  S154  1  0.43680539  0.83489628  0.62413534  1
  S  S155  1  0.43158001  0.82985331  0.95728449  1
  S  S156  1  0.93101439  0.31620307  0.28974977  1
  S  S157  1  0.93377805  0.33152032  0.62594591  1
  S  S158  1  0.93633961  0.32760924  0.95486940  1
  S  S159  1  0.93504274  0.83524623  0.29702981  1
  S  S160  1  0.93392194  0.83404532  0.62501754  1
  S  S161  1  0.93529036  0.83551073  0.95691346  1
  S  S162  1  0.16972153  0.06248944  0.20774522  1
  S  S163  1  0.16742783  0.06062237  0.54501100  1
  S  S164  1  0.16881594  0.06211605  0.87427462  1
  S  S165  1  0.16880020  0.57311512  0.20913267  1
  S  S166  1  0.17208086  0.56870727  0.54281083  1
  S  S167  1  0.17133570  0.56635715  0.87433536  1
  S  S168  1  0.66321018  0.05934515  0.20687812  1
  S  S169  1  0.66641574  0.06563116  0.54348166  1
  S  S170  1  0.66950005  0.06821281  0.87234980  1
  S  S171  1  0.67188259  0.57067134  0.20958604  1
  S  S172  1  0.67854661  0.56875688  0.54180298  1
  S  S173  1  0.66790647  0.57313865  0.87383326  1
  O  O174  1  0.37766615  0.21664206  0.07024181  1
  O  O175  1  0.36837801  0.21183574  0.40913858  1
  O  O176  1  0.36853507  0.21861387  0.74669048  1
  O  O177  1  0.37000147  0.71684340  0.07186778  1
  O  O178  1  0.37022127  0.72182635  0.40553569  1
  O  O179  1  0.37150994  0.71705479  0.74065292  1
  O  O180  1  0.87292212  0.21960987  0.07090133  1
  O  O181  1  0.86156614  0.21840766  0.41608963  1
  O  O182  1  0.87320459  0.21707239  0.73938556  1
  O  O183  1  0.86299613  0.72424763  0.08210538  1
  O  O184  1  0.86893144  0.72796336  0.41852693  1
  O  O185  1  0.87043392  0.72066076  0.73959232  1
  O  O186  1  0.28073939  0.13858000  0.08589838  1
  O  O187  1  0.28392258  0.12222531  0.43164294  1
  O  O188  1  0.28149440  0.12789373  0.75985605  1
  O  O189  1  0.28079819  0.62992086  0.08890925  1
  O  O190  1  0.27836068  0.63831642  0.42260222  1
  O  O191  1  0.28401243  0.62817385  0.75711954  1
  O  O192  1  0.78983218  0.13787864  0.10085930  1
  O  O193  1  0.77250616  0.12764908  0.42633358  1
  O  O194  1  0.78034294  0.13046932  0.75106548  1
  O  O195  1  0.78202564  0.63017120  0.09943831  1
  O  O196  1  0.78712997  0.62900409  0.42585576  1
  O  O197  1  0.78013917  0.63404942  0.75299856  1
  O  O198  1  0.13173600  0.28130767  0.25611313  1
  O  O199  1  0.13209211  0.29172329  0.60443805  1
  O  O200  1  0.13646285  0.27718793  0.92574495  1
  O  O201  1  0.13292959  0.78217363  0.26097547  1
  O  O202  1  0.13051833  0.77905767  0.59084514  1
  O  O203  1  0.13447075  0.77246436  0.91389485  1
  O  O204  1  0.62072580  0.28875715  0.26415004  1
  O  O205  1  0.63021629  0.28500926  0.60252782  1
  O  O206  1  0.62843413  0.28419361  0.92547299  1
  O  O207  1  0.62980798  0.77697482  0.25854186  1
  O  O208  1  0.63084122  0.77889798  0.58782577  1
  O  O209  1  0.63286977  0.77652837  0.91642930  1
  O  O210  1  0.21478131  0.37507272  0.24021169  1
  O  O211  1  0.21921399  0.37337185  0.57861470  1
  O  O212  1  0.22251184  0.36681723  0.90907540  1
  O  O213  1  0.22521296  0.86711097  0.24775328  1
  O  O214  1  0.22047513  0.86714617  0.57688327  1
  O  O215  1  0.22138474  0.86574042  0.90427095  1
  O  O216  1  0.70789548  0.36830578  0.23411941  1
  O  O217  1  0.72438276  0.36707852  0.58735706  1
  O  O218  1  0.71161313  0.37434910  0.90501163  1
  O  O219  1  0.72229983  0.86291426  0.24522569  1
  O  O220  1  0.71996800  0.86707171  0.57375614  1
  O  O221  1  0.71673175  0.86910841  0.90257736  1
  O  O222  1  0.41763584  0.13315528  0.15396568  1
  O  O223  1  0.42206510  0.12682104  0.48656494  1
  O  O224  1  0.42054923  0.12576108  0.81579668  1
  O  O225  1  0.41841346  0.63351666  0.15159886  1
  O  O226  1  0.41641512  0.63911901  0.48531257  1
  O  O227  1  0.42176528  0.63415943  0.82022016  1
  O  O228  1  0.92789046  0.12499866  0.13935778  1
  O  O229  1  0.91059341  0.12394548  0.48388445  1
  O  O230  1  0.91756874  0.12774494  0.81552480  1
  O  O231  1  0.92061137  0.63627393  0.15396632  1
  O  O232  1  0.92467628  0.63685735  0.48750290  1
  O  O233  1  0.91769056  0.63454853  0.81817415  1
  O  O234  1  0.37180724  0.07743869  0.01839940  1
  O  O235  1  0.36919353  0.07351266  0.35181663  1
  O  O236  1  0.36609641  0.08147770  0.67997988  1
  O  O237  1  0.36885254  0.57851520  0.01478246  1
  O  O238  1  0.36507226  0.58325225  0.34789590  1
  O  O239  1  0.37456337  0.57811284  0.68436258  1
  O  O240  1  0.85803194  0.08247925  0.00722184  1
  O  O241  1  0.85966904  0.08191335  0.34815126  1
  O  O242  1  0.87078794  0.07845161  0.67999181  1
  O  O243  1  0.86546700  0.58637635  0.01857391  1
  O  O244  1  0.87699258  0.59312514  0.35033534  1
  O  O245  1  0.87206608  0.58227065  0.68233323  1
  O  O246  1  0.07698539  0.37068165  0.18393612  1
  O  O247  1  0.08140592  0.35998650  0.51054712  1
  O  O248  1  0.08502364  0.36249190  0.84792167  1
  O  O249  1  0.08714527  0.87125982  0.18636676  1
  O  O250  1  0.08295608  0.86866279  0.51727371  1
  O  O251  1  0.08325249  0.86486302  0.84421081  1
  O  O252  1  0.56966912  0.37154500  0.18197819  1
  O  O253  1  0.58770672  0.36508576  0.51838443  1
  O  O254  1  0.57145755  0.37360407  0.85390154  1
  O  O255  1  0.58526753  0.86234294  0.18010964  1
  O  O256  1  0.58215798  0.86782630  0.51329813  1
  O  O257  1  0.57845656  0.86472231  0.84325273  1
  O  O258  1  0.12952897  0.41818350  0.32011399  1
  O  O259  1  0.12450647  0.43048716  0.64362197  1
  O  O260  1  0.13587914  0.41521554  0.98522353  1
  O  O261  1  0.13709057  0.92009017  0.32233728  1
  O  O262  1  0.13330656  0.91650808  0.65326129  1
  O  O263  1  0.13266508  0.90931662  0.98008399  1
  O  O264  1  0.62790829  0.42825675  0.31534407  1
  O  O265  1  0.63284018  0.42387539  0.65560570  1
  O  O266  1  0.63034942  0.42188203  0.98805786  1
  O  O267  1  0.63259628  0.91418004  0.31752320  1
  O  O268  1  0.63236744  0.91735858  0.64942105  1
  O  O269  1  0.62960610  0.91399759  0.98034970  1
  O  O270  1  0.03206883  0.20910510  0.10667859  1
  O  O271  1  0.02271989  0.18461029  0.42709366  1
  O  O272  1  0.03456783  0.19570741  0.77746541  1
  O  O273  1  0.03867141  0.69664405  0.10314777  1
  O  O274  1  0.03289029  0.70405345  0.43832548  1
  O  O275  1  0.02747371  0.69644968  0.76924589  1
  O  O276  1  0.53321384  0.21085796  0.10238428  1
  O  O277  1  0.54725181  0.18817343  0.45013618  1
  O  O278  1  0.53050476  0.20199353  0.77133988  1
  O  O279  1  0.53280661  0.69957449  0.10201555  1
  O  O280  1  0.53325253  0.69884059  0.43440694  1
  O  O281  1  0.53108979  0.70154471  0.76551193  1
  O  O282  1  0.29998826  0.46713372  0.06291796  1
  O  O283  1  0.29126867  0.47680221  0.39421993  1
  O  O284  1  0.29893915  0.46738857  0.73193331  1
  O  O285  1  0.30389264  0.95621136  0.06027764  1
  O  O286  1  0.30192931  0.96342941  0.39642046  1
  O  O287  1  0.29839893  0.96823419  0.72979226  1
  O  O288  1  0.80323124  0.46808361  0.06619436  1
  O  O289  1  0.80478738  0.46322316  0.40037098  1
  O  O290  1  0.80451435  0.47451671  0.72844634  1
  O  O291  1  0.80059087  0.96725597  0.06077432  1
  O  O292  1  0.79895601  0.96647326  0.39504139  1
  O  O293  1  0.80003438  0.96882308  0.72742222  1
  O  O294  1  0.45557429  0.30871141  0.21877365  1
  O  O295  1  0.46092065  0.29900289  0.56803939  1
  O  O296  1  0.46711311  0.29605899  0.89826516  1
  O  O297  1  0.46968861  0.79978014  0.22847966  1
  O  O298  1  0.47240673  0.80696484  0.56269800  1
  O  O299  1  0.46879068  0.80128376  0.89622589  1
  O  O300  1  0.96849089  0.28583513  0.22784869  1
  O  O301  1  0.96891442  0.30719941  0.56567502  1
  O  O302  1  0.97368998  0.29074968  0.89323280  1
  O  O303  1  0.97197075  0.80777382  0.23798794  1
  O  O304  1  0.97136781  0.80455752  0.56549931  1
  O  O305  1  0.96795104  0.80219673  0.89125891  1
  O  O306  1  0.20171574  0.03209531  0.27494984  1
  O  O307  1  0.20428982  0.02425929  0.60635565  1
  O  O308  1  0.19864578  0.02667906  0.93402241  1
  O  O309  1  0.19534194  0.53654064  0.26997423  1
  O  O310  1  0.20819233  0.53427445  0.60467918  1
  O  O311  1  0.19914951  0.52886232  0.93489514  1
  O  O312  1  0.69983336  0.02385515  0.27089970  1
  O  O313  1  0.69962799  0.02755190  0.60373366  1
  O  O314  1  0.69647935  0.02944415  0.92932842  1
  O  O315  1  0.70155262  0.54037859  0.27287370  1
  O  O316  1  0.70721263  0.53134099  0.60248984  1
  O  O317  1  0.68668598  0.54189077  0.93670383  1
  O  O318  1  0.06963364  0.08583325  0.04410850  1
  O  O319  1  0.07496591  0.07238505  0.36253195  1
  O  O320  1  0.08159795  0.08017750  0.70741661  1
  O  O321  1  0.09025246  0.58849041  0.03009360  1
  O  O322  1  0.08746470  0.59400685  0.37107701  1
  O  O323  1  0.08073146  0.58409142  0.70238635  1
  O  O324  1  0.59128914  0.10046154  0.04313570  1
  O  O325  1  0.57879754  0.07757153  0.36313824  1
  O  O326  1  0.58153215  0.08941667  0.70169529  1
  O  O327  1  0.59285839  0.59067599  0.03894735  1
  O  O328  1  0.59466867  0.59062533  0.37100721  1
  O  O329  1  0.59279027  0.59392176  0.70406620  1
  O  O330  1  0.40597032  0.40361834  0.12563726  1
  O  O331  1  0.40850126  0.42603530  0.45341362  1
  O  O332  1  0.40976530  0.41329895  0.80095367  1
  O  O333  1  0.41488095  0.90902258  0.13461864  1
  O  O334  1  0.41728812  0.91573458  0.46405670  1
  O  O335  1  0.40988860  0.91395013  0.79387969  1
  O  O336  1  0.91499883  0.41213323  0.12484370  1
  O  O337  1  0.90893022  0.39802719  0.46201038  1
  O  O338  1  0.91650677  0.41875758  0.79186553  1
  O  O339  1  0.91545303  0.92194961  0.12999949  1
  O  O340  1  0.91149559  0.91722135  0.46627729  1
  O  O341  1  0.91498310  0.92164634  0.79736417  1
  O  O342  1  0.42140520  0.42528273  0.29712302  1
  O  O343  1  0.40849928  0.41175571  0.63277770  1
  O  O344  1  0.41275086  0.40736341  0.96112832  1
  O  O345  1  0.41295345  0.90963901  0.29596373  1
  O  O346  1  0.42011186  0.91853272  0.63204250  1
  O  O347  1  0.41163508  0.91043900  0.96359388  1
  O  O348  1  0.91459508  0.39577849  0.29576151  1
  O  O349  1  0.92053283  0.41672550  0.63973349  1
  O  O350  1  0.92240167  0.40613461  0.95338983  1
  O  O351  1  0.91518828  0.91729567  0.30221336  1
  O  O352  1  0.91672761  0.91665490  0.63013242  1
  O  O353  1  0.91113535  0.91455945  0.95573402  1
  O  O354  1  0.08903180  0.08469854  0.20723764  1
  O  O355  1  0.08471507  0.06553233  0.53905976  1
  O  O356  1  0.08587535  0.07946007  0.87082875  1
  O  O357  1  0.08957284  0.59696754  0.20336762  1
  O  O358  1  0.09133060  0.58445366  0.54521036  1
  O  O359  1  0.09155402  0.58966029  0.87006338  1
  O  O360  1  0.58293536  0.07376151  0.20624727  1
  O  O361  1  0.58410671  0.07809353  0.54026212  1
  O  O362  1  0.58802466  0.08888469  0.86626823  1
  O  O363  1  0.58720972  0.58281500  0.19916845  1
  O  O364  1  0.59914029  0.59019416  0.53883529  1
  O  O365  1  0.58383623  0.59080911  0.85547466  1
  O  O366  1  0.13676513  0.21136987  0.05457112  1
  O  O367  1  0.12830271  0.20393769  0.37690303  1
  O  O368  1  0.13449604  0.21193906  0.72180736  1
  O  O369  1  0.14262840  0.72350143  0.05564987  1
  O  O370  1  0.14183940  0.72848633  0.39630593  1
  O  O371  1  0.13800338  0.71749163  0.72728331  1
  O  O372  1  0.63908193  0.23279966  0.05473965  1
  O  O373  1  0.63532580  0.21178387  0.38599396  1
  O  O374  1  0.63814774  0.22281936  0.72574979  1
  O  O375  1  0.64062945  0.72609668  0.05844422  1
  O  O376  1  0.64156745  0.72614739  0.39259524  1
  O  O377  1  0.64211104  0.72850578  0.72591245  1
  O  O378  1  0.26965461  0.35812019  0.10335796  1
  O  O379  1  0.27938150  0.37565638  0.45127741  1
  O  O380  1  0.27506787  0.35874440  0.77500875  1
  O  O381  1  0.28043381  0.85456625  0.11136058  1
  O  O382  1  0.28525552  0.86043009  0.44890765  1
  O  O383  1  0.27752281  0.85942187  0.77421185  1
  O  O384  1  0.78357674  0.36267634  0.11398045  1
  O  O385  1  0.77185203  0.35854404  0.44491105  1
  O  O386  1  0.78462839  0.36793486  0.77553509  1
  O  O387  1  0.78272208  0.86233248  0.10916502  1
  O  O388  1  0.77761684  0.86213996  0.44400544  1
  O  O389  1  0.78296687  0.85990469  0.77241149  1
  O  O390  1  0.35140038  0.29801450  0.26973061  1
  O  O391  1  0.36255615  0.28007362  0.62501960  1
  O  O392  1  0.35643651  0.27397154  0.93941174  1
  O  O393  1  0.36329322  0.77423863  0.27338936  1
  O  O394  1  0.36580018  0.78375178  0.60854225  1
  O  O395  1  0.36130383  0.77487549  0.93940357  1
  O  O396  1  0.85886823  0.26333270  0.27111323  1
  O  O397  1  0.85957050  0.28244170  0.60777353  1
  O  O398  1  0.86567393  0.27580052  0.93992061  1
  O  O399  1  0.86402529  0.78276856  0.28227579  1
  O  O400  1  0.86218132  0.78306177  0.60913635  1
  O  O401  1  0.86623529  0.78058000  0.94282532  1
  O  O402  1  0.22219725  0.13099100  0.21950377  1
  O  O403  1  0.21279684  0.13608083  0.56344283  1
  O  O404  1  0.21816708  0.13444078  0.88755915  1
  O  O405  1  0.22615666  0.64152782  0.22542895  1
  O  O406  1  0.22069195  0.64036484  0.55529285  1
  O  O407  1  0.22747248  0.63466690  0.89018524  1
  O  O408  1  0.71369800  0.13267390  0.22540314  1
  O  O409  1  0.71605575  0.13919577  0.56230497  1
  O  O410  1  0.72200445  0.13754791  0.88515637  1
  O  O411  1  0.71877336  0.64545006  0.22411246  1
  O  O412  1  0.73309460  0.64015683  0.56028909  1
  O  O413  1  0.72226284  0.64335641  0.89018476  1
  O  O414  1  0.48525531  0.32786059  0.03177226  1
  O  O415  1  0.48707682  0.32988992  0.35180789  1
  O  O416  1  0.49440484  0.34197875  0.70395318  1
  O  O417  1  0.49132972  0.83024699  0.02907318  1
  O  O418  1  0.49325939  0.83096907  0.36182625  1
  O  O419  1  0.49585678  0.83739541  0.69706229  1
  O  O420  1  0.99582285  0.32947088  0.02802413  1
  O  O421  1  0.98987527  0.31197437  0.36059577  1
  O  O422  1  0.99093343  0.32671959  0.69753729  1
  O  O423  1  0.99820696  0.84396166  0.02637958  1
  O  O424  1  0.99395653  0.83999922  0.37138231  1
  O  O425  1  0.99232604  0.83698316  0.69849755  1
  O  O426  1  0.16078317  -0.00217466  0.13921558  1
  O  O427  1  0.17298016  0.00571175  0.47282296  1
  O  O428  1  0.16327201  0.00331929  0.79986277  1
  O  O429  1  0.16625062  0.51279877  0.13650436  1
  O  O430  1  0.16499894  0.50900215  0.46959415  1
  O  O431  1  0.16554776  0.50617423  0.80085008  1
  O  O432  1  0.66214686  0.00124361  0.13644706  1
  O  O433  1  0.66606581  0.00878704  0.47036331  1
  O  O434  1  0.66185408  0.00826486  0.79592811  1
  O  O435  1  0.67632948  0.51202820  0.13944345  1
  O  O436  1  0.67726001  0.51096767  0.46965670  1
  O  O437  1  0.67088687  0.51143489  0.80380311  1
  O  O438  1  -0.00355233  0.14852961  0.29174620  1
  O  O439  1  -0.00027022  0.15638029  0.64120527  1
  O  O440  1  0.00453835  0.16456668  0.96946905  1
  O  O441  1  0.01128657  0.67558548  0.30519407  1
  O  O442  1  0.00777907  0.66828646  0.63703666  1
  O  O443  1  0.01058945  0.67253053  0.97042484  1
  O  O444  1  0.49649208  0.16525189  0.31552557  1
  O  O445  1  0.50559322  0.17145379  0.63776465  1
  O  O446  1  0.50951535  0.17172176  0.96821769  1
  O  O447  1  0.51263629  0.66659055  0.30182602  1
  O  O448  1  0.51379336  0.67143582  0.63388292  1
  O  O449  1  0.51191250  0.66602815  0.96900821  1
  O  O450  1  0.32943093  0.48639448  0.19462336  1
  O  O451  1  0.33637166  0.50624575  0.53023304  1
  O  O452  1  0.32852065  0.48945871  0.86529571  1
  O  O453  1  0.33266950  0.98826954  0.19468535  1
  O  O454  1  0.33909765  0.99302876  0.53209478  1
  O  O455  1  0.33029410  0.99006889  0.86355150  1
  O  O456  1  0.84656812  0.49341359  0.20164526  1
  O  O457  1  0.84034792  0.48520237  0.53418750  1
  O  O458  1  0.84019004  0.49984343  0.86233356  1
  O  O459  1  0.83198806  0.99258219  0.19602841  1
  O  O460  1  0.83034795  0.99432652  0.52988644  1
  O  O461  1  0.82730497  0.99222548  0.86033324  1
