# generated using pymatgen
data_Na31Fe20(SO4)36
_symmetry_space_group_name_H-M   'P 1'
_cell_length_a   18.06728941
_cell_length_b   18.06923176
_cell_length_c   19.69769840
_cell_angle_alpha   107.58327276
_cell_angle_beta   107.59431062
_cell_angle_gamma   90.70502863
_symmetry_Int_Tables_number   1
_chemical_formula_structural   Na31Fe20(SO4)36
_chemical_formula_sum   'Na62 Fe40 S72 O288'
_cell_volume   5805.23017455
_cell_formula_units_Z   2
loop_
 _symmetry_equiv_pos_site_id
 _symmetry_equiv_pos_as_xyz
  1  'x, y, z'
loop_
 _atom_site_type_symbol
 _atom_site_label
 _atom_site_symmetry_multiplicity
 _atom_site_fract_x
 _atom_site_fract_y
 _atom_site_fract_z
 _atom_site_occupancy
  Na  Na0  1  0.13738268  0.36112075  0.07943534  1
  Na  Na1  1  0.13530324  0.37092779  0.42177858  1
  Na  Na2  1  0.13928958  0.36200529  0.74826203  1
  Na  Na3  1  0.12416623  0.85837540  0.07160036  1
  Na  Na4  1  0.14785078  0.85224682  0.41826776  1
  Na  Na5  1  0.12484946  0.85256182  0.73273521  1
  Na  Na6  1  0.63788922  0.37030140  0.08552106  1
  Na  Na7  1  0.63023839  0.36806900  0.41729222  1
  Na  Na8  1  0.64012046  0.36741048  0.76161542  1
  Na  Na9  1  0.64522598  0.87044202  0.09401833  1
  Na  Na10  1  0.63386946  0.86693810  0.41590603  1
  Na  Na11  1  0.63689260  0.86806401  0.74871111  1
  Na  Na12  1  0.36198889  0.13483793  0.24808218  1
  Na  Na13  1  0.37397465  0.14676267  0.59613063  1
  Na  Na14  1  0.36897416  0.13333311  0.91593936  1
  Na  Na15  1  0.36090622  0.64551363  0.25919966  1
  Na  Na16  1  0.36909802  0.64568440  0.59039046  1
  Na  Na17  1  0.36062586  0.63474279  0.91186501  1
  Na  Na18  1  0.86650096  0.11643403  0.24530386  1
  Na  Na19  1  0.86973594  0.13088759  0.58592563  1
  Na  Na20  1  0.86541022  0.12434827  0.91030656  1
  Na  Na21  1  0.86261185  0.63102784  0.24672797  1
  Na  Na22  1  0.86930280  0.64530844  0.59072034  1
  Na  Na23  1  0.86286852  0.63353891  0.91422241  1
  Na  Na24  1  0.49015821  0.50736642  0.74488492  1
  Na  Na25  1  0.51876615  -0.03343057  0.80287540  1
  Na  Na26  1  0.97971300  0.00145672  0.09764785  1
  Na  Na27  1  0.53999860  -0.01577768  0.02463796  1
  Na  Na28  1  0.96097042  0.50794409  0.07443087  1
  Na  Na29  1  0.48887850  0.01428996  0.41711507  1
  Na  Na30  1  0.99506260  0.53413176  0.75242597  1
  Na  Na31  1  0.49197492  0.51130459  0.07975103  1
  Na  Na32  1  0.98445045  -0.00655866  0.77764776  1
  Na  Na33  1  -0.01388732  0.53911044  0.53036254  1
  Na  Na34  1  0.02101455  0.98847166  0.56685643  1
  Na  Na35  1  0.51923537  0.99131233  0.23758621  1
  Na  Na36  1  0.51073098  0.45456071  0.90281415  1
  Na  Na37  1  0.50072168  0.49258885  0.26205256  1
  Na  Na38  1  0.50219001  0.50155601  0.56482030  1
  Na  Na39  1  0.00429414  0.49069447  0.26353180  1
  Na  Na40  1  -0.01317561  0.51184472  0.91426246  1
  Na  Na41  1  0.52444809  0.98532819  0.60661128  1
  Na  Na42  1  0.23502621  0.74102730  0.00007035  1
  Na  Na43  1  0.75153013  0.75047526  0.66413422  1
  Na  Na44  1  0.23919992  0.24308565  0.34654075  1
  Na  Na45  1  0.76355190  0.76441317  0.32635527  1
  Na  Na46  1  0.74107266  0.23692358  0.33761456  1
  Na  Na47  1  0.26669065  0.26348026  0.65846891  1
  Na  Na48  1  0.74539499  0.24023153  0.67814155  1
  Na  Na49  1  0.74027517  0.23675461  0.00650837  1
  Na  Na50  1  0.75247008  0.75286722  -0.00540310  1
  Na  Na51  1  0.26024068  0.76029609  0.65138510  1
  Na  Na52  1  0.74517871  0.24126376  0.84307786  1
  Na  Na53  1  0.25245905  0.75631553  0.82312073  1
  Na  Na54  1  0.25632868  0.25800836  0.15751315  1
  Na  Na55  1  0.25235489  0.24210510  0.84068891  1
  Na  Na56  1  0.74612163  0.24161875  0.50689983  1
  Na  Na57  1  0.23459711  0.74034671  0.17722215  1
  Na  Na58  1  0.73844749  0.23334974  0.17209508  1
  Na  Na59  1  0.75489896  0.75769319  0.49405420  1
  Na  Na60  1  0.76678197  0.76666668  0.16278844  1
  Na  Na61  1  0.74639698  0.75103420  0.83179419  1
  Fe  Fe62  1  0.96977419  0.79913531  0.45825354  1
  Fe  Fe63  1  0.96742195  0.30707627  0.11571141  1
  Fe  Fe64  1  0.96548238  0.30660106  0.45297406  1
  Fe  Fe65  1  0.46318164  0.80358765  0.11640745  1
  Fe  Fe66  1  0.97218316  0.79947257  0.79698682  1
  Fe  Fe67  1  0.96521004  0.81171174  0.13052828  1
  Fe  Fe68  1  0.45882802  0.81243930  0.45239193  1
  Fe  Fe69  1  0.45845702  0.31032454  0.11458295  1
  Fe  Fe70  1  0.96858478  0.30919111  0.78707673  1
  Fe  Fe71  1  0.46184794  0.30793380  0.45072230  1
  Fe  Fe72  1  0.70554826  0.02772724  0.37748857  1
  Fe  Fe73  1  0.69231704  0.53613409  0.38183634  1
  Fe  Fe74  1  0.19365601  0.54131480  0.38591560  1
  Fe  Fe75  1  0.18793859  0.53352389  0.71184803  1
  Fe  Fe76  1  0.18984821  0.03443563  0.38004286  1
  Fe  Fe77  1  0.69996013  0.53060877  0.04301722  1
  Fe  Fe78  1  0.18812830  0.53271399  0.04555283  1
  Fe  Fe79  1  0.18854545  0.03627733  0.04358904  1
  Fe  Fe80  1  0.69368309  0.53211876  0.71431975  1
  Fe  Fe81  1  0.19626556  0.03454566  0.71620510  1
  Fe  Fe82  1  0.53519111  0.19808823  0.87572384  1
  Fe  Fe83  1  0.53136653  0.69284441  0.54394370  1
  Fe  Fe84  1  0.03860121  0.69010232  0.22135506  1
  Fe  Fe85  1  0.04013173  0.19257894  0.88408302  1
  Fe  Fe86  1  0.53335530  0.69173544  0.21308067  1
  Fe  Fe87  1  0.03562232  0.19453215  0.21613146  1
  Fe  Fe88  1  0.52971428  0.69894186  0.87513353  1
  Fe  Fe89  1  0.52959254  0.19408259  0.20876225  1
  Fe  Fe90  1  0.03749602  0.18874638  0.54331438  1
  Fe  Fe91  1  0.53336706  0.19669383  0.54987735  1
  Fe  Fe92  1  0.30697870  0.46371417  0.94782327  1
  Fe  Fe93  1  0.30578940  0.96516456  0.28452524  1
  Fe  Fe94  1  0.30758747  0.46993272  0.28757965  1
  Fe  Fe95  1  0.30850208  0.96583040  0.95201752  1
  Fe  Fe96  1  0.80803413  0.46370702  0.61835698  1
  Fe  Fe97  1  0.79711054  0.96990398  0.96058834  1
  Fe  Fe98  1  0.30678989  0.46214150  0.61559387  1
  Fe  Fe99  1  0.80835540  0.46381851  0.28785348  1
  Fe  Fe100  1  0.31107391  0.96508616  0.61805333  1
  Fe  Fe101  1  0.79916751  0.96898834  0.62935070  1
  S  S102  1  0.35579453  0.14143157  0.08266285  1
  S  S103  1  0.35852637  0.14009526  0.41417370  1
  S  S104  1  0.36108834  0.13917518  0.75017941  1
  S  S105  1  0.35800803  0.63879173  0.08296995  1
  S  S106  1  0.35852549  0.64316107  0.41551498  1
  S  S107  1  0.35628523  0.63828940  0.74907950  1
  S  S108  1  0.86185773  0.14194493  0.08216071  1
  S  S109  1  0.86129377  0.14392957  0.41887510  1
  S  S110  1  0.86493278  0.14145403  0.75272475  1
  S  S111  1  0.85952265  0.64089218  0.08394424  1
  S  S112  1  0.85516972  0.63870621  0.41756492  1
  S  S113  1  0.85804876  0.63719925  0.75012089  1
  S  S114  1  0.14093929  0.36249375  0.25162053  1
  S  S115  1  0.13947922  0.35760524  0.58241346  1
  S  S116  1  0.14434237  0.35631842  0.91484187  1
  S  S117  1  0.14285491  0.85898343  0.25098343  1
  S  S118  1  0.14149325  0.86387562  0.58289988  1
  S  S119  1  0.14270965  0.86153410  0.91788091  1
  S  S120  1  0.63774907  0.36251714  0.25068726  1
  S  S121  1  0.64055972  0.35969274  0.58033612  1
  S  S122  1  0.64754941  0.35900795  0.91909328  1
  S  S123  1  0.63830152  0.85619729  0.24957735  1
  S  S124  1  0.63762340  0.85571262  0.57962004  1
  S  S125  1  0.63932406  0.85880108  0.91629830  1
  S  S126  1  0.06867826  0.17143319  0.04546784  1
  S  S127  1  0.06829979  0.17294552  0.37561054  1
  S  S128  1  0.07205474  0.16971974  0.70889256  1
  S  S129  1  0.06188846  0.66565524  0.04498374  1
  S  S130  1  0.06211585  0.66438448  0.37180304  1
  S  S131  1  0.06365448  0.66618627  0.70784527  1
  S  S132  1  0.56524071  0.18240112  0.04518124  1
  S  S133  1  0.56237471  0.16957243  0.37438378  1
  S  S134  1  0.57246476  0.17292259  0.71040183  1
  S  S135  1  0.56773928  0.66763501  0.04069495  1
  S  S136  1  0.56577375  0.66947398  0.37449243  1
  S  S137  1  0.56658569  0.66345776  0.70403471  1
  S  S138  1  0.33126787  0.43822466  0.12700479  1
  S  S139  1  0.32967243  0.43527356  0.45495881  1
  S  S140  1  0.33204169  0.43823304  0.78854953  1
  S  S141  1  0.32862502  0.93095739  0.12319341  1
  S  S142  1  0.33737482  0.94118326  0.46026745  1
  S  S143  1  0.32523236  0.92877605  0.78759783  1
  S  S144  1  0.83350192  0.43263851  0.12678676  1
  S  S145  1  0.82620817  0.42982413  0.45446766  1
  S  S146  1  0.83306640  0.43378468  0.78874690  1
  S  S147  1  0.82928455  0.93372133  0.12598967  1
  S  S148  1  0.82995823  0.92883745  0.46355741  1
  S  S149  1  0.82765363  0.92404251  0.79591999  1
  S  S150  1  0.43108806  0.33131926  0.28880024  1
  S  S151  1  0.44112585  0.33921222  0.62563605  1
  S  S152  1  0.43637667  0.33600471  0.96010805  1
  S  S153  1  0.43111783  0.83143498  0.28834005  1
  S  S154  1  0.43831293  0.83506929  0.62446702  1
  S  S155  1  0.43130395  0.82809873  0.95784519  1
  S  S156  1  0.93056966  0.32679426  0.28890591  1
  S  S157  1  0.93440407  0.33173177  0.62529813  1
  S  S158  1  0.94111978  0.33276022  0.95543400  1
  S  S159  1  0.93430421  0.82301492  0.29211331  1
  S  S160  1  0.92750620  0.83459110  0.63112890  1
  S  S161  1  0.92449129  0.83099863  0.96191842  1
  S  S162  1  0.16994508  0.06780191  0.20899382  1
  S  S163  1  0.17619089  0.07055684  0.54459932  1
  S  S164  1  0.17036616  0.06631957  0.87358260  1
  S  S165  1  0.16795304  0.56283517  0.20617511  1
  S  S166  1  0.17868297  0.56782921  0.54693503  1
  S  S167  1  0.16563886  0.55845880  0.87685417  1
  S  S168  1  0.65734763  0.06650795  0.20698257  1
  S  S169  1  0.67098532  0.06827812  0.53961936  1
  S  S170  1  0.67140255  0.06615296  0.87781401  1
  S  S171  1  0.66857361  0.56762901  0.20888803  1
  S  S172  1  0.67033622  0.56677923  0.54266269  1
  S  S173  1  0.66470144  0.57007332  0.87339255  1
  O  O174  1  0.36287627  0.22206748  0.07874755  1
  O  O175  1  0.36852341  0.21774692  0.40316633  1
  O  O176  1  0.36444577  0.21350881  0.73600235  1
  O  O177  1  0.36597503  0.71725255  0.07369060  1
  O  O178  1  0.37093549  0.71988365  0.40467481  1
  O  O179  1  0.35939750  0.71307200  0.73569198  1
  O  O180  1  0.87697485  0.21737860  0.06834340  1
  O  O181  1  0.86684022  0.22708912  0.41673162  1
  O  O182  1  0.87975236  0.21833724  0.74074667  1
  O  O183  1  0.86740837  0.72432504  0.08497823  1
  O  O184  1  0.86629908  0.71958301  0.41372950  1
  O  O185  1  0.86828072  0.71734031  0.74473658  1
  O  O186  1  0.27711202  0.12886478  0.09121980  1
  O  O187  1  0.27817120  0.13076796  0.41683082  1
  O  O188  1  0.28358243  0.12618632  0.76236653  1
  O  O189  1  0.27889672  0.62919593  0.09025962  1
  O  O190  1  0.27945652  0.63399338  0.42110755  1
  O  O191  1  0.27984987  0.62512682  0.76229158  1
  O  O192  1  0.78572715  0.14031390  0.09294154  1
  O  O193  1  0.78179843  0.13322635  0.42782491  1
  O  O194  1  0.78969676  0.13958706  0.76540153  1
  O  O195  1  0.78057389  0.63059228  0.09353399  1
  O  O196  1  0.77285765  0.63175620  0.42116557  1
  O  O197  1  0.77689065  0.62910750  0.75535049  1
  O  O198  1  0.13209846  0.28380283  0.26038349  1
  O  O199  1  0.12957053  0.27867540  0.59105422  1
  O  O200  1  0.13643531  0.27719425  0.92152467  1
  O  O201  1  0.13586485  0.77860774  0.25518178  1
  O  O202  1  0.13451773  0.79076053  0.59828880  1
  O  O203  1  0.13301311  0.78713658  0.93067376  1
  O  O204  1  0.62876655  0.28322695  0.25834679  1
  O  O205  1  0.63352670  0.27888277  0.58468904  1
  O  O206  1  0.63430560  0.28062962  0.92980376  1
  O  O207  1  0.62499263  0.77831268  0.26015886  1
  O  O208  1  0.63124922  0.77376658  0.58315202  1
  O  O209  1  0.63206359  0.77425864  0.91301833  1
  O  O210  1  0.21967643  0.37153240  0.24289118  1
  O  O211  1  0.21863314  0.36582906  0.57521472  1
  O  O212  1  0.22261555  0.36652331  0.90523062  1
  O  O213  1  0.22105816  0.87041465  0.24071437  1
  O  O214  1  0.21952270  0.87616160  0.57345443  1
  O  O215  1  0.22211772  0.87149294  0.90926285  1
  O  O216  1  0.71624910  0.37041427  0.24118111  1
  O  O217  1  0.71696787  0.36889983  0.56674749  1
  O  O218  1  0.72563858  0.36591624  0.91323264  1
  O  O219  1  0.71490862  0.86115744  0.23988508  1
  O  O220  1  0.71742695  0.86769009  0.57350004  1
  O  O221  1  0.72468177  0.87058718  0.91808907  1
  O  O222  1  0.41475066  0.13272458  0.15058937  1
  O  O223  1  0.41625688  0.13439676  0.48416578  1
  O  O224  1  0.42166422  0.13681478  0.82038348  1
  O  O225  1  0.41738714  0.63207665  0.15187345  1
  O  O226  1  0.41623815  0.63569955  0.48500041  1
  O  O227  1  0.41812825  0.63497703  0.81868898  1
  O  O228  1  0.92357532  0.13166132  0.14832203  1
  O  O229  1  0.92007604  0.13825145  0.48896885  1
  O  O230  1  0.92760762  0.12993727  0.81793500  1
  O  O231  1  0.91900572  0.62729749  0.14942811  1
  O  O232  1  0.90949947  0.62702346  0.48405388  1
  O  O233  1  0.91511894  0.62387889  0.81453789  1
  O  O234  1  0.36407188  0.08463109  0.01374944  1
  O  O235  1  0.37176378  0.07950754  0.34854670  1
  O  O236  1  0.37010652  0.07551964  0.68504520  1
  O  O237  1  0.36887627  0.57927821  0.01643219  1
  O  O238  1  0.36850114  0.58211633  0.34868739  1
  O  O239  1  0.36806508  0.57489122  0.68460359  1
  O  O240  1  0.86632265  0.07801505  0.01372641  1
  O  O241  1  0.86821894  0.08937775  0.35128967  1
  O  O242  1  0.86720363  0.07947360  0.68342745  1
  O  O243  1  0.86584854  0.58737678  0.01419525  1
  O  O244  1  0.86065400  0.58206339  0.34690010  1
  O  O245  1  0.86365925  0.58049357  0.67861737  1
  O  O246  1  0.08112512  0.36977269  0.18337766  1
  O  O247  1  0.08056372  0.36512040  0.51382721  1
  O  O248  1  0.08470976  0.36587862  0.84757070  1
  O  O249  1  0.08275785  0.86898443  0.18424963  1
  O  O250  1  0.08096772  0.86743255  0.51257281  1
  O  O251  1  0.08394577  0.86751533  0.84832115  1
  O  O252  1  0.57750976  0.37374632  0.18523757  1
  O  O253  1  0.57812028  0.37144150  0.51577785  1
  O  O254  1  0.58723747  0.36837212  0.85395460  1
  O  O255  1  0.57670434  0.86550747  0.18279650  1
  O  O256  1  0.57933930  0.86266351  0.50966993  1
  O  O257  1  0.58852311  0.87145749  0.84864193  1
  O  O258  1  0.13226873  0.42236970  0.31890300  1
  O  O259  1  0.13031622  0.41614814  0.65002032  1
  O  O260  1  0.13735366  0.41428919  0.98392844  1
  O  O261  1  0.13876917  0.91594586  0.32169373  1
  O  O262  1  0.12859220  0.92923102  0.64601358  1
  O  O263  1  0.13535170  0.92520358  0.98454068  1
  O  O264  1  0.63120727  0.42121187  0.32016003  1
  O  O265  1  0.63718880  0.41599282  0.65129704  1
  O  O266  1  0.63876917  0.41911803  0.98890009  1
  O  O267  1  0.63160107  0.91694416  0.31779605  1
  O  O268  1  0.62706952  0.91153491  0.64587586  1
  O  O269  1  0.62876315  0.90834888  0.98572249  1
  O  O270  1  0.03469116  0.20529604  0.10831101  1
  O  O271  1  0.02936802  0.20188921  0.43558828  1
  O  O272  1  0.03718071  0.19893180  0.77070863  1
  O  O273  1  0.03246381  0.69887874  0.11092330  1
  O  O274  1  0.02740286  0.69605191  0.43179702  1
  O  O275  1  0.03044948  0.69735234  0.77030263  1
  O  O276  1  0.52392213  0.21383479  0.10421621  1
  O  O277  1  0.52850245  0.20198611  0.43730077  1
  O  O278  1  0.53760817  0.19927186  0.77131002  1
  O  O279  1  0.52949708  0.69643295  0.10165492  1
  O  O280  1  0.52863512  0.69761470  0.43424163  1
  O  O281  1  0.53116535  0.68806985  0.76365255  1
  O  O282  1  0.29947069  0.46982482  0.06316160  1
  O  O283  1  0.29882904  0.47231286  0.39436408  1
  O  O284  1  0.28974965  0.46756662  0.72457276  1
  O  O285  1  0.30378667  0.96863176  0.06309163  1
  O  O286  1  0.30439514  0.97395852  0.39639628  1
  O  O287  1  0.29355896  0.96634004  0.72670477  1
  O  O288  1  0.80682340  0.47111161  0.06906175  1
  O  O289  1  0.79653636  0.46820179  0.39452018  1
  O  O290  1  0.79892433  0.46460620  0.72259843  1
  O  O291  1  0.80860104  0.97064937  0.06429141  1
  O  O292  1  0.80448523  0.96754589  0.40553423  1
  O  O293  1  0.80576570  0.96408343  0.73883385  1
  O  O294  1  0.46779855  0.30078841  0.22781717  1
  O  O295  1  0.46833758  0.30042909  0.55774271  1
  O  O296  1  0.47332421  0.30720096  0.90183176  1
  O  O297  1  0.46684912  0.79923622  0.22704688  1
  O  O298  1  0.46925947  0.79907664  0.55841647  1
  O  O299  1  0.46855736  0.79970863  0.89945145  1
  O  O300  1  0.96794997  0.29773906  0.22811289  1
  O  O301  1  0.96969361  0.30301995  0.56376245  1
  O  O302  1  0.97801618  0.29467537  0.89500080  1
  O  O303  1  0.97554261  0.78867041  0.23297471  1
  O  O304  1  0.96329876  0.81716764  0.57099265  1
  O  O305  1  0.96197756  0.81107983  0.90343389  1
  O  O306  1  0.19890690  0.03076686  0.26983708  1
  O  O307  1  0.20731843  0.03521256  0.60614398  1
  O  O308  1  0.20261680  0.03286241  0.93640984  1
  O  O309  1  0.20026309  0.53070972  0.27014401  1
  O  O310  1  0.20708549  0.52552451  0.60522073  1
  O  O311  1  0.20546166  0.52522420  0.94010902  1
  O  O312  1  0.67977209  0.03705350  0.27239125  1
  O  O313  1  0.69617695  0.02885630  0.59677320  1
  O  O314  1  0.70450787  0.03033282  0.93973091  1
  O  O315  1  0.69663438  0.52962077  0.26881042  1
  O  O316  1  0.69953704  0.52931977  0.60300865  1
  O  O317  1  0.68627077  0.53612538  0.93465601  1
  O  O318  1  0.08556154  0.09103099  0.04428619  1
  O  O319  1  0.09273102  0.09551354  0.37572679  1
  O  O320  1  0.08844260  0.08715004  0.70082653  1
  O  O321  1  0.08325233  0.58406057  0.04363308  1
  O  O322  1  0.08637043  0.58492235  0.37291078  1
  O  O323  1  0.08730116  0.58591322  0.71045741  1
  O  O324  1  0.58451055  0.10487237  0.04499785  1
  O  O325  1  0.57470748  0.08662365  0.36728237  1
  O  O326  1  0.58987114  0.09239978  0.69715107  1
  O  O327  1  0.58307187  0.58498576  0.03508990  1
  O  O328  1  0.58594647  0.58820450  0.36911550  1
  O  O329  1  0.58298248  0.57894027  0.69186138  1
  O  O330  1  0.41466637  0.42285493  0.13237937  1
  O  O331  1  0.40970756  0.41383023  0.45572014  1
  O  O332  1  0.41368586  0.43334943  0.79002207  1
  O  O333  1  0.41033434  0.91080519  0.13236018  1
  O  O334  1  0.42138608  0.92774661  0.46431791  1
  O  O335  1  0.40291754  0.90828862  0.78949284  1
  O  O336  1  0.91742608  0.41661163  0.13399100  1
  O  O337  1  0.90708140  0.41152159  0.45811093  1
  O  O338  1  0.91454129  0.41446426  0.79005925  1
  O  O339  1  0.91223455  0.91436829  0.13587659  1
  O  O340  1  0.91034420  0.90626898  0.46977204  1
  O  O341  1  0.90951560  0.90459760  0.80735948  1
  O  O342  1  0.41304787  0.41225440  0.29088598  1
  O  O343  1  0.41604291  0.41736354  0.61881257  1
  O  O344  1  0.41631137  0.41834865  0.96163521  1
  O  O345  1  0.41757823  0.91470573  0.29422205  1
  O  O346  1  0.41637983  0.91414391  0.61976565  1
  O  O347  1  0.41298536  0.91016150  0.96416908  1
  O  O348  1  0.91292548  0.40827253  0.29276895  1
  O  O349  1  0.91575152  0.41357800  0.63184979  1
  O  O350  1  0.93250658  0.41381254  0.95667272  1
  O  O351  1  0.91573136  0.89970357  0.29116974  1
  O  O352  1  0.90837044  0.91751742  0.64962306  1
  O  O353  1  0.89968161  0.91217680  0.97379642  1
  O  O354  1  0.08853720  0.08690837  0.20312429  1
  O  O355  1  0.09406322  0.08665914  0.54155468  1
  O  O356  1  0.09001062  0.08710308  0.87299449  1
  O  O357  1  0.08530631  0.57776513  0.20084147  1
  O  O358  1  0.10212194  0.59077097  0.54598739  1
  O  O359  1  0.08435769  0.56552523  0.87525841  1
  O  O360  1  0.57567459  0.09107310  0.20003304  1
  O  O361  1  0.58888696  0.08882429  0.53195686  1
  O  O362  1  0.59587067  0.09540416  0.88524599  1
  O  O363  1  0.58450169  0.58167416  0.20102875  1
  O  O364  1  0.58960480  0.58623920  0.53845596  1
  O  O365  1  0.58221538  0.59010763  0.86034993  1
  O  O366  1  0.13940117  0.22260091  0.05896263  1
  O  O367  1  0.13436165  0.23017989  0.38964352  1
  O  O368  1  0.14406942  0.22101029  0.72515118  1
  O  O369  1  0.13340308  0.71652190  0.05733870  1
  O  O370  1  0.12740435  0.71575728  0.37519807  1
  O  O371  1  0.13407439  0.71740489  0.71967635  1
  O  O372  1  0.63690283  0.23725825  0.06679014  1
  O  O373  1  0.63634935  0.21894246  0.39158638  1
  O  O374  1  0.64346014  0.22784357  0.72759689  1
  O  O375  1  0.64016337  0.71941634  0.06008502  1
  O  O376  1  0.63536879  0.72280702  0.38931637  1
  O  O377  1  0.63858393  0.71429791  0.71936592  1
  O  O378  1  0.28288784  0.36745124  0.11655970  1
  O  O379  1  0.27649172  0.36618069  0.44081501  1
  O  O380  1  0.28947666  0.36282556  0.77787420  1
  O  O381  1  0.27414103  0.86110632  0.10575385  1
  O  O382  1  0.29127403  0.86896693  0.44808674  1
  O  O383  1  0.26911090  0.85972803  0.77123592  1
  O  O384  1  0.78384199  0.36012635  0.11132912  1
  O  O385  1  0.77237299  0.35996013  0.43777433  1
  O  O386  1  0.78262641  0.36267042  0.77584210  1
  O  O387  1  0.77647240  0.85956735  0.10082538  1
  O  O388  1  0.77396972  0.85795786  0.44338350  1
  O  O389  1  0.77269611  0.85270812  0.77474298  1
  O  O390  1  0.35974573  0.27968163  0.27296993  1
  O  O391  1  0.37432658  0.28869326  0.62055230  1
  O  O392  1  0.36652952  0.28526521  0.94898140  1
  O  O393  1  0.35855347  0.78232138  0.27196304  1
  O  O394  1  0.36975075  0.78427814  0.61503953  1
  O  O395  1  0.35956459  0.77647698  0.94283609  1
  O  O396  1  0.85932231  0.27490784  0.27289286  1
  O  O397  1  0.86321257  0.27959568  0.61014490  1
  O  O398  1  0.86833555  0.28451290  0.94064661  1
  O  O399  1  0.86321358  0.76638411  0.27162089  1
  O  O400  1  0.85557212  0.77964597  0.60909554  1
  O  O401  1  0.85574041  0.77342803  0.94261872  1
  O  O402  1  0.22266369  0.13961963  0.22732061  1
  O  O403  1  0.22620511  0.14199004  0.55900393  1
  O  O404  1  0.22254219  0.13450919  0.88393566  1
  O  O405  1  0.21743990  0.63366118  0.21804871  1
  O  O406  1  0.23655584  0.63460633  0.56449826  1
  O  O407  1  0.21178892  0.63327248  0.89216415  1
  O  O408  1  0.71263715  0.13578787  0.22242510  1
  O  O409  1  0.72505541  0.14005572  0.55944116  1
  O  O410  1  0.72830592  0.13367817  0.89106976  1
  O  O411  1  0.71808486  0.64088544  0.22765908  1
  O  O412  1  0.72379390  0.63692634  0.55847974  1
  O  O413  1  0.71969243  0.63932637  0.88906218  1
  O  O414  1  0.49483387  0.34811656  0.03704738  1
  O  O415  1  0.49004941  0.33409807  0.36158284  1
  O  O416  1  0.50741930  0.35535261  0.69422659  1
  O  O417  1  0.49014945  0.83245308  0.03267872  1
  O  O418  1  0.48967343  0.83210092  0.36084362  1
  O  O419  1  0.50249977  0.84637011  0.69417207  1
  O  O420  1  0.99831186  0.33404722  0.02981337  1
  O  O421  1  0.98960888  0.32929370  0.36145736  1
  O  O422  1  0.99490845  0.33266386  0.69679743  1
  O  O423  1  0.98405187  0.83217010  0.03468084  1
  O  O424  1  0.99022336  0.82096832  0.36488098  1
  O  O425  1  0.98559581  0.82763495  0.70113642  1
  O  O426  1  0.16857930  0.00908667  0.13681899  1
  O  O427  1  0.17298885  0.01033757  0.47228666  1
  O  O428  1  0.16071962  0.00361366  0.80075581  1
  O  O429  1  0.16689358  0.50089322  0.13521175  1
  O  O430  1  0.17542858  0.50823459  0.47304178  1
  O  O431  1  0.16736319  0.50145257  0.80446748  1
  O  O432  1  0.65136287  0.00406740  0.13761702  1
  O  O433  1  0.66830018  0.01243687  0.46440116  1
  O  O434  1  0.65530523  0.00542279  0.80488205  1
  O  O435  1  0.66961031  0.51065424  0.13649071  1
  O  O436  1  0.66766175  0.50738546  0.46999065  1
  O  O437  1  0.66559837  0.50879233  0.80204747  1
  O  O438  1  0.00727041  0.16566063  0.30189599  1
  O  O439  1  0.01231850  0.16920139  0.63693333  1
  O  O440  1  0.00858520  0.16818047  0.97317342  1
  O  O441  1  -0.00070394  0.64768114  0.29550105  1
  O  O442  1  0.00298703  0.65379440  0.63501332  1
  O  O443  1  -0.00009585  0.65766044  0.97481330  1
  O  O444  1  0.50409402  0.17290350  0.30352117  1
  O  O445  1  0.51215299  0.17927394  0.63941883  1
  O  O446  1  0.50911332  0.18338417  0.97241285  1
  O  O447  1  0.50555278  0.66416714  0.30074127  1
  O  O448  1  0.50723919  0.66387944  0.63152954  1
  O  O449  1  0.51005072  0.66875277  0.96893595  1
  O  O450  1  0.33590557  0.50042980  0.19912022  1
  O  O451  1  0.33781932  0.49566790  0.52849511  1
  O  O452  1  0.33099662  0.49655444  0.86126069  1
  O  O453  1  0.33016679  0.99118562  0.19564477  1
  O  O454  1  0.33991195  1.00272822  0.53158919  1
  O  O455  1  0.32714503  0.98908899  0.86059563  1
  O  O456  1  0.83629910  0.49018316  0.20152914  1
  O  O457  1  0.83049010  0.48946386  0.52763793  1
  O  O458  1  0.83930712  0.49673417  0.85782849  1
  O  O459  1  0.82284514  0.98901142  0.19369729  1
  O  O460  1  0.83201623  0.98527183  0.53795100  1
  O  O461  1  0.82334948  0.98065594  0.86867970  1
