# generated using pymatgen
data_Na31Fe20(SO4)36
_symmetry_space_group_name_H-M   'P 1'
_cell_length_a   18.08152622
_cell_length_b   18.07646563
_cell_length_c   19.72383039
_cell_angle_alpha   107.59793416
_cell_angle_beta   107.60197185
_cell_angle_gamma   90.72432237
_symmetry_Int_Tables_number   1
_chemical_formula_structural   Na31Fe20(SO4)36
_chemical_formula_sum   'Na62 Fe40 S72 O288'
_cell_volume   5818.77980569
_cell_formula_units_Z   2
loop_
 _symmetry_equiv_pos_site_id
 _symmetry_equiv_pos_as_xyz
  1  'x, y, z'
loop_
 _atom_site_type_symbol
 _atom_site_label
 _atom_site_symmetry_multiplicity
 _atom_site_fract_x
 _atom_site_fract_y
 _atom_site_fract_z
 _atom_site_occupancy
  Na  Na0  1  0.13351136  0.35215351  0.08040914  1
  Na  Na1  1  0.14138359  0.36818179  0.42073762  1
  Na  Na2  1  0.13678430  0.36190443  0.75068677  1
  Na  Na3  1  0.13668291  0.87295839  0.08222768  1
  Na  Na4  1  0.13041076  0.86589523  0.41618832  1
  Na  Na5  1  0.12681027  0.84500176  0.72537414  1
  Na  Na6  1  0.63519696  0.36456659  0.07905258  1
  Na  Na7  1  0.63477947  0.36829153  0.41905508  1
  Na  Na8  1  0.65076508  0.37258956  0.77064770  1
  Na  Na9  1  0.63003254  0.86619146  0.08036534  1
  Na  Na10  1  0.62251960  0.86578447  0.40867641  1
  Na  Na11  1  0.63779272  0.86867421  0.75553959  1
  Na  Na12  1  0.35573684  0.12918287  0.23781408  1
  Na  Na13  1  0.36925521  0.12738455  0.57981918  1
  Na  Na14  1  0.36477636  0.13250062  0.92062252  1
  Na  Na15  1  0.36321837  0.64266340  0.25389557  1
  Na  Na16  1  0.36327580  0.64072440  0.59290683  1
  Na  Na17  1  0.36326071  0.63039152  0.91044769  1
  Na  Na18  1  0.86309417  0.13643962  0.24580104  1
  Na  Na19  1  0.86888006  0.13494170  0.58566254  1
  Na  Na20  1  0.86397581  0.13683621  0.92149548  1
  Na  Na21  1  0.86481026  0.63388641  0.24829622  1
  Na  Na22  1  0.87000609  0.63887662  0.58552004  1
  Na  Na23  1  0.85970341  0.63349124  0.91386841  1
  Na  Na24  1  0.51188968  -0.03951168  0.80131737  1
  Na  Na25  1  1.00459752  0.55571682  0.43830443  1
  Na  Na26  1  0.49735374  0.52030228  0.72195603  1
  Na  Na27  1  0.96613641  0.01973547  0.06977594  1
  Na  Na28  1  0.47632305  0.51009392  0.43279342  1
  Na  Na29  1  0.49142504  0.01524034  0.06575460  1
  Na  Na30  1  0.99087652  0.01033192  0.75208745  1
  Na  Na31  1  0.94907900  0.49533251  0.06260620  1
  Na  Na32  1  0.49653654  0.54333191  0.08626778  1
  Na  Na33  1  0.49018927  0.51724512  0.24660218  1
  Na  Na34  1  0.00853719  0.99215748  0.25707178  1
  Na  Na35  1  0.01643481  0.98609455  0.56564014  1
  Na  Na36  1  0.50069441  0.98099367  0.26740781  1
  Na  Na37  1  0.52576381  0.49574173  0.90522749  1
  Na  Na38  1  0.03640104  0.98512175  0.92659243  1
  Na  Na39  1  0.00981388  0.49768188  0.59510363  1
  Na  Na40  1  0.02795695  0.46801696  0.24877735  1
  Na  Na41  1  -0.00162647  0.49429778  0.90328482  1
  Na  Na42  1  0.26206364  0.25625690  0.65491300  1
  Na  Na43  1  0.24296674  0.24502022  0.34106049  1
  Na  Na44  1  0.74274084  0.24411977  0.68618227  1
  Na  Na45  1  0.75285667  0.75622019  0.66772950  1
  Na  Na46  1  0.77171848  0.27397169  -0.01605050  1
  Na  Na47  1  0.23824267  0.73585965  0.34407534  1
  Na  Na48  1  0.73473278  0.74124657  0.33370928  1
  Na  Na49  1  0.75679052  0.25628158  0.33015396  1
  Na  Na50  1  0.75428818  0.76580849  -0.00536472  1
  Na  Na51  1  0.25817433  0.75383677  -0.00580581  1
  Na  Na52  1  0.74331249  0.75000230  0.16860659  1
  Na  Na53  1  0.76109897  0.76669881  0.83308722  1
  Na  Na54  1  0.24800352  0.75113523  0.16499446  1
  Na  Na55  1  0.74464630  0.24384465  0.50730308  1
  Na  Na56  1  0.26475105  0.75783714  0.80812106  1
  Na  Na57  1  0.76731867  0.26323658  0.15566055  1
  Na  Na58  1  0.24367015  0.23930005  0.84479456  1
  Na  Na59  1  0.24203772  0.24140175  0.16161040  1
  Na  Na60  1  0.22868598  0.72990101  0.52009938  1
  Na  Na61  1  0.74215170  0.74793553  0.49844974  1
  Fe  Fe62  1  0.96488560  0.80665625  0.11635616  1
  Fe  Fe63  1  0.96814232  0.80476789  0.78535069  1
  Fe  Fe64  1  0.46557649  0.30762746  0.11945337  1
  Fe  Fe65  1  0.96504256  0.30782133  0.78448085  1
  Fe  Fe66  1  0.46591679  0.30980449  0.45578829  1
  Fe  Fe67  1  0.46875099  0.79997317  0.12512447  1
  Fe  Fe68  1  0.96649050  0.79847572  0.45137351  1
  Fe  Fe69  1  0.96768004  0.30779522  0.45475791  1
  Fe  Fe70  1  0.46692567  0.30423657  0.78469368  1
  Fe  Fe71  1  0.46170940  0.81678370  0.45750750  1
  Fe  Fe72  1  0.69450038  0.03631157  0.71740395  1
  Fe  Fe73  1  0.19144373  0.52961390  0.04633379  1
  Fe  Fe74  1  0.68834722  0.53616899  0.37679758  1
  Fe  Fe75  1  0.19297623  0.53320374  0.71680960  1
  Fe  Fe76  1  0.69804685  0.03084902  0.04347678  1
  Fe  Fe77  1  0.69479280  0.03637954  0.38135805  1
  Fe  Fe78  1  0.19155344  0.03361073  0.71515055  1
  Fe  Fe79  1  0.69504842  0.53377726  0.71153713  1
  Fe  Fe80  1  0.19208172  0.04157760  0.38418782  1
  Fe  Fe81  1  0.69864599  0.53340215  0.04449781  1
  Fe  Fe82  1  0.03003643  0.20023834  0.20908919  1
  Fe  Fe83  1  0.52836235  0.70312766  0.87363304  1
  Fe  Fe84  1  0.03709612  0.18922051  0.54453214  1
  Fe  Fe85  1  0.53552856  0.19137450  0.87990758  1
  Fe  Fe86  1  0.03725100  0.68543199  0.87765213  1
  Fe  Fe87  1  0.03669783  0.19315462  0.88814121  1
  Fe  Fe88  1  0.03369464  0.68949487  0.20996412  1
  Fe  Fe89  1  0.53707699  0.19398889  0.21446784  1
  Fe  Fe90  1  0.53495317  0.19145651  0.54775927  1
  Fe  Fe91  1  0.53358188  0.69867321  0.54879241  1
  Fe  Fe92  1  0.30629547  0.45992718  0.61540905  1
  Fe  Fe93  1  0.30869937  0.46213937  0.95433577  1
  Fe  Fe94  1  0.81022455  0.46531658  0.28772447  1
  Fe  Fe95  1  0.30352522  0.97015026  0.28869856  1
  Fe  Fe96  1  0.30867544  0.96235970  0.62162620  1
  Fe  Fe97  1  0.81254269  0.46457058  0.62085580  1
  Fe  Fe98  1  0.29905414  0.47011384  0.28978108  1
  Fe  Fe99  1  0.29892892  0.96624831  0.95398333  1
  Fe  Fe100  1  0.81182953  0.96622344  0.28914513  1
  Fe  Fe101  1  0.80650645  0.96557079  0.61965368  1
  S  S102  1  0.36482729  0.13886187  0.08553966  1
  S  S103  1  0.36051803  0.14352467  0.41584129  1
  S  S104  1  0.35876451  0.14032743  0.75033006  1
  S  S105  1  0.35670427  0.63647831  0.08480017  1
  S  S106  1  0.35944845  0.64502299  0.41854300  1
  S  S107  1  0.36131415  0.63468492  0.75001275  1
  S  S108  1  0.85337016  0.14453318  0.08451442  1
  S  S109  1  0.86032126  0.14174952  0.41814400  1
  S  S110  1  0.86203359  0.13833036  0.74755862  1
  S  S111  1  0.85674163  0.64444406  0.07916329  1
  S  S112  1  0.85378634  0.64207110  0.41575007  1
  S  S113  1  0.85936397  0.64103998  0.75053654  1
  S  S114  1  0.14640433  0.35651344  0.25163536  1
  S  S115  1  0.14171209  0.35632770  0.58708742  1
  S  S116  1  0.14233807  0.35661224  0.91376405  1
  S  S117  1  0.13775317  0.85984073  0.25076875  1
  S  S118  1  0.13681324  0.86100139  0.57865741  1
  S  S119  1  0.14264733  0.85059421  0.91174899  1
  S  S120  1  0.64217786  0.35920500  0.25069280  1
  S  S121  1  0.64292582  0.35881815  0.58365764  1
  S  S122  1  0.63788241  0.36170961  0.91842604  1
  S  S123  1  0.64143832  0.86331074  0.25012973  1
  S  S124  1  0.64107173  0.86259407  0.58306028  1
  S  S125  1  0.63940986  0.86130216  0.91857204  1
  S  S126  1  0.05731816  0.16397728  0.04270079  1
  S  S127  1  0.06628272  0.17346873  0.37426041  1
  S  S128  1  0.06609957  0.16751844  0.70770283  1
  S  S129  1  0.06600604  0.66585679  0.03963329  1
  S  S130  1  0.06002067  0.66527581  0.36930044  1
  S  S131  1  0.06393263  0.66254987  0.71069342  1
  S  S132  1  0.57263914  0.17202442  0.04534430  1
  S  S133  1  0.56910853  0.17149511  0.37632357  1
  S  S134  1  0.57083357  0.17390963  0.71055350  1
  S  S135  1  0.56718759  0.67143569  0.03779959  1
  S  S136  1  0.56259229  0.66848884  0.37560511  1
  S  S137  1  0.57408752  0.67397595  0.70959761  1
  S  S138  1  0.32990677  0.43044219  0.12718183  1
  S  S139  1  0.33724844  0.43423052  0.46046074  1
  S  S140  1  0.33254261  0.42827243  0.79228504  1
  S  S141  1  0.33234050  0.92753386  0.12648530  1
  S  S142  1  0.32165157  0.93288590  0.45363184  1
  S  S143  1  0.31909721  0.93192184  0.78881390  1
  S  S144  1  0.83187333  0.44025030  0.12781735  1
  S  S145  1  0.83175145  0.43446685  0.45929364  1
  S  S146  1  0.83347389  0.43685233  0.78675601  1
  S  S147  1  0.83398940  0.93424917  0.12845196  1
  S  S148  1  0.82769194  0.92863917  0.45553375  1
  S  S149  1  0.83679733  0.93752967  0.79373586  1
  S  S150  1  0.43356046  0.33177644  0.29141024  1
  S  S151  1  0.43623740  0.32719976  0.62654481  1
  S  S152  1  0.43354626  0.33192870  0.95951395  1
  S  S153  1  0.42811114  0.83300119  0.29181900  1
  S  S154  1  0.43481249  0.83295308  0.62388775  1
  S  S155  1  0.42659266  0.82606056  0.95990372  1
  S  S156  1  0.93665716  0.33490330  0.29731660  1
  S  S157  1  0.93491197  0.32903409  0.62195721  1
  S  S158  1  0.94284739  0.33375944  0.95091239  1
  S  S159  1  0.93168612  0.82851903  0.28855098  1
  S  S160  1  0.92824908  0.83130475  0.62220072  1
  S  S161  1  0.94294601  0.83026161  0.95657507  1
  S  S162  1  0.16438644  0.06532341  0.21043108  1
  S  S163  1  0.17041996  0.06782369  0.54331305  1
  S  S164  1  0.16566970  0.06165469  0.87057713  1
  S  S165  1  0.16673683  0.56495973  0.20494525  1
  S  S166  1  0.16921157  0.55639501  0.54920545  1
  S  S167  1  0.17136446  0.56168614  0.87855615  1
  S  S168  1  0.67162236  0.06924985  0.21020257  1
  S  S169  1  0.67500179  0.07109572  0.54519228  1
  S  S170  1  0.66918302  0.07134387  0.87699380  1
  S  S171  1  0.66740769  0.56131617  0.20791088  1
  S  S172  1  0.67108520  0.57024980  0.54179704  1
  S  S173  1  0.66434557  0.57461965  0.87268007  1
  O  O174  1  0.37769465  0.21597700  0.07524282  1
  O  O175  1  0.37233141  0.22252766  0.40802128  1
  O  O176  1  0.36951990  0.21898568  0.74136962  1
  O  O177  1  0.36730289  0.71705001  0.08060289  1
  O  O178  1  0.37486689  0.72134308  0.40633938  1
  O  O179  1  0.36429750  0.70996477  0.73868583  1
  O  O180  1  0.85229037  0.22366111  0.07911276  1
  O  O181  1  0.86816666  0.22135588  0.41106074  1
  O  O182  1  0.87186273  0.21562097  0.73627745  1
  O  O183  1  0.86709037  0.72508299  0.07304362  1
  O  O184  1  0.86109733  0.72135638  0.40732105  1
  O  O185  1  0.86854609  0.72155839  0.74454011  1
  O  O186  1  0.29211173  0.13173628  0.10128773  1
  O  O187  1  0.28170640  0.13636738  0.42351852  1
  O  O188  1  0.27948746  0.13298667  0.75828701  1
  O  O189  1  0.27540239  0.62775544  0.08840182  1
  O  O190  1  0.28358293  0.64275509  0.42989478  1
  O  O191  1  0.28682625  0.62032523  0.76582643  1
  O  O192  1  0.77846953  0.12671788  0.09960182  1
  O  O193  1  0.78189784  0.13236355  0.42800601  1
  O  O194  1  0.78175411  0.13000436  0.75153721  1
  O  O195  1  0.77721223  0.63751524  0.08742610  1
  O  O196  1  0.77128352  0.63216313  0.41767164  1
  O  O197  1  0.78040452  0.63348131  0.75956230  1
  O  O198  1  0.13538737  0.27257831  0.25039496  1
  O  O199  1  0.12958891  0.27811964  0.59638370  1
  O  O200  1  0.13457104  0.27566512  0.91595374  1
  O  O201  1  0.12962122  0.78072485  0.25904162  1
  O  O202  1  0.12814284  0.78475627  0.58722455  1
  O  O203  1  0.13521699  0.76996796  0.91751132  1
  O  O204  1  0.63162165  0.28113720  0.26079293  1
  O  O205  1  0.63648533  0.27829610  0.58942499  1
  O  O206  1  0.62448443  0.28453719  0.92944747  1
  O  O207  1  0.63533273  0.78714380  0.26008775  1
  O  O208  1  0.63402386  0.78300620  0.59102089  1
  O  O209  1  0.62117980  0.78327518  0.92931949  1
  O  O210  1  0.22983245  0.36511739  0.25057275  1
  O  O211  1  0.22193631  0.36227806  0.58262902  1
  O  O212  1  0.22065881  0.36807911  0.90429659  1
  O  O213  1  0.21688398  0.87070205  0.24422797  1
  O  O214  1  0.21474791  0.87319145  0.56875212  1
  O  O215  1  0.22281072  0.86160808  0.90666936  1
  O  O216  1  0.72212177  0.36568810  0.24410770  1
  O  O217  1  0.72044588  0.37009623  0.57271911  1
  O  O218  1  0.71389497  0.36920100  0.90929274  1
  O  O219  1  0.72030263  0.87712974  0.24207090  1
  O  O220  1  0.71981139  0.87043015  0.57305302  1
  O  O221  1  0.71922350  0.86124647  0.91501296  1
  O  O222  1  0.43068637  0.12808641  0.14985162  1
  O  O223  1  0.41941523  0.13531835  0.48366456  1
  O  O224  1  0.41737603  0.13495393  0.81982295  1
  O  O225  1  0.41332795  0.62342252  0.14988720  1
  O  O226  1  0.42156494  0.63352156  0.48400255  1
  O  O227  1  0.42549266  0.62941330  0.81809793  1
  O  O228  1  0.91673594  0.13918030  0.15345522  1
  O  O229  1  0.91986278  0.13325324  0.48528022  1
  O  O230  1  0.91950664  0.13009229  0.81583467  1
  O  O231  1  0.91459989  0.63723423  0.14866613  1
  O  O232  1  0.90911909  0.63427218  0.48373406  1
  O  O233  1  0.91787367  0.63129863  0.81729000  1
  O  O234  1  0.36892997  0.07713418  0.01604872  1
  O  O235  1  0.36723783  0.08474355  0.34684408  1
  O  O236  1  0.36550562  0.08063492  0.68260640  1
  O  O237  1  0.36492881  0.57987399  0.01422362  1
  O  O238  1  0.36358233  0.58315246  0.34898863  1
  O  O239  1  0.37161266  0.57168770  0.68456256  1
  O  O240  1  0.86263191  0.08673144  0.01826568  1
  O  O241  1  0.86590119  0.08395596  0.34882271  1
  O  O242  1  0.87298101  0.07756874  0.68085008  1
  O  O243  1  0.86515284  0.58623323  0.01299562  1
  O  O244  1  0.86437291  0.58394171  0.34830560  1
  O  O245  1  0.86427234  0.58425543  0.68036355  1
  O  O246  1  0.09349334  0.36979407  0.18480181  1
  O  O247  1  0.08468717  0.36423616  0.51827078  1
  O  O248  1  0.08244701  0.36944939  0.84814133  1
  O  O249  1  0.07915760  0.86514075  0.18093204  1
  O  O250  1  0.07616283  0.87020006  0.51024944  1
  O  O251  1  0.08518391  0.85798871  0.84144985  1
  O  O252  1  0.58421728  0.36679362  0.18239287  1
  O  O253  1  0.58250540  0.36580161  0.51603137  1
  O  O254  1  0.57539302  0.37094058  0.85128894  1
  O  O255  1  0.58180683  0.86933293  0.18123801  1
  O  O256  1  0.58204461  0.86993920  0.51542017  1
  O  O257  1  0.58348045  0.87094589  0.85162556  1
  O  O258  1  0.13683908  0.40922427  0.32037609  1
  O  O259  1  0.13104018  0.41630628  0.65377237  1
  O  O260  1  0.13656311  0.41249357  0.98410097  1
  O  O261  1  0.12578855  0.91949768  0.31641154  1
  O  O262  1  0.12605791  0.92373193  0.64426387  1
  O  O263  1  0.13093915  0.90769955  0.97706036  1
  O  O264  1  0.63494492  0.41891885  0.31880547  1
  O  O265  1  0.63634878  0.41604340  0.65289815  1
  O  O266  1  0.62856583  0.42337650  0.98553670  1
  O  O267  1  0.63056258  0.92535058  0.31641156  1
  O  O268  1  0.63672082  0.92067770  0.65262598  1
  O  O269  1  0.63364148  0.92111061  0.98843945  1
  O  O270  1  0.02227128  0.20073523  0.10183073  1
  O  O271  1  0.03063115  0.20191032  0.43674270  1
  O  O272  1  0.03039511  0.19684032  0.76856067  1
  O  O273  1  0.02980024  0.69639466  0.10093154  1
  O  O274  1  0.02146198  0.69600786  0.42786145  1
  O  O275  1  0.02891663  0.69687061  0.77364339  1
  O  O276  1  0.53612811  0.20437503  0.10643500  1
  O  O277  1  0.53373955  0.20061273  0.43786002  1
  O  O278  1  0.53164082  0.20199150  0.77045901  1
  O  O279  1  0.52650310  0.69561632  0.09456156  1
  O  O280  1  0.53614759  0.70169072  0.44290646  1
  O  O281  1  0.53832103  0.69693726  0.76989950  1
  O  O282  1  0.30031203  0.46512590  0.06443143  1
  O  O283  1  0.31846880  0.47249863  0.40205405  1
  O  O284  1  0.30173996  0.46166489  0.73003036  1
  O  O285  1  0.31050032  0.96003544  0.06438029  1
  O  O286  1  0.29312005  0.97482302  0.39584042  1
  O  O287  1  0.29069402  0.97263351  0.72881014  1
  O  O288  1  0.80082775  0.47858782  0.06931899  1
  O  O289  1  0.80367875  0.47108381  0.39856806  1
  O  O290  1  0.79910129  0.46936824  0.72137989  1
  O  O291  1  0.80388992  0.96859748  0.06846890  1
  O  O292  1  0.80096848  0.96851959  0.39648494  1
  O  O293  1  0.80199091  0.96751691  0.72732790  1
  O  O294  1  0.47228487  0.30349053  0.23149776  1
  O  O295  1  0.47339088  0.29823270  0.56567618  1
  O  O296  1  0.46740044  0.30137699  0.89707185  1
  O  O297  1  0.46813168  0.81150093  0.23460954  1
  O  O298  1  0.47067802  0.80251380  0.56031212  1
  O  O299  1  0.46290497  0.79819225  0.90004077  1
  O  O300  1  0.97360231  0.30702156  0.23878569  1
  O  O301  1  0.97075996  0.29656722  0.56058897  1
  O  O302  1  0.97456248  0.29123509  0.88579283  1
  O  O303  1  0.96847123  0.79888191  0.22761015  1
  O  O304  1  0.96008130  0.80820319  0.55982245  1
  O  O305  1  0.97686808  0.79143762  0.89464154  1
  O  O306  1  0.19705178  0.03323588  0.27669752  1
  O  O307  1  0.20146677  0.03140586  0.60369961  1
  O  O308  1  0.19541258  0.02574284  0.93005329  1
  O  O309  1  0.19587023  0.53069523  0.26567171  1
  O  O310  1  0.20878726  0.52249915  0.61343535  1
  O  O311  1  0.20211531  0.52484796  0.93958978  1
  O  O312  1  0.70160993  0.03530058  0.27313046  1
  O  O313  1  0.70267455  0.03155562  0.60400734  1
  O  O314  1  0.68974801  0.03533608  0.93663836  1
  O  O315  1  0.70393846  0.52464105  0.26855034  1
  O  O316  1  0.69997699  0.53319635  0.60209611  1
  O  O317  1  0.67947629  0.53843375  0.93244271  1
  O  O318  1  0.06339859  0.08088298  0.03662258  1
  O  O319  1  0.08438269  0.09162202  0.36931267  1
  O  O320  1  0.08012392  0.08374108  0.69935103  1
  O  O321  1  0.08326221  0.58400576  0.03401507  1
  O  O322  1  0.07085111  0.58311089  0.36195163  1
  O  O323  1  0.08818725  0.58421032  0.71519917  1
  O  O324  1  0.59053282  0.09159994  0.04443274  1
  O  O325  1  0.58818233  0.09001762  0.36996782  1
  O  O326  1  0.59486188  0.09604858  0.70889419  1
  O  O327  1  0.58658999  0.58919143  0.03281554  1
  O  O328  1  0.58406483  0.58688312  0.37287830  1
  O  O329  1  0.59373148  0.59166251  0.69884912  1
  O  O330  1  0.41310199  0.41473760  0.13322948  1
  O  O331  1  0.42064883  0.41526945  0.47221847  1
  O  O332  1  0.41559005  0.41297619  0.79948092  1
  O  O333  1  0.41524569  0.90846544  0.14158470  1
  O  O334  1  0.40123537  0.91383072  0.45638925  1
  O  O335  1  0.39655793  0.91022145  0.79077275  1
  O  O336  1  0.91329256  0.42694845  0.13351365  1
  O  O337  1  0.91377481  0.41660250  0.46763822  1
  O  O338  1  0.91175316  0.41213351  0.78362195  1
  O  O339  1  0.91676371  0.91639527  0.13287923  1
  O  O340  1  0.90672511  0.90507379  0.45882076  1
  O  O341  1  0.91751621  0.91561862  0.79324865  1
  O  O342  1  0.41515268  0.41344632  0.29730851  1
  O  O343  1  0.41298586  0.40663291  0.62885619  1
  O  O344  1  0.41853772  0.41530272  0.96683534  1
  O  O345  1  0.40817098  0.91513859  0.30186739  1
  O  O346  1  0.40756918  0.90996669  0.62080752  1
  O  O347  1  0.40568516  0.90682207  0.96539453  1
  O  O348  1  0.91866809  0.41738596  0.30388623  1
  O  O349  1  0.91853727  0.41022535  0.62385111  1
  O  O350  1  0.92787996  0.41152355  0.94284456  1
  O  O351  1  0.91628900  0.91076267  0.29386411  1
  O  O352  1  0.91373701  0.91594954  0.63725129  1
  O  O353  1  0.93681208  0.91198400  0.96027161  1
  O  O354  1  0.08418793  0.08718625  0.20991343  1
  O  O355  1  0.08888090  0.08491252  0.54180126  1
  O  O356  1  0.08503595  0.08404434  0.87068441  1
  O  O357  1  0.08355032  0.58102916  0.19631144  1
  O  O358  1  0.09004204  0.56940086  0.55415190  1
  O  O359  1  0.09009955  0.57864137  0.87578130  1
  O  O360  1  0.58844516  0.08433753  0.20194488  1
  O  O361  1  0.59629263  0.09354089  0.54165671  1
  O  O362  1  0.58508148  0.08808601  0.86209136  1
  O  O363  1  0.58613884  0.57082037  0.20582202  1
  O  O364  1  0.59015965  0.58996487  0.53537676  1
  O  O365  1  0.58052134  0.59298407  0.85460960  1
  O  O366  1  0.13274868  0.20825664  0.05662148  1
  O  O367  1  0.13636458  0.22551467  0.38980407  1
  O  O368  1  0.13934231  0.21689442  0.72488967  1
  O  O369  1  0.13667217  0.71820336  0.05532072  1
  O  O370  1  0.13387097  0.71604752  0.38949641  1
  O  O371  1  0.13264909  0.71531604  0.72326272  1
  O  O372  1  0.64284566  0.22439960  0.06018969  1
  O  O373  1  0.64049410  0.22414624  0.39279317  1
  O  O374  1  0.63701944  0.23144121  0.72582878  1
  O  O375  1  0.63844220  0.72507032  0.05778046  1
  O  O376  1  0.63273011  0.71989049  0.38583866  1
  O  O377  1  0.64482322  0.72774874  0.72657805  1
  O  O378  1  0.27981313  0.35997984  0.11372177  1
  O  O379  1  0.28389967  0.36343180  0.44118874  1
  O  O380  1  0.28283555  0.35581161  0.77751833  1
  O  O381  1  0.27807604  0.85694313  0.11009890  1
  O  O382  1  0.26693302  0.86225586  0.43262680  1
  O  O383  1  0.26170044  0.86462959  0.77000203  1
  O  O384  1  0.77979374  0.36755571  0.10906827  1
  O  O385  1  0.77885054  0.36328318  0.44200676  1
  O  O386  1  0.77990803  0.36880519  0.77460252  1
  O  O387  1  0.78392026  0.86270810  0.11639086  1
  O  O388  1  0.77010949  0.86122267  0.43826175  1
  O  O389  1  0.78534624  0.86565251  0.77976783  1
  O  O390  1  0.36408575  0.27703470  0.27356420  1
  O  O391  1  0.36926993  0.27179789  0.61309271  1
  O  O392  1  0.36211662  0.28185963  0.94495565  1
  O  O393  1  0.35690904  0.77873794  0.27109164  1
  O  O394  1  0.36849535  0.77603879  0.60921415  1
  O  O395  1  0.35639671  0.77113896  0.94269876  1
  O  O396  1  0.86370145  0.28370680  0.28076211  1
  O  O397  1  0.86283259  0.27864105  0.60635600  1
  O  O398  1  0.87162279  0.28516563  0.93959256  1
  O  O399  1  0.85858440  0.77809682  0.27095430  1
  O  O400  1  0.85510130  0.78104806  0.60602890  1
  O  O401  1  0.86750673  0.78434186  0.94088462  1
  O  O402  1  0.21827089  0.13543019  0.22584526  1
  O  O403  1  0.22123036  0.13856548  0.55751166  1
  O  O404  1  0.21811367  0.12965222  0.88017876  1
  O  O405  1  0.21635370  0.63855660  0.22040250  1
  O  O406  1  0.21789409  0.62921962  0.56462464  1
  O  O407  1  0.22292329  0.63285749  0.89510202  1
  O  O408  1  0.72170357  0.14214864  0.22751569  1
  O  O409  1  0.73144355  0.14080816  0.56423169  1
  O  O410  1  0.72134707  0.14211850  0.89393165  1
  O  O411  1  0.71542451  0.63597687  0.22515737  1
  O  O412  1  0.72482209  0.64109887  0.55860332  1
  O  O413  1  0.71898820  0.64527873  0.89306147  1
  O  O414  1  0.49374133  0.33318872  0.03144535  1
  O  O415  1  0.49280503  0.33445290  0.36460803  1
  O  O416  1  0.49783935  0.33549329  0.69971788  1
  O  O417  1  0.48537739  0.82978762  0.03383387  1
  O  O418  1  0.48535443  0.83105097  0.36413750  1
  O  O419  1  0.49793128  0.84509715  0.69469081  1
  O  O420  1  1.00389505  0.34192856  0.02179096  1
  O  O421  1  0.99363708  0.33683839  0.37148324  1
  O  O422  1  0.99369405  0.33018203  0.69397383  1
  O  O423  1  0.99854802  0.82675436  0.02936985  1
  O  O424  1  0.98885224  0.82811705  0.36061672  1
  O  O425  1  0.98788783  0.82542390  0.69152915  1
  O  O426  1  0.15999972  0.00328055  0.14200148  1
  O  O427  1  0.16441146  0.00966300  0.46895894  1
  O  O428  1  0.15236195  0.00143171  0.79461963  1
  O  O429  1  0.16699111  0.50599750  0.13257016  1
  O  O430  1  0.16466875  0.49803880  0.47786659  1
  O  O431  1  0.17018187  0.50271740  0.80660677  1
  O  O432  1  0.67298421  0.00967802  0.13956744  1
  O  O433  1  0.67242787  0.01299216  0.47181227  1
  O  O434  1  0.67112498  0.01040065  0.80559088  1
  O  O435  1  0.66781141  0.50668658  0.13405312  1
  O  O436  1  0.66991637  0.51057812  0.46962810  1
  O  O437  1  0.66981960  0.51444476  0.80300268  1
  O  O438  1  0.00509036  0.17073570  0.30282050  1
  O  O439  1  0.00800604  0.16771830  0.63526845  1
  O  O440  1  0.00176518  0.16659034  0.96844711  1
  O  O441  1  0.00473452  0.66872583  0.29563628  1
  O  O442  1  0.00147330  0.65077890  0.63983342  1
  O  O443  1  0.00629566  0.66255046  0.96684444  1
  O  O444  1  0.50973515  0.16951294  0.30417109  1
  O  O445  1  0.50980529  0.16762648  0.63725806  1
  O  O446  1  0.51261577  0.16796867  0.97252535  1
  O  O447  1  0.49882885  0.66028791  0.30655462  1
  O  O448  1  0.51385926  0.67475382  0.63857200  1
  O  O449  1  0.51188864  0.66723682  0.96227157  1
  O  O450  1  0.33390890  0.49252125  0.19931500  1
  O  O451  1  0.33610232  0.49232920  0.53261605  1
  O  O452  1  0.33351500  0.48827166  0.86418928  1
  O  O453  1  0.32983986  0.98874391  0.19702916  1
  O  O454  1  0.32309549  0.98960621  0.52686583  1
  O  O455  1  0.32141481  0.99131526  0.86213706  1
  O  O456  1  0.83104102  0.49580951  0.20219654  1
  O  O457  1  0.83235183  0.49363967  0.53156320  1
  O  O458  1  0.84365540  0.50066063  0.85598103  1
  O  O459  1  0.84043709  0.99382690  0.20318952  1
  O  O460  1  0.83376067  0.98849622  0.52916637  1
  O  O461  1  0.84279992  0.99909890  0.86271382  1
