# generated using pymatgen
data_Na31Fe20(SO4)36
_symmetry_space_group_name_H-M   'P 1'
_cell_length_a   18.08110951
_cell_length_b   18.07922418
_cell_length_c   19.71166614
_cell_angle_alpha   107.56287610
_cell_angle_beta   107.58471178
_cell_angle_gamma   90.72186113
_symmetry_Int_Tables_number   1
_chemical_formula_structural   Na31Fe20(SO4)36
_chemical_formula_sum   'Na62 Fe40 S72 O288'
_cell_volume   5817.87721382
_cell_formula_units_Z   2
loop_
 _symmetry_equiv_pos_site_id
 _symmetry_equiv_pos_as_xyz
  1  'x, y, z'
loop_
 _atom_site_type_symbol
 _atom_site_label
 _atom_site_symmetry_multiplicity
 _atom_site_fract_x
 _atom_site_fract_y
 _atom_site_fract_z
 _atom_site_occupancy
  Na  Na0  1  0.13136081  0.36203727  0.07444536  1
  Na  Na1  1  0.12695552  0.37107999  0.41862821  1
  Na  Na2  1  0.12280717  0.37279485  0.74674316  1
  Na  Na3  1  0.14077171  0.86163542  0.08234189  1
  Na  Na4  1  0.14248719  0.87450526  0.43138228  1
  Na  Na5  1  0.12478822  0.86518725  0.74009770  1
  Na  Na6  1  0.62823293  0.35807657  0.07891218  1
  Na  Na7  1  0.63593829  0.35996702  0.41580341  1
  Na  Na8  1  0.63425637  0.36524107  0.74745985  1
  Na  Na9  1  0.64052987  0.86384976  0.08618590  1
  Na  Na10  1  0.64395297  0.86659701  0.43364357  1
  Na  Na11  1  0.64189157  0.87387511  0.75452592  1
  Na  Na12  1  0.36122687  0.12838730  0.23689231  1
  Na  Na13  1  0.36995870  0.12171604  0.58695245  1
  Na  Na14  1  0.37745438  0.13835370  0.92944041  1
  Na  Na15  1  0.36597283  0.63271406  0.24855032  1
  Na  Na16  1  0.36971176  0.64988564  0.59121671  1
  Na  Na17  1  0.35802935  0.63722081  0.90907285  1
  Na  Na18  1  0.87113794  0.13742103  0.25751364  1
  Na  Na19  1  0.85263453  0.12639390  0.57606969  1
  Na  Na20  1  0.85901055  0.13633777  0.90141472  1
  Na  Na21  1  0.86582145  0.63548244  0.24922853  1
  Na  Na22  1  0.87086424  0.63076837  0.58441699  1
  Na  Na23  1  0.86217477  0.63175931  0.91201722  1
  Na  Na24  1  0.49083603  0.50122593  0.08526872  1
  Na  Na25  1  0.48658885  0.51496053  0.74940836  1
  Na  Na26  1  0.99071103  0.51908095  0.47659830  1
  Na  Na27  1  0.49568780  0.02257225  0.05936623  1
  Na  Na28  1  0.48928450  0.51199031  0.41183237  1
  Na  Na29  1  0.98694078  0.50142791  0.10197285  1
  Na  Na30  1  0.48774296  -0.00065876  0.41839100  1
  Na  Na31  1  1.03547500  -0.01556230  0.04048682  1
  Na  Na32  1  0.98677404  -0.00030220  0.44756137  1
  Na  Na33  1  -0.04667281  1.01306103  0.68526947  1
  Na  Na34  1  0.55786832  0.98956698  0.63284122  1
  Na  Na35  1  -0.00704694  1.04390971  0.87688984  1
  Na  Na36  1  0.50861494  0.48818922  0.91759380  1
  Na  Na37  1  0.52099244  0.99365030  0.24367301  1
  Na  Na38  1  0.00937514  0.99441101  0.24725767  1
  Na  Na39  1  0.51152775  0.49202418  0.58156091  1
  Na  Na40  1  0.50778888  0.44678101  0.23555244  1
  Na  Na41  1  0.00939846  0.48983651  0.90448514  1
  Na  Na42  1  0.74867848  0.74839225  0.00435688  1
  Na  Na43  1  0.76655326  0.25835712  0.33447038  1
  Na  Na44  1  0.23990627  0.24937307  0.67257952  1
  Na  Na45  1  0.74889590  0.24880939  -0.00796993  1
  Na  Na46  1  0.22969985  0.74344732  0.67801325  1
  Na  Na47  1  0.25807646  0.76214435  -0.01716037  1
  Na  Na48  1  0.24283664  0.74450307  0.33968481  1
  Na  Na49  1  0.24269003  0.24365817  0.33705780  1
  Na  Na50  1  0.24253629  0.23774825  0.00685129  1
  Na  Na51  1  0.75931335  0.75394007  0.32733210  1
  Na  Na52  1  0.24262677  0.24536867  0.50660109  1
  Na  Na53  1  0.76258876  0.76070440  0.81817126  1
  Na  Na54  1  0.75921423  0.25454004  0.16513204  1
  Na  Na55  1  0.74929161  0.74365217  0.51321198  1
  Na  Na56  1  0.75493899  0.25024854  0.81331506  1
  Na  Na57  1  0.23394927  0.22899518  0.16373609  1
  Na  Na58  1  0.74398842  0.23980810  0.50949136  1
  Na  Na59  1  0.24265818  0.24324357  0.84374139  1
  Na  Na60  1  0.25229015  0.75090571  0.16442231  1
  Na  Na61  1  0.24185419  0.75863652  0.51684094  1
  Fe  Fe62  1  0.96255221  0.80655324  0.12075640  1
  Fe  Fe63  1  0.96762590  0.29553265  0.78952825  1
  Fe  Fe64  1  0.96600615  0.80437653  0.78180851  1
  Fe  Fe65  1  0.96878498  0.80223474  0.46467675  1
  Fe  Fe66  1  0.46751682  0.80458534  0.11692777  1
  Fe  Fe67  1  0.46358198  0.80804900  0.45771680  1
  Fe  Fe68  1  0.46535573  0.30619864  0.45029142  1
  Fe  Fe69  1  0.46166301  0.81851661  0.78667406  1
  Fe  Fe70  1  0.45905694  0.31067481  0.78421251  1
  Fe  Fe71  1  0.96428137  0.30877878  0.12140651  1
  Fe  Fe72  1  0.19238214  0.53659998  0.04634701  1
  Fe  Fe73  1  0.18861944  0.54030109  0.71198068  1
  Fe  Fe74  1  0.69026139  0.53419300  0.38285877  1
  Fe  Fe75  1  0.69315399  0.03376899  0.04123462  1
  Fe  Fe76  1  0.19629101  0.03282748  0.38286272  1
  Fe  Fe77  1  0.69219170  0.53522387  0.05096868  1
  Fe  Fe78  1  0.69519386  0.02977238  0.38621793  1
  Fe  Fe79  1  0.69632154  0.53404370  0.71674533  1
  Fe  Fe80  1  0.19727631  0.03534754  0.70913827  1
  Fe  Fe81  1  0.18714040  0.53702922  0.37842204  1
  Fe  Fe82  1  0.03620510  0.68800336  0.87592280  1
  Fe  Fe83  1  0.53723320  0.69222850  0.21665906  1
  Fe  Fe84  1  0.03030915  0.20296308  0.54184577  1
  Fe  Fe85  1  0.03464300  0.19141562  0.21116417  1
  Fe  Fe86  1  0.53319386  0.18517659  0.87338278  1
  Fe  Fe87  1  0.53447840  0.19492867  0.55093934  1
  Fe  Fe88  1  0.53366045  0.19858993  0.20884713  1
  Fe  Fe89  1  0.03342457  0.69464642  0.21510464  1
  Fe  Fe90  1  0.53716672  0.69012115  0.55089471  1
  Fe  Fe91  1  0.53326320  0.69675061  0.88276610  1
  Fe  Fe92  1  0.80866295  0.96060854  0.28506821  1
  Fe  Fe93  1  0.81167911  0.46354040  0.29110649  1
  Fe  Fe94  1  0.30680903  0.46861298  0.61541286  1
  Fe  Fe95  1  0.80491841  0.46481417  0.95105288  1
  Fe  Fe96  1  0.30694004  0.46605818  0.94898486  1
  Fe  Fe97  1  0.30644840  0.96497108  0.28372601  1
  Fe  Fe98  1  0.30504395  0.46326656  0.28068647  1
  Fe  Fe99  1  0.81357119  0.46136062  0.62231410  1
  Fe  Fe100  1  0.80805224  0.96739178  0.94683343  1
  Fe  Fe101  1  0.29862141  0.96491270  0.95333672  1
  S  S102  1  0.36252450  0.13614719  0.08182620  1
  S  S103  1  0.36067309  0.14115818  0.41523796  1
  S  S104  1  0.35637919  0.14678707  0.75255917  1
  S  S105  1  0.36220294  0.63983233  0.08252724  1
  S  S106  1  0.35942572  0.63780459  0.41550252  1
  S  S107  1  0.36166314  0.64280969  0.74866045  1
  S  S108  1  0.85934078  0.14053641  0.08415697  1
  S  S109  1  0.85896014  0.13512968  0.41556600  1
  S  S110  1  0.86179426  0.13987971  0.75279433  1
  S  S111  1  0.85786324  0.63838988  0.08423586  1
  S  S112  1  0.85372218  0.63679139  0.41239355  1
  S  S113  1  0.86016618  0.63702109  0.75331511  1
  S  S114  1  0.14204645  0.36036778  0.24856543  1
  S  S115  1  0.14318725  0.36646519  0.58231148  1
  S  S116  1  0.14053961  0.36222818  0.91458844  1
  S  S117  1  0.13979661  0.85886027  0.24882194  1
  S  S118  1  0.14226055  0.87026931  0.58149978  1
  S  S119  1  0.13691903  0.85825820  0.91860364  1
  S  S120  1  0.64507012  0.35733654  0.25252530  1
  S  S121  1  0.63882322  0.36199663  0.58322530  1
  S  S122  1  0.63655807  0.36185521  0.91544186  1
  S  S123  1  0.64061048  0.85852360  0.24886043  1
  S  S124  1  0.64109870  0.84879895  0.57863796  1
  S  S125  1  0.64132749  0.85768635  0.91720892  1
  S  S126  1  0.06198375  0.17409886  0.04442255  1
  S  S127  1  0.07083180  0.16877751  0.37415773  1
  S  S128  1  0.07216882  0.17665130  0.70682718  1
  S  S129  1  0.06515260  0.66825847  0.04240957  1
  S  S130  1  0.06909272  0.67496432  0.37622948  1
  S  S131  1  0.06373946  0.66838330  0.70912897  1
  S  S132  1  0.57523129  0.17109932  0.04146398  1
  S  S133  1  0.56729175  0.16998719  0.37326070  1
  S  S134  1  0.56298616  0.17890869  0.71517722  1
  S  S135  1  0.56654929  0.66810514  0.04062525  1
  S  S136  1  0.56229162  0.66211783  0.37253646  1
  S  S137  1  0.56774799  0.66344637  0.71084385  1
  S  S138  1  0.32901888  0.43680629  0.12061082  1
  S  S139  1  0.33396672  0.43494257  0.45578664  1
  S  S140  1  0.33220713  0.44022846  0.78916524  1
  S  S141  1  0.33419300  0.92765266  0.12410396  1
  S  S142  1  0.33127770  0.93285492  0.45251409  1
  S  S143  1  0.32182181  0.93284304  0.79059414  1
  S  S144  1  0.82424958  0.43082599  0.12193496  1
  S  S145  1  0.82540005  0.43330967  0.45668889  1
  S  S146  1  0.82884880  0.42749987  0.79240758  1
  S  S147  1  0.83145189  0.93375473  0.12333018  1
  S  S148  1  0.82716412  0.92689747  0.45396371  1
  S  S149  1  0.84319769  0.93324756  0.79818923  1
  S  S150  1  0.43172951  0.32880478  0.28907764  1
  S  S151  1  0.43292626  0.33543203  0.62362606  1
  S  S152  1  0.43497089  0.34084132  0.95785267  1
  S  S153  1  0.43476736  0.82798854  0.29004909  1
  S  S154  1  0.43974926  0.83225920  0.62432848  1
  S  S155  1  0.43153389  0.83029783  0.95831056  1
  S  S156  1  0.93535010  0.32941353  0.29008998  1
  S  S157  1  0.92865700  0.32268337  0.62688873  1
  S  S158  1  0.93294614  0.33868467  0.95980383  1
  S  S159  1  0.93609573  0.83113426  0.29437554  1
  S  S160  1  0.93000322  0.81909315  0.61818303  1
  S  S161  1  0.93051938  0.82421763  0.95878996  1
  S  S162  1  0.16772286  0.06124667  0.20907724  1
  S  S163  1  0.17097995  0.07771696  0.54358643  1
  S  S164  1  0.18063368  0.07097298  0.87588936  1
  S  S165  1  0.16978058  0.56787362  0.20763429  1
  S  S166  1  0.17839480  0.57389386  0.54618177  1
  S  S167  1  0.17219721  0.56827170  0.87823041  1
  S  S168  1  0.66948368  0.06765784  0.20747870  1
  S  S169  1  0.65534977  0.06599508  0.53630884  1
  S  S170  1  0.67233729  0.06683098  0.87496867  1
  S  S171  1  0.66558945  0.56298869  0.20870135  1
  S  S172  1  0.66497402  0.56149977  0.53975553  1
  S  S173  1  0.66647581  0.56600357  0.87734265  1
  O  O174  1  0.37269178  0.20685954  0.06293916  1
  O  O175  1  0.36948652  0.21991565  0.40593959  1
  O  O176  1  0.36027902  0.22818855  0.74648950  1
  O  O177  1  0.37130702  0.71881297  0.07457812  1
  O  O178  1  0.37032152  0.71654598  0.40730278  1
  O  O179  1  0.37259660  0.72023034  0.73887368  1
  O  O180  1  0.86484526  0.22091240  0.07723450  1
  O  O181  1  0.86624403  0.21152545  0.40674516  1
  O  O182  1  0.87351900  0.22833017  0.75895734  1
  O  O183  1  0.86787592  0.71853810  0.07950129  1
  O  O184  1  0.86950367  0.71659720  0.40832096  1
  O  O185  1  0.86707511  0.71769314  0.75091030  1
  O  O186  1  0.28885933  0.12868629  0.09719870  1
  O  O187  1  0.28048107  0.13281391  0.42058497  1
  O  O188  1  0.27416337  0.13479857  0.75691928  1
  O  O189  1  0.28416038  0.63199270  0.09269900  1
  O  O190  1  0.27952489  0.63064020  0.42139453  1
  O  O191  1  0.28300130  0.63345670  0.75527115  1
  O  O192  1  0.78085539  0.12956826  0.09327123  1
  O  O193  1  0.78106940  0.12288784  0.42702352  1
  O  O194  1  0.78776452  0.13177867  0.76678599  1
  O  O195  1  0.78089026  0.62854465  0.09482850  1
  O  O196  1  0.77211997  0.63274063  0.41741039  1
  O  O197  1  0.78324361  0.62583831  0.76725566  1
  O  O198  1  0.13386132  0.28007354  0.25455705  1
  O  O199  1  0.13401001  0.28510454  0.58631268  1
  O  O200  1  0.14012574  0.28717106  0.92743798  1
  O  O201  1  0.13226154  0.77834859  0.25366874  1
  O  O202  1  0.14188948  0.79469951  0.59466081  1
  O  O203  1  0.12884708  0.77754868  0.92514168  1
  O  O204  1  0.63440051  0.27916462  0.26238371  1
  O  O205  1  0.62770687  0.28396596  0.59062959  1
  O  O206  1  0.62571284  0.28317348  0.92246308  1
  O  O207  1  0.63154953  0.77986962  0.25753558  1
  O  O208  1  0.63195812  0.76466058  0.57635426  1
  O  O209  1  0.63079486  0.77903995  0.92717796  1
  O  O210  1  0.21996025  0.36781300  0.23670129  1
  O  O211  1  0.22396326  0.37293074  0.57385996  1
  O  O212  1  0.21473726  0.37742152  0.89894933  1
  O  O213  1  0.21689731  0.86803351  0.23684541  1
  O  O214  1  0.21179660  0.88682145  0.56280203  1
  O  O215  1  0.22117008  0.86885092  0.92025368  1
  O  O216  1  0.72784736  0.36523065  0.25207649  1
  O  O217  1  0.71630989  0.37039590  0.57309432  1
  O  O218  1  0.71600838  0.37024302  0.90821278  1
  O  O219  1  0.71815287  0.86806488  0.23963929  1
  O  O220  1  0.71124589  0.86167982  0.56010313  1
  O  O221  1  0.72100421  0.86533129  0.91054925  1
  O  O222  1  0.42781906  0.12963621  0.14860501  1
  O  O223  1  0.41776091  0.13537119  0.48497787  1
  O  O224  1  0.41156855  0.14520292  0.82553408  1
  O  O225  1  0.42223178  0.63092855  0.14972448  1
  O  O226  1  0.41717778  0.62699494  0.48289708  1
  O  O227  1  0.42036978  0.63481861  0.81805470  1
  O  O228  1  0.91830061  0.13372948  0.15272861  1
  O  O229  1  0.92057958  0.12543218  0.48178414  1
  O  O230  1  0.92689549  0.12423781  0.81136882  1
  O  O231  1  0.91983229  0.62605483  0.14876507  1
  O  O232  1  0.90874247  0.61902854  0.47487501  1
  O  O233  1  0.92176308  0.62450618  0.81769231  1
  O  O234  1  0.36909882  0.06723137  0.01641279  1
  O  O235  1  0.37163138  0.08140569  0.34890618  1
  O  O236  1  0.36815230  0.09018007  0.68853389  1
  O  O237  1  0.36998470  0.58092068  0.01448481  1
  O  O238  1  0.36819256  0.57841696  0.34728057  1
  O  O239  1  0.37388210  0.58189521  0.68299497  1
  O  O240  1  0.86792046  0.08335794  0.01628166  1
  O  O241  1  0.86461585  0.07371134  0.34667686  1
  O  O242  1  0.86239696  0.09490629  0.67753139  1
  O  O243  1  0.86287182  0.58181097  0.01330884  1
  O  O244  1  0.85534816  0.58067598  0.33909440  1
  O  O245  1  0.86041637  0.58060760  0.68133351  1
  O  O246  1  0.08162104  0.37195797  0.18372594  1
  O  O247  1  0.08529045  0.38025529  0.51959682  1
  O  O248  1  0.07540533  0.36582501  0.84647859  1
  O  O249  1  0.07812871  0.86925954  0.18329534  1
  O  O250  1  0.07217221  0.87544839  0.51840166  1
  O  O251  1  0.08516864  0.86318374  0.84650161  1
  O  O252  1  0.59110119  0.36473948  0.18355693  1
  O  O253  1  0.57798024  0.37250056  0.51655771  1
  O  O254  1  0.57822620  0.37430788  0.84901986  1
  O  O255  1  0.58050092  0.86631171  0.18052511  1
  O  O256  1  0.57281426  0.86235287  0.51670018  1
  O  O257  1  0.58301020  0.86265734  0.84800771  1
  O  O258  1  0.14048040  0.41731405  0.32024359  1
  O  O259  1  0.14322632  0.42146646  0.65613203  1
  O  O260  1  0.13021442  0.42496944  0.98004500  1
  O  O261  1  0.13396068  0.91582663  0.31878406  1
  O  O262  1  0.13643964  0.93179634  0.65200510  1
  O  O263  1  0.12317328  0.91453311  0.98329129  1
  O  O264  1  0.63203692  0.41667704  0.31867802  1
  O  O265  1  0.63157998  0.42232880  0.65173179  1
  O  O266  1  0.62929889  0.42131360  0.98430039  1
  O  O267  1  0.62993518  0.91810515  0.31536587  1
  O  O268  1  0.63894590  0.89968493  0.65102872  1
  O  O269  1  0.63398619  0.91694605  0.98526952  1
  O  O270  1  0.02834450  0.20972897  0.10943780  1
  O  O271  1  0.03570261  0.19465078  0.43383415  1
  O  O272  1  0.03218083  0.20406211  0.76480497  1
  O  O273  1  0.02812305  0.69828870  0.10305522  1
  O  O274  1  0.03246827  0.70460542  0.43458816  1
  O  O275  1  0.02824281  0.70228812  0.77280600  1
  O  O276  1  0.54346976  0.19488222  0.10424044  1
  O  O277  1  0.53005905  0.20145233  0.43363031  1
  O  O278  1  0.52079767  0.21225440  0.77288055  1
  O  O279  1  0.53321539  0.70011583  0.10365154  1
  O  O280  1  0.52508670  0.68862193  0.43248192  1
  O  O281  1  0.53224705  0.69373958  0.77176272  1
  O  O282  1  0.29279360  0.47181151  0.05872273  1
  O  O283  1  0.30329743  0.46858140  0.39327833  1
  O  O284  1  0.30359673  0.47618693  0.72832511  1
  O  O285  1  0.30923327  0.95986613  0.06187148  1
  O  O286  1  0.29825385  0.96713921  0.38768784  1
  O  O287  1  0.29567318  0.97913534  0.73842687  1
  O  O288  1  0.79486066  0.46764119  0.06056324  1
  O  O289  1  0.79127724  0.47386332  0.39777102  1
  O  O290  1  0.80159773  0.46314136  0.73037031  1
  O  O291  1  0.80373309  0.97061259  0.06292691  1
  O  O292  1  0.79590703  0.96071523  0.38864338  1
  O  O293  1  0.82894837  0.96270877  0.73589318  1
  O  O294  1  0.46906367  0.30227963  0.23026525  1
  O  O295  1  0.46798337  0.30262818  0.56202305  1
  O  O296  1  0.46580607  0.30863133  0.89310105  1
  O  O297  1  0.47057307  0.79653787  0.22848828  1
  O  O298  1  0.46948011  0.78474411  0.56069878  1
  O  O299  1  0.46688049  0.80419797  0.89596818  1
  O  O300  1  0.96957959  0.29742682  0.22595693  1
  O  O301  1  0.97274208  0.30069170  0.57330793  1
  O  O302  1  0.97214921  0.31753819  0.90180339  1
  O  O303  1  0.97011430  0.79882694  0.23052892  1
  O  O304  1  0.97036668  0.78532937  0.56187434  1
  O  O305  1  0.96710737  0.79426172  0.89895387  1
  O  O306  1  0.20177853  0.02974730  0.27432329  1
  O  O307  1  0.19183617  0.04818929  0.60823438  1
  O  O308  1  0.20747626  0.02426875  0.92893907  1
  O  O309  1  0.19926010  0.53168207  0.26877120  1
  O  O310  1  0.20994814  0.53499043  0.60637912  1
  O  O311  1  0.20700134  0.53496494  0.94151601  1
  O  O312  1  0.69540834  0.02898479  0.26692864  1
  O  O313  1  0.66945523  0.03451427  0.59742352  1
  O  O314  1  0.70515716  0.03008284  0.93840059  1
  O  O315  1  0.69153370  0.52365829  0.26711443  1
  O  O316  1  0.69660731  0.53013529  0.60369836  1
  O  O317  1  0.69700964  0.53093099  0.93928316  1
  O  O318  1  0.08790472  0.09924467  0.04999491  1
  O  O319  1  0.09085208  0.08621701  0.36430278  1
  O  O320  1  0.09675921  0.09790516  0.70749522  1
  O  O321  1  0.08212129  0.58602656  0.03756228  1
  O  O322  1  0.09047467  0.59491459  0.37299616  1
  O  O323  1  0.09548011  0.59556004  0.72116653  1
  O  O324  1  0.58984072  0.08699168  0.02849917  1
  O  O325  1  0.58193582  0.08695075  0.36628983  1
  O  O326  1  0.58362178  0.10355913  0.72068381  1
  O  O327  1  0.58101918  0.58500269  0.03601581  1
  O  O328  1  0.57724373  0.57806725  0.36437448  1
  O  O329  1  0.58322715  0.57977587  0.70576338  1
  O  O330  1  0.41124324  0.43001639  0.12571483  1
  O  O331  1  0.41696005  0.41851819  0.46112244  1
  O  O332  1  0.41564818  0.42426518  0.79444319  1
  O  O333  1  0.41804857  0.91146043  0.13757638  1
  O  O334  1  0.41038570  0.91091577  0.44913399  1
  O  O335  1  0.40083130  0.91156862  0.79065521  1
  O  O336  1  0.90534816  0.41283865  0.12553543  1
  O  O337  1  0.90360007  0.41734497  0.45602314  1
  O  O338  1  0.90827827  0.40250351  0.79833186  1
  O  O339  1  0.91365722  0.91506483  0.13075635  1
  O  O340  1  0.90546825  0.90162720  0.45172317  1
  O  O341  1  0.92525096  0.90872232  0.81768262  1
  O  O342  1  0.41400399  0.41207548  0.29482592  1
  O  O343  1  0.41886538  0.41839260  0.62679287  1
  O  O344  1  0.41611556  0.42392830  0.95840939  1
  O  O345  1  0.41838499  0.91024253  0.29398429  1
  O  O346  1  0.44021477  0.91230206  0.62383731  1
  O  O347  1  0.40689166  0.91003624  0.96511477  1
  O  O348  1  0.90778915  0.40592802  0.28577176  1
  O  O349  1  0.90826293  0.40329172  0.63384963  1
  O  O350  1  0.91604249  0.42294080  0.97235848  1
  O  O351  1  0.92011593  0.91350881  0.29685321  1
  O  O352  1  0.90519518  0.89397514  0.61273852  1
  O  O353  1  0.91107581  0.90545755  0.96527782  1
  O  O354  1  0.08779009  0.08299911  0.20898270  1
  O  O355  1  0.08982386  0.09919542  0.52805636  1
  O  O356  1  0.10529243  0.09539538  0.87795632  1
  O  O357  1  0.08932888  0.58839841  0.20287240  1
  O  O358  1  0.10137760  0.59494432  0.54573130  1
  O  O359  1  0.09077289  0.58263085  0.87761148  1
  O  O360  1  0.58650909  0.08466680  0.19980657  1
  O  O361  1  0.57257765  0.09027461  0.51897523  1
  O  O362  1  0.59441229  0.09043320  0.87799931  1
  O  O363  1  0.58324515  0.58214508  0.20220216  1
  O  O364  1  0.58184891  0.57819444  0.53639239  1
  O  O365  1  0.58309820  0.58049443  0.87087684  1
  O  O366  1  0.13057230  0.23011256  0.05823737  1
  O  O367  1  0.14185098  0.22212778  0.38985979  1
  O  O368  1  0.14152338  0.23349259  0.72569521  1
  O  O369  1  0.13744518  0.71939234  0.06013950  1
  O  O370  1  0.14023731  0.72779549  0.39024731  1
  O  O371  1  0.12764080  0.72578500  0.71929603  1
  O  O372  1  0.64829253  0.22125345  0.05772900  1
  O  O373  1  0.64097552  0.21962775  0.39210023  1
  O  O374  1  0.63033169  0.23527835  0.73096520  1
  O  O375  1  0.63764527  0.71649486  0.05240089  1
  O  O376  1  0.63432413  0.71228854  0.38902672  1
  O  O377  1  0.63915436  0.71225344  0.72429352  1
  O  O378  1  0.28270259  0.36257728  0.10552914  1
  O  O379  1  0.28443839  0.36317464  0.44251034  1
  O  O380  1  0.28247683  0.36887933  0.77460259  1
  O  O381  1  0.28315131  0.85534651  0.10846842  1
  O  O382  1  0.27914335  0.86158655  0.43632956  1
  O  O383  1  0.26622075  0.86380914  0.77109029  1
  O  O384  1  0.77211433  0.35887817  0.10395659  1
  O  O385  1  0.77220173  0.36205275  0.43890619  1
  O  O386  1  0.77159238  0.36310360  0.78048065  1
  O  O387  1  0.77894717  0.86296777  0.10635804  1
  O  O388  1  0.77268367  0.85724840  0.43738853  1
  O  O389  1  0.78541482  0.86893053  0.78869104  1
  O  O390  1  0.36023024  0.27791663  0.27428372  1
  O  O391  1  0.36095660  0.28686960  0.61000867  1
  O  O392  1  0.36294573  0.29312789  0.94645000  1
  O  O393  1  0.36190851  0.77765099  0.27318517  1
  O  O394  1  0.36245247  0.79176483  0.61130166  1
  O  O395  1  0.36555557  0.77372726  0.94478135  1
  O  O396  1  0.86665519  0.27293166  0.27488434  1
  O  O397  1  0.85911512  0.26701511  0.60577490  1
  O  O398  1  0.86050865  0.28670380  0.93933027  1
  O  O399  1  0.86471541  0.78093046  0.27922110  1
  O  O400  1  0.86422764  0.76245283  0.60734458  1
  O  O401  1  0.85989103  0.77133902  0.94397477  1
  O  O402  1  0.22019908  0.13226161  0.22336363  1
  O  O403  1  0.22784351  0.14574461  0.55900398  1
  O  O404  1  0.24022654  0.13877296  0.89735478  1
  O  O405  1  0.22365165  0.63807813  0.22353523  1
  O  O406  1  0.23450243  0.64300483  0.56307620  1
  O  O407  1  0.22086885  0.64041599  0.89223552  1
  O  O408  1  0.72202360  0.13913609  0.22606378  1
  O  O409  1  0.71089634  0.13251818  0.54765396  1
  O  O410  1  0.72648766  0.13781406  0.89353485  1
  O  O411  1  0.71825979  0.63307693  0.22527104  1
  O  O412  1  0.71438888  0.62996607  0.54786479  1
  O  O413  1  0.71576182  0.63847855  0.89336620  1
  O  O414  1  0.49670947  0.34991100  0.02846611  1
  O  O415  1  0.49060906  0.33399984  0.36368502  1
  O  O416  1  0.49188265  0.33966530  0.69682929  1
  O  O417  1  0.49517230  0.83522976  0.02978394  1
  O  O418  1  0.49300489  0.82924723  0.36216467  1
  O  O419  1  0.49576226  0.82619287  0.69623803  1
  O  O420  1  0.98999902  0.33748702  0.03257462  1
  O  O421  1  0.99586267  0.33881913  0.36069062  1
  O  O422  1  0.98352054  0.32512345  0.70354992  1
  O  O423  1  0.99084663  0.82844416  0.03239535  1
  O  O424  1  0.99676744  0.83511448  0.36587652  1
  O  O425  1  0.98919047  0.83042695  0.69501849  1
  O  O426  1  0.16117327  -0.00085145  0.13931726  1
  O  O427  1  0.17314027  0.01419135  0.47463125  1
  O  O428  1  0.17492758  0.01721211  0.79833004  1
  O  O429  1  0.16554883  0.50798779  0.13485859  1
  O  O430  1  0.17616034  0.51395346  0.47311851  1
  O  O431  1  0.17111378  0.50857253  0.80708206  1
  O  O432  1  0.66824541  0.00999849  0.13404206  1
  O  O433  1  0.65240480  0.00243408  0.46335988  1
  O  O434  1  0.66737866  0.00748767  0.80494038  1
  O  O435  1  0.66071369  0.50431160  0.13428885  1
  O  O436  1  0.65662914  0.49884362  0.46692203  1
  O  O437  1  0.66670440  0.50675218  0.80576721  1
  O  O438  1  0.01133011  0.16727233  0.30139666  1
  O  O439  1  0.01554510  0.16882476  0.63197591  1
  O  O440  1  -0.00029918  0.16588616  0.97408801  1
  O  O441  1  0.01044590  0.66889301  0.30099301  1
  O  O442  1  0.00141759  0.64925811  0.63796939  1
  O  O443  1  0.00746066  0.66572428  0.96934427  1
  O  O444  1  0.51014236  0.17023011  0.30054430  1
  O  O445  1  0.50522193  0.17249198  0.63957143  1
  O  O446  1  0.51543095  0.17759241  0.97276899  1
  O  O447  1  0.50393081  0.66250821  0.30015194  1
  O  O448  1  0.50774453  0.65832450  0.63733244  1
  O  O449  1  0.50459860  0.66495646  0.96877243  1
  O  O450  1  0.32642162  0.49429150  0.19337130  1
  O  O451  1  0.33799409  0.49556432  0.52809347  1
  O  O452  1  0.33562552  0.49960095  0.86192594  1
  O  O453  1  0.33143250  0.98801578  0.19480836  1
  O  O454  1  0.33706537  0.99294907  0.52199031  1
  O  O455  1  0.33000771  0.98559434  0.86922729  1
  O  O456  1  0.82442719  0.48912832  0.19325662  1
  O  O457  1  0.82584951  0.49013283  0.53043086  1
  O  O458  1  0.83575802  0.49204552  0.86435419  1
  O  O459  1  0.83396302  0.99217839  0.19674529  1
  O  O460  1  0.83354864  0.98922391  0.52285045  1
  O  O461  1  0.84610247  0.99870548  0.87027875  1
