# generated using pymatgen
data_Na31Fe20(SO4)36
_symmetry_space_group_name_H-M   'P 1'
_cell_length_a   18.06882398
_cell_length_b   18.07382394
_cell_length_c   19.69933637
_cell_angle_alpha   107.58933740
_cell_angle_beta   107.58345918
_cell_angle_gamma   90.72924462
_symmetry_Int_Tables_number   1
_chemical_formula_structural   Na31Fe20(SO4)36
_chemical_formula_sum   'Na62 Fe40 S72 O288'
_cell_volume   5807.54263993
_cell_formula_units_Z   2
loop_
 _symmetry_equiv_pos_site_id
 _symmetry_equiv_pos_as_xyz
  1  'x, y, z'
loop_
 _atom_site_type_symbol
 _atom_site_label
 _atom_site_symmetry_multiplicity
 _atom_site_fract_x
 _atom_site_fract_y
 _atom_site_fract_z
 _atom_site_occupancy
  Na  Na0  1  0.13272626  0.35750339  0.07702068  1
  Na  Na1  1  0.13745724  0.36883541  0.41957401  1
  Na  Na2  1  0.13208209  0.35128198  0.74382098  1
  Na  Na3  1  0.11145312  0.88373064  0.08998036  1
  Na  Na4  1  0.17333783  0.87050823  0.44883489  1
  Na  Na5  1  0.13510726  0.87223473  0.75675737  1
  Na  Na6  1  0.63599892  0.36426306  0.08436052  1
  Na  Na7  1  0.62885487  0.34941474  0.39579220  1
  Na  Na8  1  0.62999559  0.38060828  0.74973997  1
  Na  Na9  1  0.63157182  0.86517966  0.08148407  1
  Na  Na10  1  0.63309624  0.86666845  0.41572138  1
  Na  Na11  1  0.63623112  0.86730756  0.75406337  1
  Na  Na12  1  0.36304182  0.15626188  0.25571937  1
  Na  Na13  1  0.35050649  0.13300001  0.57895152  1
  Na  Na14  1  0.36362358  0.12454913  0.91683678  1
  Na  Na15  1  0.36592183  0.63386436  0.25033721  1
  Na  Na16  1  0.36296908  0.63800049  0.58093069  1
  Na  Na17  1  0.36845845  0.63136646  0.91321472  1
  Na  Na18  1  0.86769388  0.13204923  0.25141673  1
  Na  Na19  1  0.87351688  0.14377332  0.59567911  1
  Na  Na20  1  0.86596907  0.13922282  0.91831495  1
  Na  Na21  1  0.86462504  0.63450617  0.24862515  1
  Na  Na22  1  0.86570885  0.63662477  0.58707644  1
  Na  Na23  1  0.86681283  0.62952791  0.91603852  1
  Na  Na24  1  0.99196320  0.50941419  0.41696517  1
  Na  Na25  1  0.45911099  0.00520731  0.75605084  1
  Na  Na26  1  0.48569628  0.01330483  0.41426323  1
  Na  Na27  1  0.98765895  0.52314702  0.08118951  1
  Na  Na28  1  0.48180234  0.02363018  0.05165818  1
  Na  Na29  1  1.05397891  -0.02313492  0.35447530  1
  Na  Na30  1  0.98681802  0.49972911  0.75573627  1
  Na  Na31  1  0.99192093  0.05664760  0.76490494  1
  Na  Na32  1  0.49268408  0.50649243  0.07663366  1
  Na  Na33  1  0.53580747  0.49503754  0.59811237  1
  Na  Na34  1  0.48041907  1.01165218  0.59946582  1
  Na  Na35  1  0.01634118  0.48885716  0.24717146  1
  Na  Na36  1  0.00844851  0.99994153  0.92374507  1
  Na  Na37  1  0.47842120  1.03719377  0.22293142  1
  Na  Na38  1  0.00762843  0.43919280  0.90470432  1
  Na  Na39  1  0.00776742  0.48480672  0.58669207  1
  Na  Na40  1  0.50301352  0.47939401  0.26422379  1
  Na  Na41  1  0.01891151  0.99753606  0.56773343  1
  Na  Na42  1  0.26421371  0.77287106  0.65073891  1
  Na  Na43  1  0.74844651  0.24838382  0.00202152  1
  Na  Na44  1  0.24872184  0.24998682  0.33426117  1
  Na  Na45  1  0.76814857  0.76098599  0.00067331  1
  Na  Na46  1  0.74160553  0.73544448  0.67480342  1
  Na  Na47  1  0.76311784  0.26406594  0.65946962  1
  Na  Na48  1  0.24694382  0.74977866  0.34280771  1
  Na  Na49  1  0.23853037  0.23717927  0.01244453  1
  Na  Na50  1  0.25507255  0.76160558  -0.00653544  1
  Na  Na51  1  0.75634322  0.75640310  0.32962487  1
  Na  Na52  1  0.23472691  0.23437741  0.50924202  1
  Na  Na53  1  0.75718093  0.25874231  0.48435243  1
  Na  Na54  1  0.73134843  0.23820335  0.18705458  1
  Na  Na55  1  0.74587171  0.74590610  0.50308465  1
  Na  Na56  1  0.73764373  0.73195933  0.83456430  1
  Na  Na57  1  0.76302332  0.75985652  0.15916793  1
  Na  Na58  1  0.26130154  0.76548325  0.82745519  1
  Na  Na59  1  0.24108943  0.74847856  0.16559933  1
  Na  Na60  1  0.76332569  0.26249023  0.82474737  1
  Na  Na61  1  0.24124942  0.24032200  0.83697422  1
  Fe  Fe62  1  0.46653683  0.30088574  0.12209221  1
  Fe  Fe63  1  0.46710168  0.30802890  0.45192905  1
  Fe  Fe64  1  0.46479828  0.81043251  0.78793325  1
  Fe  Fe65  1  0.96482089  0.80810381  0.78664330  1
  Fe  Fe66  1  0.46484761  0.81097945  0.45606844  1
  Fe  Fe67  1  0.96045156  0.30782772  0.44744481  1
  Fe  Fe68  1  0.46448550  0.81018124  0.11993083  1
  Fe  Fe69  1  0.96613652  0.80680946  0.45472762  1
  Fe  Fe70  1  0.96834667  0.30225964  0.11783947  1
  Fe  Fe71  1  0.46023737  0.31080055  0.78594605  1
  Fe  Fe72  1  0.19423216  0.53479472  0.71647424  1
  Fe  Fe73  1  0.69103009  0.03401964  0.04766894  1
  Fe  Fe74  1  0.20075598  0.03210324  0.04115125  1
  Fe  Fe75  1  0.68760471  0.53508677  0.04434459  1
  Fe  Fe76  1  0.19352152  0.52979578  0.04501370  1
  Fe  Fe77  1  0.20008968  0.03036695  0.70934890  1
  Fe  Fe78  1  0.69306627  0.53565525  0.38039678  1
  Fe  Fe79  1  0.68740590  0.03762159  0.37678539  1
  Fe  Fe80  1  0.68959824  0.03243980  0.71331428  1
  Fe  Fe81  1  0.19555940  0.53781234  0.38520653  1
  Fe  Fe82  1  0.03970624  0.18287391  0.20858736  1
  Fe  Fe83  1  0.03564389  0.18934341  0.54189826  1
  Fe  Fe84  1  0.53434035  0.69549130  0.21457202  1
  Fe  Fe85  1  0.03269083  0.69895352  0.21266249  1
  Fe  Fe86  1  0.53441835  0.68993469  0.54732943  1
  Fe  Fe87  1  0.03453774  0.69446048  0.55204749  1
  Fe  Fe88  1  0.53561681  0.68910202  0.87854855  1
  Fe  Fe89  1  0.53327246  0.19312574  0.87957676  1
  Fe  Fe90  1  0.03151195  0.69323064  0.88499547  1
  Fe  Fe91  1  0.53522657  0.19424975  0.54924839  1
  Fe  Fe92  1  0.30895778  0.46568820  0.94987240  1
  Fe  Fe93  1  0.80603754  0.46508671  0.28329391  1
  Fe  Fe94  1  0.80637248  0.96626162  0.62024929  1
  Fe  Fe95  1  0.80348034  0.46619348  0.95049772  1
  Fe  Fe96  1  0.81036543  0.96580084  0.28609466  1
  Fe  Fe97  1  0.80098233  0.46752911  0.62218204  1
  Fe  Fe98  1  0.30117264  0.96842463  0.28951633  1
  Fe  Fe99  1  0.81248587  0.96256254  0.95896688  1
  Fe  Fe100  1  0.31285329  0.46318863  0.62379189  1
  Fe  Fe101  1  0.30935224  0.46542026  0.28925163  1
  S  S102  1  0.35980690  0.13964205  0.08632204  1
  S  S103  1  0.36005185  0.14305316  0.41636396  1
  S  S104  1  0.36031852  0.14213508  0.75022643  1
  S  S105  1  0.35970942  0.64032380  0.08312133  1
  S  S106  1  0.36004298  0.64128922  0.41630294  1
  S  S107  1  0.35681968  0.64187169  0.74963149  1
  S  S108  1  0.85807453  0.14100261  0.08424547  1
  S  S109  1  0.85733919  0.14108990  0.41650491  1
  S  S110  1  0.85076801  0.14025681  0.74810681  1
  S  S111  1  0.85794924  0.63827120  0.08751041  1
  S  S112  1  0.86169146  0.63911869  0.41702598  1
  S  S113  1  0.86246593  0.63984855  0.74612512  1
  S  S114  1  0.14040189  0.36236792  0.25210174  1
  S  S115  1  0.13750861  0.36310590  0.58135317  1
  S  S116  1  0.14894695  0.35700252  0.91605587  1
  S  S117  1  0.14707812  0.85279643  0.25525428  1
  S  S118  1  0.13817637  0.85971942  0.58734862  1
  S  S119  1  0.13712631  0.85803987  0.92034600  1
  S  S120  1  0.63851626  0.36314109  0.24725458  1
  S  S121  1  0.64074469  0.35610509  0.58025923  1
  S  S122  1  0.63782854  0.35943715  0.91493424  1
  S  S123  1  0.64191922  0.85915319  0.25157021  1
  S  S124  1  0.64294760  0.85712135  0.58334622  1
  S  S125  1  0.64174857  0.85906635  0.91660637  1
  S  S126  1  0.06664181  0.16462732  0.03868355  1
  S  S127  1  0.06809429  0.17832479  0.37673047  1
  S  S128  1  0.07006501  0.16213856  0.70522689  1
  S  S129  1  0.06436162  0.65178043  0.03656760  1
  S  S130  1  0.06836017  0.67027276  0.37605158  1
  S  S131  1  0.06866623  0.66778548  0.71144489  1
  S  S132  1  0.56926924  0.17284623  0.04307016  1
  S  S133  1  0.56277069  0.16662178  0.37630994  1
  S  S134  1  0.56712360  0.17312808  0.71114783  1
  S  S135  1  0.56631859  0.66991918  0.04515535  1
  S  S136  1  0.56761048  0.67066065  0.37507402  1
  S  S137  1  0.56367159  0.67149399  0.71095947  1
  S  S138  1  0.33320559  0.43465205  0.12496870  1
  S  S139  1  0.33064245  0.43374669  0.46039399  1
  S  S140  1  0.32696428  0.43211129  0.78933436  1
  S  S141  1  0.32455962  0.93043977  0.12586603  1
  S  S142  1  0.34738096  0.93920406  0.46057196  1
  S  S143  1  0.32651474  0.93290977  0.79115491  1
  S  S144  1  0.83127287  0.43268589  0.12472938  1
  S  S145  1  0.82901806  0.43574556  0.45692265  1
  S  S146  1  0.83149592  0.43648650  0.78946327  1
  S  S147  1  0.82799340  0.93194636  0.12194859  1
  S  S148  1  0.82885123  0.93211116  0.45798430  1
  S  S149  1  0.82950007  0.93077701  0.79187594  1
  S  S150  1  0.43088872  0.33949881  0.29513545  1
  S  S151  1  0.43251654  0.32901315  0.62125407  1
  S  S152  1  0.43232411  0.32722168  0.95828588  1
  S  S153  1  0.43069162  0.82897949  0.28931960  1
  S  S154  1  0.44186393  0.83137855  0.62621721  1
  S  S155  1  0.43717651  0.82678809  0.95702909  1
  S  S156  1  0.93278676  0.33537352  0.28892569  1
  S  S157  1  0.93463734  0.33534287  0.62169553  1
  S  S158  1  0.92791772  0.33417178  0.96136602  1
  S  S159  1  0.93318424  0.82773694  0.29409913  1
  S  S160  1  0.93001699  0.83066235  0.62448612  1
  S  S161  1  0.92959574  0.82503150  0.95335628  1
  S  S162  1  0.17643376  0.06728906  0.20790959  1
  S  S163  1  0.16534921  0.06312487  0.53944564  1
  S  S164  1  0.17190043  0.06224837  0.87748436  1
  S  S165  1  0.17053813  0.56567968  0.21037959  1
  S  S166  1  0.16638197  0.56903265  0.54499334  1
  S  S167  1  0.17027029  0.56949946  0.87656226  1
  S  S168  1  0.66856005  0.06050999  0.20753739  1
  S  S169  1  0.66889822  0.06622824  0.54214278  1
  S  S170  1  0.66714282  0.06695481  0.87486436  1
  S  S171  1  0.66815088  0.57002421  0.20903776  1
  S  S172  1  0.67053820  0.56674362  0.53995160  1
  S  S173  1  0.67364511  0.57042869  0.88055788  1
  O  O174  1  0.36844329  0.22279716  0.08692471  1
  O  O175  1  0.37422468  0.22066070  0.40535049  1
  O  O176  1  0.36700776  0.22390213  0.74988413  1
  O  O177  1  0.36718800  0.71914972  0.07473831  1
  O  O178  1  0.37159838  0.71995598  0.40797696  1
  O  O179  1  0.36330580  0.72196314  0.74272302  1
  O  O180  1  0.86977973  0.21863770  0.07351376  1
  O  O181  1  0.86352997  0.21998120  0.40800751  1
  O  O182  1  0.85751179  0.21504278  0.73505340  1
  O  O183  1  0.86244913  0.71659067  0.08180771  1
  O  O184  1  0.87051108  0.71741065  0.40784037  1
  O  O185  1  0.87895344  0.71481227  0.73148664  1
  O  O186  1  0.27388412  0.12795433  0.08125677  1
  O  O187  1  0.28382210  0.13830816  0.42625853  1
  O  O188  1  0.27957165  0.12743443  0.75580918  1
  O  O189  1  0.28167332  0.62932110  0.09217121  1
  O  O190  1  0.28044877  0.63291508  0.42306959  1
  O  O191  1  0.27949548  0.63193451  0.76168663  1
  O  O192  1  0.77909732  0.13544309  0.09334177  1
  O  O193  1  0.77825180  0.12852217  0.42405008  1
  O  O194  1  0.76872349  0.12758445  0.75142968  1
  O  O195  1  0.78147042  0.62327016  0.09990815  1
  O  O196  1  0.78301532  0.63112590  0.42576360  1
  O  O197  1  0.78419578  0.63915701  0.75251039  1
  O  O198  1  0.12966406  0.28468464  0.26126750  1
  O  O199  1  0.12618952  0.28291656  0.58440502  1
  O  O200  1  0.14188380  0.27948325  0.92279926  1
  O  O201  1  0.13817616  0.76553242  0.24415647  1
  O  O202  1  0.12279126  0.78368999  0.60009878  1
  O  O203  1  0.11968127  0.78493788  0.93675182  1
  O  O204  1  0.63414857  0.28757140  0.25798201  1
  O  O205  1  0.63359975  0.27626419  0.58831652  1
  O  O206  1  0.63099575  0.28067807  0.92458086  1
  O  O207  1  0.63042381  0.78106373  0.26184995  1
  O  O208  1  0.63681397  0.77769095  0.59115992  1
  O  O209  1  0.63671963  0.77869685  0.92333957  1
  O  O210  1  0.21902895  0.37312622  0.24586875  1
  O  O211  1  0.21605470  0.37282310  0.57261236  1
  O  O212  1  0.23094667  0.37181004  0.91352518  1
  O  O213  1  0.23029187  0.86572963  0.25355569  1
  O  O214  1  0.21355270  0.86206133  0.57554521  1
  O  O215  1  0.21434101  0.85685975  0.91165660  1
  O  O216  1  0.71585151  0.37737932  0.23554823  1
  O  O217  1  0.72188632  0.36543964  0.57553405  1
  O  O218  1  0.71607459  0.36928947  0.90519081  1
  O  O219  1  0.72205018  0.86441139  0.24502598  1
  O  O220  1  0.72235354  0.86887681  0.57625038  1
  O  O221  1  0.72072556  0.87054170  0.90804300  1
  O  O222  1  0.40916914  0.12716284  0.15526751  1
  O  O223  1  0.42188114  0.13327589  0.48300532  1
  O  O224  1  0.41757079  0.13206696  0.81962371  1
  O  O225  1  0.42037803  0.63248217  0.15076624  1
  O  O226  1  0.41802950  0.63329124  0.48453706  1
  O  O227  1  0.41805054  0.63318428  0.81545747  1
  O  O228  1  0.91747680  0.13534634  0.15268091  1
  O  O229  1  0.91621205  0.13628579  0.48613601  1
  O  O230  1  0.90637049  0.13382686  0.81688952  1
  O  O231  1  0.92038673  0.62893248  0.15416359  1
  O  O232  1  0.92128172  0.63069511  0.48494876  1
  O  O233  1  0.92072659  0.63065578  0.81470701  1
  O  O234  1  0.37459518  0.08744964  0.01997344  1
  O  O235  1  0.36673955  0.08216721  0.34723659  1
  O  O236  1  0.37299837  0.08699542  0.68409079  1
  O  O237  1  0.36917072  0.58118998  0.01537853  1
  O  O238  1  0.36680670  0.58228980  0.34763422  1
  O  O239  1  0.36014164  0.58427683  0.67894310  1
  O  O240  1  0.86236289  0.08023773  0.01555936  1
  O  O241  1  0.86680811  0.08205386  0.34934323  1
  O  O242  1  0.86220422  0.07706323  0.68167494  1
  O  O243  1  0.86682927  0.57939958  0.01917925  1
  O  O244  1  0.87025170  0.57913679  0.34948474  1
  O  O245  1  0.87107982  0.57621366  0.68030762  1
  O  O246  1  0.08097574  0.37080854  0.18360697  1
  O  O247  1  0.07766157  0.37719438  0.51600712  1
  O  O248  1  0.09308849  0.36901106  0.84981928  1
  O  O249  1  0.09170004  0.87191225  0.19423530  1
  O  O250  1  0.07574424  0.87027624  0.52194639  1
  O  O251  1  0.07764845  0.86612769  0.85170666  1
  O  O252  1  0.57735228  0.37078957  0.17941095  1
  O  O253  1  0.58515134  0.36104545  0.50852652  1
  O  O254  1  0.57770022  0.36571832  0.84737786  1
  O  O255  1  0.58428723  0.86569614  0.18264072  1
  O  O256  1  0.58478175  0.86287013  0.51408619  1
  O  O257  1  0.58241609  0.86639050  0.84896358  1
  O  O258  1  0.12992380  0.42355733  0.31918166  1
  O  O259  1  0.13053327  0.42046174  0.65145194  1
  O  O260  1  0.13898270  0.41637973  0.98562972  1
  O  O261  1  0.14234257  0.89476793  0.32983506  1
  O  O262  1  0.13367188  0.92231736  0.65648041  1
  O  O263  1  0.13135086  0.92495007  0.98612232  1
  O  O264  1  0.62956281  0.42570156  0.31397760  1
  O  O265  1  0.62794283  0.41450911  0.64403619  1
  O  O266  1  0.63203111  0.41821155  0.98442795  1
  O  O267  1  0.63457571  0.91904443  0.31925957  1
  O  O268  1  0.63351551  0.91559394  0.65095935  1
  O  O269  1  0.63320264  0.91583499  0.98501210  1
  O  O270  1  0.03836767  0.19673739  0.10706684  1
  O  O271  1  0.02542972  0.20854470  0.43433727  1
  O  O272  1  0.03088159  0.17642340  0.76119009  1
  O  O273  1  0.03049292  0.67202174  0.09823084  1
  O  O274  1  0.03342274  0.69990420  0.43856767  1
  O  O275  1  0.03734394  0.69941171  0.77532781  1
  O  O276  1  0.53097340  0.20062673  0.10105474  1
  O  O277  1  0.53290348  0.19936690  0.44217306  1
  O  O278  1  0.52865149  0.20226595  0.77064781  1
  O  O279  1  0.52944892  0.70337083  0.10609915  1
  O  O280  1  0.53249823  0.69889565  0.43675744  1
  O  O281  1  0.52553148  0.70728336  0.77067112  1
  O  O282  1  0.30511002  0.47427522  0.06592719  1
  O  O283  1  0.30118110  0.47242600  0.40051794  1
  O  O284  1  0.29678013  0.47027175  0.72828258  1
  O  O285  1  0.29469676  0.96935271  0.06795615  1
  O  O286  1  0.32301738  0.97002246  0.39630388  1
  O  O287  1  0.29582825  0.96996496  0.72992134  1
  O  O288  1  0.79838087  0.46490929  0.06171697  1
  O  O289  1  0.79855676  0.47045894  0.39414543  1
  O  O290  1  0.79860192  0.47226132  0.73015583  1
  O  O291  1  0.79226852  0.97241428  0.06283302  1
  O  O292  1  0.80126874  0.96639634  0.39565905  1
  O  O293  1  0.79774372  0.96624445  0.73040102  1
  O  O294  1  0.46511305  0.31830450  0.23370732  1
  O  O295  1  0.47318261  0.30074597  0.56263391  1
  O  O296  1  0.47071608  0.30032303  0.89822214  1
  O  O297  1  0.46918560  0.80227036  0.22885502  1
  O  O298  1  0.47748555  0.79572231  0.56390684  1
  O  O299  1  0.47529426  0.79170665  0.89689476  1
  O  O300  1  0.96922563  0.30555981  0.22869915  1
  O  O301  1  0.96542623  0.30613798  0.55581135  1
  O  O302  1  0.95843367  0.31517916  0.89914019  1
  O  O303  1  0.97063162  0.79778059  0.23599017  1
  O  O304  1  0.96341060  0.79685046  0.56145087  1
  O  O305  1  0.95957454  0.79195400  0.88653701  1
  O  O306  1  0.20148229  0.02226533  0.26150013  1
  O  O307  1  0.18972492  0.03203525  0.60488110  1
  O  O308  1  0.20409380  0.02253987  0.93526204  1
  O  O309  1  0.20045564  0.52997490  0.27199743  1
  O  O310  1  0.19542114  0.53252002  0.60532379  1
  O  O311  1  0.20188087  0.53392217  0.93792665  1
  O  O312  1  0.70275218  0.02358288  0.26919782  1
  O  O313  1  0.69611445  0.02626145  0.60085271  1
  O  O314  1  0.69376585  0.03159764  0.93660981  1
  O  O315  1  0.70109691  0.53760145  0.27240078  1
  O  O316  1  0.70072974  0.52961563  0.59832394  1
  O  O317  1  0.70451589  0.53517818  0.94466719  1
  O  O318  1  0.10203952  0.08931089  0.04065285  1
  O  O319  1  0.08996437  0.10167399  0.37673616  1
  O  O320  1  0.09493655  0.07859589  0.69232768  1
  O  O321  1  0.07936073  0.56651675  0.02142618  1
  O  O322  1  0.08353228  0.58659241  0.37057604  1
  O  O323  1  0.08263912  0.58398700  0.70402570  1
  O  O324  1  0.58966288  0.09178353  0.04016411  1
  O  O325  1  0.57912669  0.08328022  0.37224820  1
  O  O326  1  0.58593623  0.09167781  0.70727423  1
  O  O327  1  0.58293699  0.58918122  0.04586479  1
  O  O328  1  0.58602058  0.58894319  0.36667460  1
  O  O329  1  0.58208241  0.59398635  0.71253583  1
  O  O330  1  0.41563379  0.41804580  0.13017998  1
  O  O331  1  0.41221632  0.41613658  0.46794340  1
  O  O332  1  0.40551558  0.41061628  0.78922459  1
  O  O333  1  0.40589220  0.91199550  0.12699751  1
  O  O334  1  0.43314688  0.92359797  0.47165993  1
  O  O335  1  0.40253132  0.90409382  0.78157677  1
  O  O336  1  0.91451844  0.41825314  0.13238164  1
  O  O337  1  0.91245853  0.42119894  0.46162404  1
  O  O338  1  0.91322352  0.42329463  0.79460022  1
  O  O339  1  0.90242677  0.90943894  0.11666592  1
  O  O340  1  0.91044014  0.91247677  0.46643411  1
  O  O341  1  0.91238344  0.91633500  0.79737025  1
  O  O342  1  0.41645166  0.42428776  0.30978901  1
  O  O343  1  0.41558591  0.41053599  0.62485433  1
  O  O344  1  0.41357594  0.40899207  0.96444712  1
  O  O345  1  0.40960352  0.90948155  0.29489340  1
  O  O346  1  0.43118767  0.91286169  0.63057307  1
  O  O347  1  0.42349094  0.90627735  0.95992108  1
  O  O348  1  0.91791746  0.41919392  0.29474555  1
  O  O349  1  0.91307039  0.41731645  0.62563179  1
  O  O350  1  0.91073015  0.41915315  0.97930393  1
  O  O351  1  0.91394523  0.90886730  0.29795538  1
  O  O352  1  0.91408600  0.91216461  0.62851864  1
  O  O353  1  0.91181491  0.90635923  0.95449873  1
  O  O354  1  0.09531102  0.08454109  0.20261256  1
  O  O355  1  0.08265990  0.08424593  0.52966093  1
  O  O356  1  0.08888862  0.06862214  0.86983480  1
  O  O357  1  0.08834001  0.58234124  0.20600875  1
  O  O358  1  0.08240169  0.58352796  0.53833955  1
  O  O359  1  0.08805095  0.58585608  0.87017734  1
  O  O360  1  0.58779973  0.07387064  0.20267598  1
  O  O361  1  0.58693416  0.08424293  0.53721687  1
  O  O362  1  0.58500965  0.08561660  0.86453665  1
  O  O363  1  0.58542689  0.58526621  0.20338101  1
  O  O364  1  0.59055125  0.58778875  0.54001820  1
  O  O365  1  0.59745473  0.59775088  0.88518298  1
  O  O366  1  0.12588374  0.22355568  0.04356844  1
  O  O367  1  0.13732145  0.23541383  0.39665187  1
  O  O368  1  0.13924627  0.21773423  0.72454800  1
  O  O369  1  0.13684204  0.70177234  0.05342678  1
  O  O370  1  0.13973002  0.71973098  0.39040336  1
  O  O371  1  0.14011992  0.71634844  0.72325165  1
  O  O372  1  0.64115873  0.22534782  0.05989115  1
  O  O373  1  0.63515923  0.21450589  0.38906834  1
  O  O374  1  0.63615151  0.22685551  0.72620771  1
  O  O375  1  0.63875444  0.72001853  0.06087516  1
  O  O376  1  0.63905756  0.72309246  0.39132344  1
  O  O377  1  0.63424424  0.72553696  0.72601458  1
  O  O378  1  0.28043427  0.36454467  0.10757920  1
  O  O379  1  0.27742121  0.36253398  0.44152699  1
  O  O380  1  0.27198249  0.36559822  0.77664379  1
  O  O381  1  0.27260296  0.85925973  0.11010945  1
  O  O382  1  0.30014724  0.86513973  0.44428917  1
  O  O383  1  0.27087426  0.86324349  0.77443328  1
  O  O384  1  0.78240448  0.36074366  0.11224434  1
  O  O385  1  0.77966495  0.36395724  0.44143018  1
  O  O386  1  0.78103522  0.36342042  0.77385396  1
  O  O387  1  0.76987735  0.86409922  0.10689744  1
  O  O388  1  0.77579399  0.86078849  0.44170710  1
  O  O389  1  0.78018364  0.85737070  0.77520663  1
  O  O390  1  0.35857053  0.29046189  0.27976816  1
  O  O391  1  0.36113517  0.27658116  0.60164494  1
  O  O392  1  0.36263445  0.27304107  0.94094206  1
  O  O393  1  0.36203389  0.77268295  0.27100781  1
  O  O394  1  0.36950145  0.78178119  0.61014877  1
  O  O395  1  0.36478405  0.77446161  0.93940492  1
  O  O396  1  0.86106011  0.28615392  0.27433178  1
  O  O397  1  0.86331439  0.28262387  0.60576935  1
  O  O398  1  0.85573084  0.28310591  0.94704251  1
  O  O399  1  0.86083091  0.77555087  0.27801142  1
  O  O400  1  0.85825800  0.78005609  0.61011435  1
  O  O401  1  0.85656883  0.77450395  0.93734351  1
  O  O402  1  0.22945523  0.13931705  0.23128835  1
  O  O403  1  0.21790200  0.13331644  0.55526322  1
  O  O404  1  0.22019461  0.13740168  0.89827922  1
  O  O405  1  0.22302401  0.63644093  0.22646705  1
  O  O406  1  0.21577067  0.64084568  0.56018309  1
  O  O407  1  0.22118196  0.64128916  0.89202451  1
  O  O408  1  0.72071390  0.13124845  0.22372995  1
  O  O409  1  0.72210787  0.13686279  0.56039443  1
  O  O410  1  0.72053973  0.13764151  0.89163053  1
  O  O411  1  0.71762062  0.64205430  0.22277165  1
  O  O412  1  0.72295961  0.63846205  0.55469137  1
  O  O413  1  0.73072991  0.63894343  0.89697609  1
  O  O414  1  0.49145965  0.33036267  0.03135380  1
  O  O415  1  0.49180715  0.33481962  0.36462366  1
  O  O416  1  0.48947664  0.33028425  0.69448643  1
  O  O417  1  0.49399562  0.82566281  0.03074308  1
  O  O418  1  0.49059782  0.83125550  0.36167816  1
  O  O419  1  0.50004124  0.83083438  0.69879571  1
  O  O420  1  0.98920231  0.32993987  0.03187033  1
  O  O421  1  0.99151628  0.33989174  0.36308716  1
  O  O422  1  0.99622179  0.33997114  0.69089203  1
  O  O423  1  0.98985993  0.82493321  0.02108460  1
  O  O424  1  0.99060331  0.83260715  0.36889869  1
  O  O425  1  0.99064333  0.83181777  0.69584512  1
  O  O426  1  0.17663299  0.01426077  0.13213434  1
  O  O427  1  0.16283204  -0.00010957  0.47140779  1
  O  O428  1  0.17741195  0.01078539  0.80256174  1
  O  O429  1  0.16802046  0.50656371  0.13765626  1
  O  O430  1  0.16339012  0.51004487  0.47143080  1
  O  O431  1  0.16841700  0.50936135  0.80445076  1
  O  O432  1  0.66838956  0.00166802  0.13471910  1
  O  O433  1  0.66622461  0.00832680  0.46849134  1
  O  O434  1  0.66761522  0.00647401  0.80346354  1
  O  O435  1  0.66618125  0.50885758  0.13753688  1
  O  O436  1  0.66410856  0.50943614  0.46487910  1
  O  O437  1  0.66555257  0.51010124  0.81044449  1
  O  O438  1  0.01112324  0.17634737  0.30235505  1
  O  O439  1  0.01240600  0.16059804  0.63051949  1
  O  O440  1  -0.00219641  0.14422839  0.97136559  1
  O  O441  1  0.00789556  0.66685459  0.30363315  1
  O  O442  1  0.00662232  0.66611504  0.63998955  1
  O  O443  1  0.00414031  0.65670180  0.96697053  1
  O  O444  1  0.50047673  0.16342562  0.30750802  1
  O  O445  1  0.50716788  0.16606137  0.63672425  1
  O  O446  1  0.51220071  0.16776825  0.96822903  1
  O  O447  1  0.50773951  0.67011067  0.30317786  1
  O  O448  1  0.50568167  0.66698421  0.63613093  1
  O  O449  1  0.50817620  0.66579849  0.97219488  1
  O  O450  1  0.33638985  0.49303841  0.19902221  1
  O  O451  1  0.32937322  0.49249029  0.53229579  1
  O  O452  1  0.33473286  0.49456198  0.86238073  1
  O  O453  1  0.33323211  0.98786312  0.20199037  1
  O  O454  1  0.34652401  0.99922109  0.52925573  1
  O  O455  1  0.34140056  0.99006696  0.86456797  1
  O  O456  1  0.83175282  0.49428176  0.19614298  1
  O  O457  1  0.83111324  0.49565043  0.52868579  1
  O  O458  1  0.83221153  0.49234753  0.86458285  1
  O  O459  1  0.83286414  0.99047152  0.19662174  1
  O  O460  1  0.82940514  0.99227707  0.52932741  1
  O  O461  1  0.83013035  0.98908985  0.86421791  1
