# generated using pymatgen
data_Na31Fe20(SO4)36
_symmetry_space_group_name_H-M   'P 1'
_cell_length_a   18.07897526
_cell_length_b   18.07556624
_cell_length_c   19.71353903
_cell_angle_alpha   107.60199438
_cell_angle_beta   107.60804315
_cell_angle_gamma   90.67937111
_symmetry_Int_Tables_number   1
_chemical_formula_structural   Na31Fe20(SO4)36
_chemical_formula_sum   'Na62 Fe40 S72 O288'
_cell_volume   5814.84628968
_cell_formula_units_Z   2
loop_
 _symmetry_equiv_pos_site_id
 _symmetry_equiv_pos_as_xyz
  1  'x, y, z'
loop_
 _atom_site_type_symbol
 _atom_site_label
 _atom_site_symmetry_multiplicity
 _atom_site_fract_x
 _atom_site_fract_y
 _atom_site_fract_z
 _atom_site_occupancy
  Na  Na0  1  0.13250341  0.36749831  0.08334610  1
  Na  Na1  1  0.13080473  0.36562747  0.41580867  1
  Na  Na2  1  0.12969382  0.36259641  0.75064653  1
  Na  Na3  1  0.13659056  0.86496296  0.08096199  1
  Na  Na4  1  0.14698255  0.86593179  0.42554585  1
  Na  Na5  1  0.13035332  0.86656696  0.73831625  1
  Na  Na6  1  0.63499387  0.37402230  0.08100576  1
  Na  Na7  1  0.63687295  0.37027843  0.41993016  1
  Na  Na8  1  0.64227466  0.36549161  0.75505706  1
  Na  Na9  1  0.64458324  0.85881818  0.09073909  1
  Na  Na10  1  0.63216154  0.86042478  0.42590756  1
  Na  Na11  1  0.62585173  0.87279774  0.75057518  1
  Na  Na12  1  0.36626271  0.13240539  0.24828107  1
  Na  Na13  1  0.37639497  0.12644168  0.58709211  1
  Na  Na14  1  0.38019925  0.12555299  0.91239810  1
  Na  Na15  1  0.37674837  0.67091791  0.28725381  1
  Na  Na16  1  0.34829454  0.65114750  0.58774801  1
  Na  Na17  1  0.36138231  0.63090961  0.91328387  1
  Na  Na18  1  0.86405124  0.12970354  0.24752173  1
  Na  Na19  1  0.86815383  0.13732077  0.59311391  1
  Na  Na20  1  0.87421506  0.12448274  0.91412388  1
  Na  Na21  1  0.85296845  0.63999955  0.23882001  1
  Na  Na22  1  0.83186388  0.62957332  0.54498354  1
  Na  Na23  1  0.86416849  0.63362921  0.91796068  1
  Na  Na24  1  0.97630008  0.50378966  0.10421783  1
  Na  Na25  1  0.99826050  0.01292348  0.06185405  1
  Na  Na26  1  0.49818710  0.52292554  0.41369891  1
  Na  Na27  1  0.99007444  0.51719906  0.39395959  1
  Na  Na28  1  1.00524480  -0.01702698  0.43615743  1
  Na  Na29  1  0.99027950  0.50032405  0.75214624  1
  Na  Na30  1  0.48968456  0.50353994  0.75849696  1
  Na  Na31  1  0.50299505  0.00721332  0.06383742  1
  Na  Na32  1  0.49785530  0.55840126  0.10750038  1
  Na  Na33  1  0.00455092  0.45514550  0.91079829  1
  Na  Na34  1  0.50057923  0.49844632  0.58045516  1
  Na  Na35  1  0.56188914  0.50543228  0.27239165  1
  Na  Na36  1  -0.03572533  1.00956393  0.64669218  1
  Na  Na37  1  0.01057432  0.98695885  0.24808296  1
  Na  Na38  1  0.51578150  0.97894460  0.26293960  1
  Na  Na39  1  0.53858508  0.47547124  0.93569402  1
  Na  Na40  1  -0.00836430  0.50908455  0.57987126  1
  Na  Na41  1  0.49425755  0.94920344  0.56179767  1
  Na  Na42  1  0.75761306  0.76327480  0.64801823  1
  Na  Na43  1  0.74831585  0.24634256  0.33375573  1
  Na  Na44  1  0.73469736  0.23795337  -0.00052228  1
  Na  Na45  1  0.73783673  0.72547567  0.02085201  1
  Na  Na46  1  0.24928211  0.74907181  -0.00226081  1
  Na  Na47  1  0.72021625  0.72364667  0.34122723  1
  Na  Na48  1  0.26054935  0.25827407  -0.00409990  1
  Na  Na49  1  0.24484402  0.23847332  0.66830457  1
  Na  Na50  1  0.24614046  0.24639441  0.33318669  1
  Na  Na51  1  0.75090200  0.24901118  0.67305555  1
  Na  Na52  1  0.24595798  0.74563713  0.18199445  1
  Na  Na53  1  0.74854653  0.24541951  0.50710920  1
  Na  Na54  1  0.25898093  0.25026911  0.83391433  1
  Na  Na55  1  0.24818416  0.24654056  0.50344555  1
  Na  Na56  1  0.74667233  0.23624068  0.83863949  1
  Na  Na57  1  0.25697395  0.76068879  0.81655134  1
  Na  Na58  1  0.74904707  0.24799489  0.16523232  1
  Na  Na59  1  0.27998221  0.78060777  0.49481163  1
  Na  Na60  1  0.75281931  0.75552354  0.82898660  1
  Na  Na61  1  0.25500666  0.25417666  0.16322588  1
  Fe  Fe62  1  0.96470890  0.80869369  0.78016803  1
  Fe  Fe63  1  0.46918758  0.30763860  0.11879356  1
  Fe  Fe64  1  0.96274031  0.30819937  0.12100564  1
  Fe  Fe65  1  0.96278958  0.30892185  0.45357183  1
  Fe  Fe66  1  0.46783180  0.80289997  0.12389847  1
  Fe  Fe67  1  0.46106275  0.81295405  0.78902567  1
  Fe  Fe68  1  0.46593289  0.30509044  0.45223826  1
  Fe  Fe69  1  0.47409868  0.29276554  0.78893365  1
  Fe  Fe70  1  0.96669636  0.80415445  0.11520681  1
  Fe  Fe71  1  0.96471869  0.80473004  0.45147914  1
  Fe  Fe72  1  0.68855274  0.53803816  0.71809801  1
  Fe  Fe73  1  0.19018150  0.03588237  0.03894065  1
  Fe  Fe74  1  0.20077891  0.03483808  0.70745769  1
  Fe  Fe75  1  0.19485727  0.53557134  0.05162620  1
  Fe  Fe76  1  0.69978805  0.02979350  0.38229071  1
  Fe  Fe77  1  0.18858156  0.53519613  0.38117582  1
  Fe  Fe78  1  0.19098163  0.53403626  0.71504808  1
  Fe  Fe79  1  0.69942550  0.02819156  0.70854716  1
  Fe  Fe80  1  0.19393013  0.03578526  0.38054219  1
  Fe  Fe81  1  0.68832185  0.03299504  0.03750335  1
  Fe  Fe82  1  0.03388361  0.69226553  0.87940323  1
  Fe  Fe83  1  0.04038351  0.69593213  0.21789046  1
  Fe  Fe84  1  0.03067208  0.19969917  0.87520600  1
  Fe  Fe85  1  0.53152596  0.69275202  0.88241155  1
  Fe  Fe86  1  0.03705562  0.69211824  0.54840002  1
  Fe  Fe87  1  0.03062298  0.19650398  0.54861378  1
  Fe  Fe88  1  0.52866651  0.70173012  0.55112981  1
  Fe  Fe89  1  0.53708818  0.18530726  0.54083727  1
  Fe  Fe90  1  0.53597567  0.18986258  0.21098509  1
  Fe  Fe91  1  0.03297837  0.19498676  0.21265206  1
  Fe  Fe92  1  0.31631943  0.96296933  0.28913178  1
  Fe  Fe93  1  0.81381153  0.95849812  0.28553474  1
  Fe  Fe94  1  0.79609125  0.46814707  0.28521651  1
  Fe  Fe95  1  0.80071233  0.46824548  0.95465595  1
  Fe  Fe96  1  0.30474011  0.96573754  0.94992751  1
  Fe  Fe97  1  0.80739146  0.95947224  0.94952353  1
  Fe  Fe98  1  0.31060760  0.46936169  0.95828898  1
  Fe  Fe99  1  0.30638501  0.46584744  0.28831278  1
  Fe  Fe100  1  0.80113514  0.47031084  0.61799420  1
  Fe  Fe101  1  0.30582699  0.46442912  0.62022728  1
  S  S102  1  0.36159567  0.14072039  0.08390437  1
  S  S103  1  0.35828064  0.14364029  0.41271602  1
  S  S104  1  0.36087125  0.14498721  0.74779840  1
  S  S105  1  0.35257699  0.64569058  0.08610166  1
  S  S106  1  0.35846753  0.63388174  0.42557472  1
  S  S107  1  0.35720852  0.63793691  0.74943104  1
  S  S108  1  0.86165982  0.13732579  0.08152816  1
  S  S109  1  0.86003694  0.13900737  0.41399292  1
  S  S110  1  0.86076987  0.13949212  0.75031292  1
  S  S111  1  0.86546556  0.63838436  0.08368529  1
  S  S112  1  0.86612572  0.63542607  0.40798172  1
  S  S113  1  0.85839238  0.64139213  0.75027244  1
  S  S114  1  0.13920168  0.36031455  0.25078320  1
  S  S115  1  0.13891840  0.36046237  0.58377035  1
  S  S116  1  0.14451167  0.36213121  0.91938249  1
  S  S117  1  0.13899210  0.86341860  0.24505822  1
  S  S118  1  0.13605845  0.86107970  0.58006099  1
  S  S119  1  0.13960659  0.85826194  0.91422976  1
  S  S120  1  0.64208480  0.35370295  0.25151882  1
  S  S121  1  0.63767024  0.36011882  0.58212465  1
  S  S122  1  0.64671785  0.35244972  0.90919039  1
  S  S123  1  0.64380705  0.86029744  0.24866581  1
  S  S124  1  0.64026869  0.85753915  0.58855132  1
  S  S125  1  0.64119929  0.85477134  0.92031897  1
  S  S126  1  0.06917638  0.17557480  0.04324909  1
  S  S127  1  0.06640910  0.17168574  0.37421465  1
  S  S128  1  0.07152144  0.17193415  0.70920848  1
  S  S129  1  0.06898740  0.66833651  0.04040330  1
  S  S130  1  0.07428699  0.67305808  0.37766211  1
  S  S131  1  0.06393818  0.66416300  0.70813807  1
  S  S132  1  0.56732009  0.17150712  0.04230358  1
  S  S133  1  0.57185144  0.16972766  0.37509006  1
  S  S134  1  0.57649377  0.16889651  0.70443290  1
  S  S135  1  0.55492031  0.66858220  0.03687080  1
  S  S136  1  0.56563048  0.66634703  0.38841446  1
  S  S137  1  0.56217596  0.66890976  0.71262221  1
  S  S138  1  0.33124651  0.43299374  0.12819691  1
  S  S139  1  0.32777407  0.42696199  0.45799538  1
  S  S140  1  0.33042152  0.43156668  0.79117734  1
  S  S141  1  0.32898539  0.93218630  0.12135092  1
  S  S142  1  0.32757791  0.94128745  0.45079709  1
  S  S143  1  0.32479885  0.93383839  0.79309347  1
  S  S144  1  0.82869372  0.42579421  0.12477172  1
  S  S145  1  0.82847065  0.43102690  0.45473329  1
  S  S146  1  0.82890976  0.44108217  0.78975045  1
  S  S147  1  0.83457727  0.93047185  0.12123691  1
  S  S148  1  0.83454190  0.93438912  0.45638493  1
  S  S149  1  0.82510846  0.92743255  0.78885375  1
  S  S150  1  0.43352469  0.32948298  0.29112009  1
  S  S151  1  0.43367825  0.33109931  0.62478568  1
  S  S152  1  0.43637489  0.34304724  0.96418277  1
  S  S153  1  0.43825622  0.84046190  0.29179333  1
  S  S154  1  0.43230794  0.83179461  0.62916975  1
  S  S155  1  0.42852694  0.82712055  0.95911225  1
  S  S156  1  0.92737291  0.32854454  0.29054905  1
  S  S157  1  0.93309153  0.33812162  0.62474103  1
  S  S158  1  0.93274666  0.33375530  0.96130077  1
  S  S159  1  0.94027695  0.83345159  0.29050551  1
  S  S160  1  0.92873511  0.81652709  0.61795980  1
  S  S161  1  0.93512050  0.82687261  0.95425547  1
  S  S162  1  0.16522022  0.06913356  0.20327060  1
  S  S163  1  0.16529264  0.07273033  0.53732161  1
  S  S164  1  0.17742734  0.07704812  0.87695213  1
  S  S165  1  0.17306399  0.56885947  0.21128759  1
  S  S166  1  0.16289166  0.56261877  0.54130585  1
  S  S167  1  0.16727722  0.56448876  0.87542719  1
  S  S168  1  0.67124502  0.06649606  0.20524565  1
  S  S169  1  0.67497968  0.06786629  0.54358346  1
  S  S170  1  0.67987597  0.06846965  0.87843919  1
  S  S171  1  0.66875514  0.56205261  0.20718819  1
  S  S172  1  0.65816022  0.56631613  0.54758357  1
  S  S173  1  0.66646438  0.56738137  0.87619653  1
  O  O174  1  0.37010292  0.22054901  0.07732069  1
  O  O175  1  0.36968213  0.22262842  0.40355258  1
  O  O176  1  0.36929140  0.22687871  0.73950281  1
  O  O177  1  0.36393531  0.72531448  0.07890162  1
  O  O178  1  0.36047766  0.70942856  0.41435993  1
  O  O179  1  0.36697170  0.71873773  0.74835398  1
  O  O180  1  0.86997986  0.21583052  0.07278270  1
  O  O181  1  0.86996349  0.21732984  0.40415327  1
  O  O182  1  0.86232171  0.21744723  0.74288034  1
  O  O183  1  0.87829198  0.71450438  0.06920961  1
  O  O184  1  0.88078593  0.71078176  0.39470522  1
  O  O185  1  0.86759756  0.72183791  0.74681383  1
  O  O186  1  0.28147156  0.13038053  0.08937738  1
  O  O187  1  0.27720076  0.13819431  0.41695967  1
  O  O188  1  0.27613764  0.13830901  0.74788418  1
  O  O189  1  0.26912727  0.63695795  0.08509649  1
  O  O190  1  0.28269963  0.61685274  0.43763520  1
  O  O191  1  0.27950149  0.62730580  0.76037069  1
  O  O192  1  0.78115972  0.12685377  0.08579913  1
  O  O193  1  0.77987698  0.13234548  0.42038836  1
  O  O194  1  0.78042213  0.12215761  0.75834824  1
  O  O195  1  0.78959268  0.63378925  0.09357616  1
  O  O196  1  0.79054205  0.63161890  0.41921416  1
  O  O197  1  0.78224813  0.63277389  0.76376730  1
  O  O198  1  0.12952538  0.28155009  0.26034184  1
  O  O199  1  0.12981235  0.28111435  0.59078382  1
  O  O200  1  0.13452921  0.28310563  0.92707551  1
  O  O201  1  0.13316775  0.78370002  0.25097931  1
  O  O202  1  0.12181156  0.78629949  0.59487395  1
  O  O203  1  0.12922095  0.78058349  0.92554846  1
  O  O204  1  0.63280423  0.27201312  0.25482757  1
  O  O205  1  0.63201295  0.27849585  0.58441918  1
  O  O206  1  0.64533986  0.27128135  0.90799423  1
  O  O207  1  0.63929251  0.78557321  0.26023193  1
  O  O208  1  0.62167565  0.78327430  0.60667268  1
  O  O209  1  0.63072529  0.77717877  0.93077599  1
  O  O210  1  0.21873955  0.36746001  0.24297985  1
  O  O211  1  0.21817343  0.36899564  0.57582308  1
  O  O212  1  0.22634330  0.37082764  0.91624667  1
  O  O213  1  0.21553846  0.87640063  0.23443314  1
  O  O214  1  0.20721724  0.86323905  0.56053684  1
  O  O215  1  0.22076257  0.86593526  0.91110928  1
  O  O216  1  0.72318575  0.36233291  0.24690595  1
  O  O217  1  0.71543093  0.37315785  0.57220889  1
  O  O218  1  0.72103953  0.37174232  0.89405419  1
  O  O219  1  0.71881575  0.87719318  0.23528058  1
  O  O220  1  0.71896361  0.85673754  0.58507160  1
  O  O221  1  0.72105106  0.86218672  0.91376943  1
  O  O222  1  0.41868791  0.13422363  0.15398051  1
  O  O223  1  0.41476153  0.13896007  0.48281513  1
  O  O224  1  0.41327206  0.14642586  0.82039855  1
  O  O225  1  0.40582500  0.63548613  0.15349897  1
  O  O226  1  0.42074686  0.62830085  0.49493753  1
  O  O227  1  0.41802407  0.62193851  0.81228961  1
  O  O228  1  0.91857691  0.13271372  0.15272611  1
  O  O229  1  0.91738423  0.13333723  0.48360165  1
  O  O230  1  0.91906933  0.13722338  0.82215554  1
  O  O231  1  0.92832922  0.63192371  0.15156144  1
  O  O232  1  0.92884497  0.62383278  0.47362577  1
  O  O233  1  0.92085919  0.62821986  0.81443177  1
  O  O234  1  0.37382063  0.08167690  0.01847807  1
  O  O235  1  0.36674146  0.08499349  0.34538098  1
  O  O236  1  0.37084711  0.08737883  0.68292453  1
  O  O237  1  0.36137658  0.58752896  0.01663666  1
  O  O238  1  0.37038725  0.57191008  0.36012794  1
  O  O239  1  0.36051723  0.58201514  0.67717132  1
  O  O240  1  0.87606356  0.07717087  0.01753520  1
  O  O241  1  0.86880056  0.07910538  0.34693042  1
  O  O242  1  0.87199964  0.08023490  0.68597386  1
  O  O243  1  0.87364748  0.57541569  0.01688108  1
  O  O244  1  0.87182872  0.57174925  0.33979513  1
  O  O245  1  0.86183529  0.58434396  0.67887947  1
  O  O246  1  0.08113362  0.36645201  0.18222433  1
  O  O247  1  0.08039351  0.36890778  0.51573448  1
  O  O248  1  0.08798866  0.37266147  0.85321378  1
  O  O249  1  0.07731181  0.87158996  0.17725555  1
  O  O250  1  0.06970753  0.87162718  0.51612866  1
  O  O251  1  0.08405291  0.86220212  0.84325856  1
  O  O252  1  0.58600825  0.36254787  0.18202125  1
  O  O253  1  0.57641655  0.37056839  0.51618799  1
  O  O254  1  0.58153836  0.36389752  0.84447624  1
  O  O255  1  0.58040746  0.86634234  0.17982734  1
  O  O256  1  0.58131591  0.86536988  0.52262114  1
  O  O257  1  0.58336846  0.86082995  0.85136888  1
  O  O258  1  0.13160078  0.41942518  0.31864092  1
  O  O259  1  0.13124530  0.41878082  0.65213159  1
  O  O260  1  0.13593575  0.42076975  0.98867786  1
  O  O261  1  0.12771743  0.92138672  0.31224079  1
  O  O262  1  0.13652386  0.92467397  0.64960246  1
  O  O263  1  0.13012799  0.91983497  0.98031460  1
  O  O264  1  0.63118671  0.40923719  0.31787039  1
  O  O265  1  0.62951416  0.41488626  0.65189116  1
  O  O266  1  0.64097406  0.40641986  0.97908867  1
  O  O267  1  0.63353723  0.92416134  0.31433727  1
  O  O268  1  0.63377653  0.92385100  0.65665145  1
  O  O269  1  0.63398456  0.91576371  0.98798677  1
  O  O270  1  0.03129344  0.20263411  0.10414045  1
  O  O271  1  0.03091537  0.20099162  0.43543524  1
  O  O272  1  0.03784950  0.19481245  0.77063796  1
  O  O273  1  0.03605181  0.69963753  0.10357099  1
  O  O274  1  0.04077268  0.70472848  0.44025206  1
  O  O275  1  0.02762540  0.69744775  0.76872455  1
  O  O276  1  0.53187088  0.20093610  0.10620355  1
  O  O277  1  0.53238419  0.19803653  0.43417204  1
  O  O278  1  0.53744135  0.19393798  0.76149996  1
  O  O279  1  0.51872059  0.70149907  0.09714968  1
  O  O280  1  0.53143832  0.69391834  0.45322468  1
  O  O281  1  0.52602901  0.69926631  0.77369379  1
  O  O282  1  0.30227462  0.47209944  0.06866973  1
  O  O283  1  0.29490816  0.45732264  0.39398259  1
  O  O284  1  0.29863296  0.46802734  0.72942452  1
  O  O285  1  0.30105581  0.97002940  0.06085865  1
  O  O286  1  0.28948613  0.97550047  0.38510590  1
  O  O287  1  0.29889089  0.97267699  0.73585151  1
  O  O288  1  0.80988073  0.45965220  0.06338915  1
  O  O289  1  0.80541735  0.46342161  0.39259622  1
  O  O290  1  0.79187945  0.47553474  0.72716853  1
  O  O291  1  0.80436532  0.96854630  0.06191336  1
  O  O292  1  0.80285661  0.96946549  0.39192449  1
  O  O293  1  0.79406237  0.96731267  0.73206819  1
  O  O294  1  0.47002104  0.30199465  0.23021761  1
  O  O295  1  0.46888830  0.30200087  0.56288196  1
  O  O296  1  0.47018236  0.32444576  0.90278213  1
  O  O297  1  0.46734612  0.81301653  0.22537810  1
  O  O298  1  0.46671101  0.79011680  0.56828119  1
  O  O299  1  0.46664478  0.79933487  0.89919306  1
  O  O300  1  0.96638904  0.30091944  0.23113184  1
  O  O301  1  0.96478363  0.30226083  0.55948858  1
  O  O302  1  0.97335131  0.30713490  0.90487042  1
  O  O303  1  0.97439589  0.80115107  0.22755713  1
  O  O304  1  0.96258090  0.78260504  0.55460607  1
  O  O305  1  0.97132852  0.79962909  0.89292140  1
  O  O306  1  0.19447655  0.03609118  0.26543435  1
  O  O307  1  0.19354026  0.04095040  0.59878163  1
  O  O308  1  0.20424059  0.03425235  0.93524722  1
  O  O309  1  0.20176273  0.53250249  0.27298231  1
  O  O310  1  0.19443034  0.52705085  0.60322012  1
  O  O311  1  0.19780225  0.52901430  0.93665108  1
  O  O312  1  0.70162389  0.03549212  0.26898915  1
  O  O313  1  0.69695894  0.03357803  0.60563089  1
  O  O314  1  0.70875831  0.02148790  0.93365989  1
  O  O315  1  0.69843089  0.51865541  0.26500816  1
  O  O316  1  0.69199127  0.53649632  0.61430010  1
  O  O317  1  0.69772519  0.53234469  0.93578257  1
  O  O318  1  0.08700518  0.09379951  0.03777317  1
  O  O319  1  0.08513465  0.08995090  0.36656531  1
  O  O320  1  0.09084380  0.08989005  0.69474951  1
  O  O321  1  0.08589346  0.58634824  0.03464962  1
  O  O322  1  0.08659333  0.58941897  0.37269852  1
  O  O323  1  0.07960172  0.58151993  0.70669111  1
  O  O324  1  0.58957916  0.09126001  0.04305190  1
  O  O325  1  0.59381948  0.09006419  0.37046628  1
  O  O326  1  0.60300049  0.08986948  0.70004991  1
  O  O327  1  0.56590367  0.58726052  0.03237340  1
  O  O328  1  0.59097823  0.58859739  0.38867823  1
  O  O329  1  0.57262634  0.58407352  0.70414101  1
  O  O330  1  0.41158440  0.41279148  0.13263777  1
  O  O331  1  0.41064631  0.41174857  0.46377832  1
  O  O332  1  0.41217501  0.41663596  0.79582479  1
  O  O333  1  0.41021844  0.91198417  0.12720402  1
  O  O334  1  0.40504852  0.92440639  0.44668878  1
  O  O335  1  0.40307976  0.90829357  0.79712494  1
  O  O336  1  0.91339898  0.41116468  0.14211792  1
  O  O337  1  0.91288233  0.41541084  0.46908893  1
  O  O338  1  0.91174504  0.43625885  0.79578207  1
  O  O339  1  0.91751125  0.91488944  0.12609290  1
  O  O340  1  0.91058814  0.90583690  0.44850087  1
  O  O341  1  0.90204838  0.90309225  0.78529876  1
  O  O342  1  0.41487901  0.41131559  0.29986896  1
  O  O343  1  0.41838401  0.41525299  0.63207021  1
  O  O344  1  0.42005187  0.42756452  0.98095445  1
  O  O345  1  0.42244217  0.92443182  0.29755927  1
  O  O346  1  0.42160543  0.90987323  0.62514518  1
  O  O347  1  0.41026970  0.90869545  0.96583729  1
  O  O348  1  0.90274892  0.40721646  0.29423529  1
  O  O349  1  0.91065363  0.41812224  0.62238497  1
  O  O350  1  0.91301208  0.41554910  0.96473249  1
  O  O351  1  0.92758399  0.91770635  0.29556362  1
  O  O352  1  0.90454677  0.89207525  0.61643843  1
  O  O353  1  0.91560588  0.90836280  0.96213461  1
  O  O354  1  0.08124729  0.08440554  0.19542876  1
  O  O355  1  0.08336696  0.09423754  0.52959543  1
  O  O356  1  0.10200626  0.10466909  0.88034030  1
  O  O357  1  0.09176882  0.58829307  0.20531184  1
  O  O358  1  0.07879555  0.57517662  0.53416102  1
  O  O359  1  0.08502013  0.58162781  0.86964388  1
  O  O360  1  0.58766216  0.08154673  0.19683981  1
  O  O361  1  0.59292506  0.08656773  0.52869536  1
  O  O362  1  0.60558780  0.09230592  0.88219624  1
  O  O363  1  0.59346113  0.58666862  0.21635041  1
  O  O364  1  0.57799903  0.59082987  0.54889734  1
  O  O365  1  0.58393506  0.58416288  0.87201381  1
  O  O366  1  0.14132769  0.22782900  0.06303714  1
  O  O367  1  0.13725264  0.22466427  0.39023472  1
  O  O368  1  0.14144681  0.22697194  0.72573835  1
  O  O369  1  0.13947920  0.72051062  0.05444665  1
  O  O370  1  0.14716442  0.71974714  0.39111937  1
  O  O371  1  0.13579177  0.71282212  0.72248459  1
  O  O372  1  0.63923193  0.22463870  0.06148087  1
  O  O373  1  0.64103169  0.22582524  0.39342520  1
  O  O374  1  0.64502806  0.22574035  0.72033789  1
  O  O375  1  0.62702817  0.71763472  0.05136014  1
  O  O376  1  0.63159741  0.72350746  0.40272624  1
  O  O377  1  0.63666407  0.71512893  0.73043760  1
  O  O378  1  0.27679615  0.36154554  0.10859048  1
  O  O379  1  0.27846924  0.35513060  0.44610815  1
  O  O380  1  0.27830624  0.36026694  0.77461295  1
  O  O381  1  0.27447696  0.86226083  0.10343862  1
  O  O382  1  0.27498184  0.87067986  0.43470943  1
  O  O383  1  0.26778296  0.86767271  0.78067135  1
  O  O384  1  0.77785049  0.35249470  0.10603111  1
  O  O385  1  0.77828171  0.35857851  0.43944620  1
  O  O386  1  0.78403478  0.36525683  0.77157987  1
  O  O387  1  0.78472599  0.85850208  0.10468096  1
  O  O388  1  0.77856324  0.86945326  0.44506054  1
  O  O389  1  0.76960142  0.85906999  0.77556266  1
  O  O390  1  0.36205118  0.27626354  0.27302161  1
  O  O391  1  0.36027263  0.28207423  0.60717646  1
  O  O392  1  0.36459930  0.29065722  0.94622236  1
  O  O393  1  0.36324383  0.79363855  0.27452262  1
  O  O394  1  0.35950569  0.78423300  0.61679878  1
  O  O395  1  0.35694677  0.77384148  0.93949327  1
  O  O396  1  0.86033654  0.27093026  0.27436503  1
  O  O397  1  0.86308943  0.28633708  0.61266705  1
  O  O398  1  0.86295566  0.28079728  0.94636716  1
  O  O399  1  0.86790437  0.78704832  0.27670027  1
  O  O400  1  0.86515787  0.75966640  0.61006489  1
  O  O401  1  0.86506951  0.77351090  0.93760344  1
  O  O402  1  0.21475173  0.14192073  0.21786715  1
  O  O403  1  0.21762701  0.14192580  0.54707417  1
  O  O404  1  0.23802533  0.14331666  0.89634900  1
  O  O405  1  0.22644758  0.63731353  0.22513191  1
  O  O406  1  0.20975387  0.63515844  0.55625961  1
  O  O407  1  0.21787591  0.63592648  0.88984794  1
  O  O408  1  0.72126457  0.13896297  0.21931538  1
  O  O409  1  0.72884935  0.13990387  0.56270576  1
  O  O410  1  0.74202359  0.13410359  0.90010944  1
  O  O411  1  0.72588968  0.63053564  0.22839149  1
  O  O412  1  0.71016356  0.63398115  0.55729773  1
  O  O413  1  0.71608207  0.63914500  0.88876760  1
  O  O414  1  0.49582890  0.33694556  0.03372599  1
  O  O415  1  0.49249795  0.32908040  0.36294804  1
  O  O416  1  0.49196150  0.33105148  0.69641292  1
  O  O417  1  0.48663460  0.82915702  0.03229099  1
  O  O418  1  0.49829527  0.83765760  0.35816592  1
  O  O419  1  0.49116893  0.83374945  0.70317140  1
  O  O420  1  0.99039764  0.34161285  0.03782435  1
  O  O421  1  0.98807560  0.33471521  0.36413482  1
  O  O422  1  0.99552885  0.34869754  0.69510857  1
  O  O423  1  0.99571141  0.82897004  0.02615606  1
  O  O424  1  1.00155041  0.83679720  0.36243267  1
  O  O425  1  0.99388772  0.82439591  0.69050055  1
  O  O426  1  0.16371105  0.01011776  0.13052779  1
  O  O427  1  0.15760775  0.00989134  0.46383609  1
  O  O428  1  0.17011088  0.01951969  0.80281782  1
  O  O429  1  0.16845961  0.50661417  0.13896931  1
  O  O430  1  0.16188959  0.50232284  0.46914548  1
  O  O431  1  0.16479778  0.50463415  0.80282513  1
  O  O432  1  0.67116622  0.00661924  0.13382113  1
  O  O433  1  0.68078916  0.00832964  0.47461887  1
  O  O434  1  0.67672153  0.01335922  0.80230035  1
  O  O435  1  0.65644573  0.50690794  0.13198343  1
  O  O436  1  0.64753542  0.50028332  0.47983788  1
  O  O437  1  0.65944438  0.50819198  0.80070065  1
  O  O438  1  0.00667669  0.16983086  0.30181484  1
  O  O439  1  0.00950162  0.17552981  0.63920234  1
  O  O440  1  0.01176152  0.17673871  0.97200471  1
  O  O441  1  0.01389021  0.67199878  0.30605059  1
  O  O442  1  0.00520227  0.65669293  0.63382789  1
  O  O443  1  0.00791241  0.66646810  0.96874215  1
  O  O444  1  0.51264430  0.16595466  0.30184402  1
  O  O445  1  0.51730474  0.16326178  0.62966378  1
  O  O446  1  0.50885024  0.16823943  0.97280049  1
  O  O447  1  0.50216323  0.65797121  0.31870139  1
  O  O448  1  0.50463721  0.67162801  0.64085709  1
  O  O449  1  0.49611083  0.66862096  0.96320676  1
  O  O450  1  0.33208907  0.49023590  0.20062630  1
  O  O451  1  0.33024939  0.48828972  0.52952447  1
  O  O452  1  0.33011167  0.49061106  0.86321372  1
  O  O453  1  0.33024537  0.99155742  0.19361278  1
  O  O454  1  0.32924327  1.00220432  0.51985313  1
  O  O455  1  0.33389254  0.99374471  0.86916124  1
  O  O456  1  0.82138394  0.48425860  0.19383645  1
  O  O457  1  0.82423307  0.49175317  0.52465394  1
  O  O458  1  0.82366164  0.49632697  0.86167725  1
  O  O459  1  0.83803957  0.98870450  0.19524723  1
  O  O460  1  0.85212008  0.99864126  0.52722430  1
  O  O461  1  0.83659033  0.98518684  0.86530315  1
