# generated using pymatgen
data_Na31Fe20(SO4)36
_symmetry_space_group_name_H-M   'P 1'
_cell_length_a   18.06388912
_cell_length_b   18.07248193
_cell_length_c   19.69912049
_cell_angle_alpha   107.60365158
_cell_angle_beta   107.56419978
_cell_angle_gamma   90.70226875
_symmetry_Int_Tables_number   1
_chemical_formula_structural   Na31Fe20(SO4)36
_chemical_formula_sum   'Na62 Fe40 S72 O288'
_cell_volume   5805.98841981
_cell_formula_units_Z   2
loop_
 _symmetry_equiv_pos_site_id
 _symmetry_equiv_pos_as_xyz
  1  'x, y, z'
loop_
 _atom_site_type_symbol
 _atom_site_label
 _atom_site_symmetry_multiplicity
 _atom_site_fract_x
 _atom_site_fract_y
 _atom_site_fract_z
 _atom_site_occupancy
  Na  Na0  1  0.13252088  0.35114413  0.08230749  1
  Na  Na1  1  0.13144161  0.34442069  0.39253034  1
  Na  Na2  1  0.14226896  0.37139043  0.75917389  1
  Na  Na3  1  0.11470393  0.85900600  0.06922731  1
  Na  Na4  1  0.13293575  0.86993833  0.42122014  1
  Na  Na5  1  0.13424535  0.86680487  0.75094415  1
  Na  Na6  1  0.63605664  0.36142755  0.08261921  1
  Na  Na7  1  0.63830419  0.35978160  0.41901330  1
  Na  Na8  1  0.64631671  0.37196477  0.76571873  1
  Na  Na9  1  0.63210470  0.86923360  0.07719204  1
  Na  Na10  1  0.63356434  0.86733577  0.41808209  1
  Na  Na11  1  0.64155634  0.87582942  0.75252832  1
  Na  Na12  1  0.32314343  0.17530937  0.26920718  1
  Na  Na13  1  0.36955327  0.13274905  0.58029136  1
  Na  Na14  1  0.36881914  0.13789820  0.91999723  1
  Na  Na15  1  0.36812541  0.63124502  0.25199372  1
  Na  Na16  1  0.35924015  0.63761585  0.57772020  1
  Na  Na17  1  0.35756691  0.63202712  0.91759559  1
  Na  Na18  1  0.92313407  0.09151735  0.22878016  1
  Na  Na19  1  0.87388644  0.12769888  0.58532730  1
  Na  Na20  1  0.87318877  0.14648835  0.92708393  1
  Na  Na21  1  0.86494749  0.62916105  0.24793123  1
  Na  Na22  1  0.86208263  0.63859957  0.58772928  1
  Na  Na23  1  0.86747592  0.62970672  0.91591671  1
  Na  Na24  1  0.99600138  0.51194244  0.41325647  1
  Na  Na25  1  0.95026029  0.49896200  0.06468581  1
  Na  Na26  1  0.48668187  0.51055259  0.74703759  1
  Na  Na27  1  0.50039349  0.00859308  0.07798680  1
  Na  Na28  1  0.48915123  0.01153953  0.42431246  1
  Na  Na29  1  0.98694519  0.53638705  0.75751968  1
  Na  Na30  1  0.45841874  0.50419148  0.08000220  1
  Na  Na31  1  0.97672629  0.00289156  0.75868933  1
  Na  Na32  1  0.50153671  0.49623617  0.40824639  1
  Na  Na33  1  0.53019126  0.98574290  0.62235834  1
  Na  Na34  1  0.01550737  0.48374357  0.58378788  1
  Na  Na35  1  0.00954073  0.49805972  0.91649861  1
  Na  Na36  1  0.47467809  1.02964991  0.24839565  1
  Na  Na37  1  0.51295460  0.46326785  0.57394469  1
  Na  Na38  1  0.00455149  0.42422166  0.22307933  1
  Na  Na39  1  0.50643180  0.48894201  0.91938878  1
  Na  Na40  1  0.54063751  1.00101875  0.91458083  1
  Na  Na41  1  -0.02107108  1.00611547  0.96721349  1
  Na  Na42  1  0.75190947  0.75021457  0.33283305  1
  Na  Na43  1  0.25755971  0.75968971  0.65650086  1
  Na  Na44  1  0.23868845  0.73908433  0.35078733  1
  Na  Na45  1  0.75574255  0.75384098  -0.00802740  1
  Na  Na46  1  0.76337878  0.25438448  0.00401062  1
  Na  Na47  1  0.23106652  0.73651064  0.00528767  1
  Na  Na48  1  0.74419170  0.23958685  0.67585786  1
  Na  Na49  1  0.75327718  0.24297192  0.32948412  1
  Na  Na50  1  0.24971857  0.25135508  0.00407039  1
  Na  Na51  1  0.25538151  0.25587160  0.66120400  1
  Na  Na52  1  0.27484183  0.25988178  0.47848543  1
  Na  Na53  1  0.23604744  0.74459450  0.83859736  1
  Na  Na54  1  0.74041801  0.74123034  0.51260339  1
  Na  Na55  1  0.24055775  0.73985528  0.17226447  1
  Na  Na56  1  0.25612102  0.25696067  0.83506898  1
  Na  Na57  1  0.75484587  0.22844174  0.16480472  1
  Na  Na58  1  0.74850648  0.24594978  0.83966119  1
  Na  Na59  1  0.75475217  0.75873198  0.16243439  1
  Na  Na60  1  0.75571031  0.75838385  0.81722357  1
  Na  Na61  1  0.74730901  0.24200975  0.50662549  1
  Fe  Fe62  1  0.46490728  0.80679292  0.78257651  1
  Fe  Fe63  1  0.46289825  0.31108607  0.12076338  1
  Fe  Fe64  1  0.96607863  0.31021363  0.78402198  1
  Fe  Fe65  1  0.96747929  0.30281656  0.44881312  1
  Fe  Fe66  1  0.96341919  0.81486822  0.46021983  1
  Fe  Fe67  1  0.46540882  0.80983100  0.11863194  1
  Fe  Fe68  1  0.46302293  0.30877200  0.78621354  1
  Fe  Fe69  1  0.46484455  0.80571925  0.45107633  1
  Fe  Fe70  1  0.96618117  0.80304193  0.79375679  1
  Fe  Fe71  1  0.96423690  0.80950408  0.12651748  1
  Fe  Fe72  1  0.69065536  0.53390905  0.37973781  1
  Fe  Fe73  1  0.18518949  0.03490371  0.37477688  1
  Fe  Fe74  1  0.69373364  0.53347063  0.71682737  1
  Fe  Fe75  1  0.19202977  0.03524511  0.70902375  1
  Fe  Fe76  1  0.19157333  0.53376076  0.37873166  1
  Fe  Fe77  1  0.68835778  0.03550903  0.37868927  1
  Fe  Fe78  1  0.69503139  0.53343188  0.04588756  1
  Fe  Fe79  1  0.19949242  0.53133570  0.04376059  1
  Fe  Fe80  1  0.19315058  0.03592000  0.05990160  1
  Fe  Fe81  1  0.19406688  0.53422436  0.71679172  1
  Fe  Fe82  1  0.53201313  0.20121236  0.54651236  1
  Fe  Fe83  1  0.53571317  0.69316900  0.21424880  1
  Fe  Fe84  1  0.53740918  0.19053423  0.87907642  1
  Fe  Fe85  1  0.03436812  0.69530640  0.54939552  1
  Fe  Fe86  1  0.03680970  0.19456022  0.88287703  1
  Fe  Fe87  1  0.53313905  0.69518166  0.88099516  1
  Fe  Fe88  1  0.53349406  0.19759944  0.21693912  1
  Fe  Fe89  1  0.53516448  0.69002022  0.54830135  1
  Fe  Fe90  1  0.03409843  0.68893757  0.21529935  1
  Fe  Fe91  1  0.03842668  0.18545318  0.54429318  1
  Fe  Fe92  1  0.80614236  0.96913256  0.28840694  1
  Fe  Fe93  1  0.31344549  0.46200227  0.28684258  1
  Fe  Fe94  1  0.79699653  0.96701513  0.62445784  1
  Fe  Fe95  1  0.79798326  0.97535027  0.96234444  1
  Fe  Fe96  1  0.80941339  0.46519207  0.62010400  1
  Fe  Fe97  1  0.31140002  0.96297554  0.61816509  1
  Fe  Fe98  1  0.30356952  0.96869774  0.94995191  1
  Fe  Fe99  1  0.30614547  0.46660345  0.61486546  1
  Fe  Fe100  1  0.80415695  0.46495042  0.28476469  1
  Fe  Fe101  1  0.30368967  0.96225470  0.28211684  1
  S  S102  1  0.36180087  0.13676342  0.08589240  1
  S  S103  1  0.36204726  0.13240767  0.41523895  1
  S  S104  1  0.36036600  0.13968574  0.74818592  1
  S  S105  1  0.36185932  0.64608714  0.08440248  1
  S  S106  1  0.36031509  0.63982326  0.41507074  1
  S  S107  1  0.35746030  0.64297708  0.75021655  1
  S  S108  1  0.87142531  0.13902427  0.08046164  1
  S  S109  1  0.85927436  0.13981577  0.41798342  1
  S  S110  1  0.86268570  0.14119971  0.74495374  1
  S  S111  1  0.85749011  0.64302153  0.08542250  1
  S  S112  1  0.85843915  0.64154000  0.41945644  1
  S  S113  1  0.85613787  0.63973264  0.74942413  1
  S  S114  1  0.15101430  0.35835709  0.25464360  1
  S  S115  1  0.14218451  0.35928193  0.58207846  1
  S  S116  1  0.14076579  0.36237872  0.91369733  1
  S  S117  1  0.14116940  0.85484741  0.25183101  1
  S  S118  1  0.14197218  0.85931624  0.58489189  1
  S  S119  1  0.14037703  0.86322081  0.91662187  1
  S  S120  1  0.64138406  0.35969020  0.24943199  1
  S  S121  1  0.64599048  0.35957574  0.58566610  1
  S  S122  1  0.63766844  0.36187466  0.91733823  1
  S  S123  1  0.63933627  0.85918753  0.24942386  1
  S  S124  1  0.63807459  0.85401985  0.58083694  1
  S  S125  1  0.63687339  0.86019812  0.91436328  1
  S  S126  1  0.07717411  0.16736519  0.03503570  1
  S  S127  1  0.07318173  0.17357705  0.38534516  1
  S  S128  1  0.07432836  0.17473440  0.71014090  1
  S  S129  1  0.06437198  0.66580770  0.04373282  1
  S  S130  1  0.06551391  0.67092801  0.37904064  1
  S  S131  1  0.06393688  0.66837155  0.70750005  1
  S  S132  1  0.56228059  0.17015311  0.04382308  1
  S  S133  1  0.56778955  0.17135950  0.37807590  1
  S  S134  1  0.56683730  0.17865866  0.71138948  1
  S  S135  1  0.56598432  0.66971214  0.04200661  1
  S  S136  1  0.56725815  0.66880786  0.37644303  1
  S  S137  1  0.56271996  0.66494494  0.70680301  1
  S  S138  1  0.32891104  0.43523214  0.12372869  1
  S  S139  1  0.33590703  0.44336292  0.45974208  1
  S  S140  1  0.33509856  0.43898334  0.79052095  1
  S  S141  1  0.32917617  0.93005954  0.12140253  1
  S  S142  1  0.33473966  0.92987950  0.45779355  1
  S  S143  1  0.33423979  0.93401200  0.79109601  1
  S  S144  1  0.82638262  0.43553955  0.12297525  1
  S  S145  1  0.83075020  0.43384400  0.45776112  1
  S  S146  1  0.83369018  0.43658342  0.78923789  1
  S  S147  1  0.82213225  0.92640567  0.12192600  1
  S  S148  1  0.82169762  0.93043346  0.45660701  1
  S  S149  1  0.83302204  0.93056535  0.79633561  1
  S  S150  1  0.44315836  0.33936294  0.29366161  1
  S  S151  1  0.43564228  0.33448568  0.62607769  1
  S  S152  1  0.43729273  0.33182922  0.95760559  1
  S  S153  1  0.43410645  0.83184317  0.28936402  1
  S  S154  1  0.43393643  0.82818802  0.62285125  1
  S  S155  1  0.42968409  0.83002080  0.95447691  1
  S  S156  1  0.92549286  0.33512195  0.29549270  1
  S  S157  1  0.93750508  0.33447078  0.62298734  1
  S  S158  1  0.93944912  0.33311588  0.95069317  1
  S  S159  1  0.92803640  0.82606757  0.29263816  1
  S  S160  1  0.92899384  0.82949118  0.62633187  1
  S  S161  1  0.92038144  0.82674474  0.95759261  1
  S  S162  1  0.15729551  0.05039141  0.20529382  1
  S  S163  1  0.17772307  0.06711532  0.54474244  1
  S  S164  1  0.17420253  0.07082289  0.87188577  1
  S  S165  1  0.17272945  0.56880157  0.20863396  1
  S  S166  1  0.16722010  0.56606665  0.54310132  1
  S  S167  1  0.16726620  0.56635789  0.87611687  1
  S  S168  1  0.65876221  0.06381678  0.20783979  1
  S  S169  1  0.66710254  0.06794047  0.54133239  1
  S  S170  1  0.67515456  0.06970429  0.87336604  1
  S  S171  1  0.66718440  0.56747256  0.20804374  1
  S  S172  1  0.66670603  0.56295875  0.54041118  1
  S  S173  1  0.66210145  0.56972915  0.87480750  1
  O  O174  1  0.36839097  0.21434073  0.07464323  1
  O  O175  1  0.36645679  0.20945056  0.40670104  1
  O  O176  1  0.36783680  0.21983396  0.74073990  1
  O  O177  1  0.36980291  0.72640085  0.07736668  1
  O  O178  1  0.37086234  0.71710550  0.40318092  1
  O  O179  1  0.36644242  0.72161596  0.74144274  1
  O  O180  1  0.87274621  0.20545758  0.05205523  1
  O  O181  1  0.86818347  0.22035448  0.41322557  1
  O  O182  1  0.88004647  0.21467007  0.72830325  1
  O  O183  1  0.86667213  0.72545171  0.08401453  1
  O  O184  1  0.86722521  0.72185549  0.41504812  1
  O  O185  1  0.86746266  0.71961151  0.74493171  1
  O  O186  1  0.28507079  0.12487709  0.09552148  1
  O  O187  1  0.28559206  0.11743826  0.42684537  1
  O  O188  1  0.28088278  0.13038875  0.75556030  1
  O  O189  1  0.28099883  0.63666666  0.08879714  1
  O  O190  1  0.28026526  0.63273198  0.42032250  1
  O  O191  1  0.27835387  0.63359211  0.75768500  1
  O  O192  1  0.79656505  0.12743220  0.09355964  1
  O  O193  1  0.77947033  0.13039418  0.42533489  1
  O  O194  1  0.78608665  0.14348365  0.75541315  1
  O  O195  1  0.77854207  0.63452395  0.09462706  1
  O  O196  1  0.77955884  0.63054336  0.42785255  1
  O  O197  1  0.77375646  0.63020656  0.75115599  1
  O  O198  1  0.14102553  0.28750721  0.27215671  1
  O  O199  1  0.13284484  0.28099916  0.59034095  1
  O  O200  1  0.13039936  0.28262590  0.92046843  1
  O  O201  1  0.13282644  0.77630646  0.26193402  1
  O  O202  1  0.13063020  0.78060927  0.59393120  1
  O  O203  1  0.13753928  0.78819783  0.93006183  1
  O  O204  1  0.63248397  0.28082300  0.25866544  1
  O  O205  1  0.63696254  0.27979314  0.59232049  1
  O  O206  1  0.62931579  0.28329546  0.92768405  1
  O  O207  1  0.63122451  0.77997770  0.25845025  1
  O  O208  1  0.63095694  0.77172722  0.58151189  1
  O  O209  1  0.62990353  0.78029592  0.92211553  1
  O  O210  1  0.23303606  0.37230771  0.25438574  1
  O  O211  1  0.22189493  0.36889792  0.57558030  1
  O  O212  1  0.21443592  0.37023177  0.89905169  1
  O  O213  1  0.22009374  0.86283784  0.24290609  1
  O  O214  1  0.22157980  0.86699532  0.57880665  1
  O  O215  1  0.21789996  0.87625139  0.90407082  1
  O  O216  1  0.71957332  0.36687911  0.23898207  1
  O  O217  1  0.72629487  0.36750609  0.57869711  1
  O  O218  1  0.71112050  0.37053255  0.90262779  1
  O  O219  1  0.71986913  0.86957638  0.24543669  1
  O  O220  1  0.71721505  0.86709297  0.57372460  1
  O  O221  1  0.71797367  0.87172818  0.90984616  1
  O  O222  1  0.42396138  0.12893534  0.15250618  1
  O  O223  1  0.42456598  0.12505669  0.48310880  1
  O  O224  1  0.41868180  0.13253140  0.81654869  1
  O  O225  1  0.41784076  0.64121234  0.15646656  1
  O  O226  1  0.41793833  0.63538094  0.48552159  1
  O  O227  1  0.41624428  0.63575343  0.81893368  1
  O  O228  1  0.93859490  0.13964933  0.14331575  1
  O  O229  1  0.91742010  0.13185754  0.48626381  1
  O  O230  1  0.92339690  0.13018869  0.81096377  1
  O  O231  1  0.91664299  0.63215777  0.15293929  1
  O  O232  1  0.91864739  0.63047917  0.48556420  1
  O  O233  1  0.91127966  0.62661934  0.81488247  1
  O  O234  1  0.37121995  0.07659661  0.01754763  1
  O  O235  1  0.37286707  0.07194021  0.34790014  1
  O  O236  1  0.36855881  0.08199287  0.67979048  1
  O  O237  1  0.37622136  0.58828081  0.02114307  1
  O  O238  1  0.37224374  0.57869368  0.35018111  1
  O  O239  1  0.36696940  0.58354485  0.68306974  1
  O  O240  1  0.87475816  0.06631706  0.01213958  1
  O  O241  1  0.86575087  0.08240798  0.34870605  1
  O  O242  1  0.86540323  0.07556774  0.67745142  1
  O  O243  1  0.86477737  0.58764013  0.01721404  1
  O  O244  1  0.86505623  0.58419925  0.34986070  1
  O  O245  1  0.86510298  0.58238649  0.67926469  1
  O  O246  1  0.09747430  0.36378377  0.18403041  1
  O  O247  1  0.08345101  0.36985575  0.51500983  1
  O  O248  1  0.07583201  0.37495888  0.85028451  1
  O  O249  1  0.08196324  0.85890709  0.18256534  1
  O  O250  1  0.08317064  0.86547268  0.51616341  1
  O  O251  1  0.07976090  0.86408447  0.84590475  1
  O  O252  1  0.58184221  0.36832217  0.18277848  1
  O  O253  1  0.58846722  0.37082123  0.52044510  1
  O  O254  1  0.57229510  0.37238923  0.85315735  1
  O  O255  1  0.58276556  0.86294755  0.17823878  1
  O  O256  1  0.57952411  0.86359509  0.51203026  1
  O  O257  1  0.58099709  0.86298901  0.84172245  1
  O  O258  1  0.13410205  0.42550812  0.31747534  1
  O  O259  1  0.13317918  0.41870000  0.65048852  1
  O  O260  1  0.13636275  0.41987918  0.98477436  1
  O  O261  1  0.13449640  0.91449821  0.31975425  1
  O  O262  1  0.13417476  0.91871149  0.65290583  1
  O  O263  1  0.13039940  0.92616233  0.98106106  1
  O  O264  1  0.63798030  0.41852250  0.31948818  1
  O  O265  1  0.63883560  0.41709157  0.65614916  1
  O  O266  1  0.63072287  0.42101595  0.98678155  1
  O  O267  1  0.62700526  0.91772125  0.31510380  1
  O  O268  1  0.62789640  0.90876751  0.64797814  1
  O  O269  1  0.62222639  0.91879637  0.97701125  1
  O  O270  1  0.05410500  0.20429741  0.09918440  1
  O  O271  1  0.03120854  0.20164652  0.44504715  1
  O  O272  1  0.03876508  0.20585758  0.77094039  1
  O  O273  1  0.03176056  0.69514451  0.10886724  1
  O  O274  1  0.02668055  0.70078405  0.43865942  1
  O  O275  1  0.02731130  0.69576864  0.76658183  1
  O  O276  1  0.52724409  0.20772637  0.10535483  1
  O  O277  1  0.53866136  0.19964579  0.44207197  1
  O  O278  1  0.52868913  0.21019260  0.77215532  1
  O  O279  1  0.52999280  0.70018939  0.10347088  1
  O  O280  1  0.52926213  0.69886409  0.43622293  1
  O  O281  1  0.52509382  0.69534431  0.76734900  1
  O  O282  1  0.30425503  0.47569777  0.06665234  1
  O  O283  1  0.29737452  0.47804385  0.39887890  1
  O  O284  1  0.30193750  0.47025469  0.72486141  1
  O  O285  1  0.29552219  0.96443379  0.05980570  1
  O  O286  1  0.30437590  0.96165637  0.39446516  1
  O  O287  1  0.30607783  0.96895557  0.72889853  1
  O  O288  1  0.79269040  0.47398978  0.06553663  1
  O  O289  1  0.79979195  0.47037430  0.39698376  1
  O  O290  1  0.79949523  0.46978282  0.72458135  1
  O  O291  1  0.79677564  0.96026628  0.05985929  1
  O  O292  1  0.79411966  0.96947316  0.39671118  1
  O  O293  1  0.81434145  0.96959181  0.73826349  1
  O  O294  1  0.46921029  0.29875610  0.22506009  1
  O  O295  1  0.47096223  0.30490638  0.56597444  1
  O  O296  1  0.46898697  0.29134152  0.89452537  1
  O  O297  1  0.47196388  0.80327134  0.22923781  1
  O  O298  1  0.46944609  0.79602210  0.56111740  1
  O  O299  1  0.46742149  0.80112650  0.89398142  1
  O  O300  1  0.95276415  0.31097893  0.23132428  1
  O  O301  1  0.97233527  0.30462827  0.56104445  1
  O  O302  1  0.96672410  0.28969259  0.88322106  1
  O  O303  1  0.96933849  0.79681282  0.23493770  1
  O  O304  1  0.97034573  0.80352112  0.56760883  1
  O  O305  1  0.96143675  0.80964298  0.90152378  1
  O  O306  1  0.20582830  0.02400198  0.27249737  1
  O  O307  1  0.20708692  0.02611913  0.60337094  1
  O  O308  1  0.20305156  0.03725519  0.93440274  1
  O  O309  1  0.20304626  0.53393299  0.27036125  1
  O  O310  1  0.19725380  0.53031849  0.60505913  1
  O  O311  1  0.20438649  0.53788081  0.93954404  1
  O  O312  1  0.69591110  0.03384514  0.27378260  1
  O  O313  1  0.69346507  0.02809100  0.59801859  1
  O  O314  1  0.70509201  0.03331169  0.93575047  1
  O  O315  1  0.69665293  0.53164153  0.26998401  1
  O  O316  1  0.69665205  0.52657106  0.60109122  1
  O  O317  1  0.68629098  0.53893094  0.93784834  1
  O  O318  1  0.09453350  0.08370110  0.02994690  1
  O  O319  1  0.08951516  0.09216135  0.38193871  1
  O  O320  1  0.09241968  0.09396558  0.70620061  1
  O  O321  1  0.09209888  0.58741303  0.04209568  1
  O  O322  1  0.08533059  0.59056290  0.37817670  1
  O  O323  1  0.08226318  0.58526072  0.70103559  1
  O  O324  1  0.56868162  0.08777499  0.03904494  1
  O  O325  1  0.57955144  0.08582080  0.36513582  1
  O  O326  1  0.58344883  0.09961034  0.70763840  1
  O  O327  1  0.58405105  0.58822687  0.03732299  1
  O  O328  1  0.58484672  0.58770703  0.37338713  1
  O  O329  1  0.57869885  0.58212805  0.70178615  1
  O  O330  1  0.40982959  0.41370198  0.12556703  1
  O  O331  1  0.41787938  0.43808242  0.46254609  1
  O  O332  1  0.41704092  0.41987107  0.79167792  1
  O  O333  1  0.41259816  0.91708871  0.12534949  1
  O  O334  1  0.41848277  0.91497801  0.46448185  1
  O  O335  1  0.41590411  0.91456682  0.79834915  1
  O  O336  1  0.90643751  0.42175259  0.12287167  1
  O  O337  1  0.91384492  0.41975206  0.46556712  1
  O  O338  1  0.91543380  0.41990484  0.78907435  1
  O  O339  1  0.90293829  0.90596633  0.13331352  1
  O  O340  1  0.90179467  0.91037722  0.46118846  1
  O  O341  1  0.91719509  0.91381169  0.81090640  1
  O  O342  1  0.42236820  0.41854542  0.28936029  1
  O  O343  1  0.41714917  0.41696557  0.62900937  1
  O  O344  1  0.42930818  0.41297698  0.95834665  1
  O  O345  1  0.41643334  0.91408552  0.29513684  1
  O  O346  1  0.41795083  0.90986236  0.62567754  1
  O  O347  1  0.41150957  0.91164023  0.96075761  1
  O  O348  1  0.90997928  0.42089330  0.30973559  1
  O  O349  1  0.92200746  0.41791828  0.62883933  1
  O  O350  1  0.93014195  0.41337921  0.94749881  1
  O  O351  1  0.90357778  0.90336887  0.29223865  1
  O  O352  1  0.90724653  0.90966422  0.63192538  1
  O  O353  1  0.89334371  0.90650875  0.96747721  1
  O  O354  1  0.07831687  0.05356471  0.20757671  1
  O  O355  1  0.09889758  0.08755291  0.54425819  1
  O  O356  1  0.09160080  0.08725317  0.86099121  1
  O  O357  1  0.09065894  0.58561394  0.20301169  1
  O  O358  1  0.08414808  0.58204319  0.53793970  1
  O  O359  1  0.08417661  0.57355672  0.86772302  1
  O  O360  1  0.57803941  0.08525896  0.21021603  1
  O  O361  1  0.58722316  0.09182300  0.53840664  1
  O  O362  1  0.59649236  0.09389456  0.87929476  1
  O  O363  1  0.58530589  0.58546132  0.20102852  1
  O  O364  1  0.58412980  0.57980094  0.53579385  1
  O  O365  1  0.57721604  0.58574913  0.86239371  1
  O  O366  1  0.14504381  0.21010604  0.03019831  1
  O  O367  1  0.14690736  0.22531887  0.41205259  1
  O  O368  1  0.14541141  0.22697035  0.72442263  1
  O  O369  1  0.13252069  0.72308641  0.05914078  1
  O  O370  1  0.13473392  0.72436616  0.39455811  1
  O  O371  1  0.13583967  0.71915558  0.72207178  1
  O  O372  1  0.63791430  0.21575665  0.06042745  1
  O  O373  1  0.64234061  0.21795031  0.39152219  1
  O  O374  1  0.63833805  0.23257089  0.73003934  1
  O  O375  1  0.63640088  0.72202351  0.05679472  1
  O  O376  1  0.63932578  0.72044827  0.39357115  1
  O  O377  1  0.63352457  0.71592635  0.72257867  1
  O  O378  1  0.27579416  0.36491223  0.10627080  1
  O  O379  1  0.29157411  0.36954823  0.44758718  1
  O  O380  1  0.28541376  0.36628520  0.77554461  1
  O  O381  1  0.28138063  0.85788765  0.10892725  1
  O  O382  1  0.28571451  0.85869514  0.44604177  1
  O  O383  1  0.28082029  0.86335358  0.77489264  1
  O  O384  1  0.77689681  0.36269670  0.10865706  1
  O  O385  1  0.78099554  0.36096829  0.44113482  1
  O  O386  1  0.78483688  0.36302584  0.77319447  1
  O  O387  1  0.76657046  0.85621108  0.10419246  1
  O  O388  1  0.76732076  0.85920187  0.43652005  1
  O  O389  1  0.77909066  0.85965606  0.77473754  1
  O  O390  1  0.37567471  0.29258120  0.29041913  1
  O  O391  1  0.36324344  0.28403458  0.61114089  1
  O  O392  1  0.36270380  0.28631291  0.94521175  1
  O  O393  1  0.36336744  0.77956463  0.27278847  1
  O  O394  1  0.36283936  0.77834572  0.60959775  1
  O  O395  1  0.35930268  0.77701679  0.93798657  1
  O  O396  1  0.85484061  0.28707756  0.28784860  1
  O  O397  1  0.86530085  0.28453569  0.60748265  1
  O  O398  1  0.86393589  0.28935910  0.93860746  1
  O  O399  1  0.85921138  0.76891835  0.27493193  1
  O  O400  1  0.86046497  0.77271091  0.60553540  1
  O  O401  1  0.85183404  0.76787917  0.93517875  1
  O  O402  1  0.19922043  0.12296375  0.21040961  1
  O  O403  1  0.23268311  0.13707449  0.56380756  1
  O  O404  1  0.22615370  0.14248992  0.88742742  1
  O  O405  1  0.22444126  0.64221337  0.22742863  1
  O  O406  1  0.21759954  0.63791124  0.55974537  1
  O  O407  1  0.21254392  0.64150138  0.88752869  1
  O  O408  1  0.70768763  0.13423275  0.21750730  1
  O  O409  1  0.72317124  0.13685272  0.55724644  1
  O  O410  1  0.72824357  0.14097441  0.89038297  1
  O  O411  1  0.71968501  0.63914782  0.22573926  1
  O  O412  1  0.71778332  0.63307155  0.55412153  1
  O  O413  1  0.71216254  0.64071349  0.88708528  1
  O  O414  1  0.49466307  0.33275736  0.03116036  1
  O  O415  1  0.51052812  0.35199517  0.36144689  1
  O  O416  1  0.49375962  0.34096340  0.70059318  1
  O  O417  1  0.48982137  0.83231589  0.02700925  1
  O  O418  1  0.49314339  0.83407380  0.36217633  1
  O  O419  1  0.49448104  0.83097844  0.69490152  1
  O  O420  1  0.99940928  0.33350377  0.01967737  1
  O  O421  1  0.98983103  0.33763198  0.36717381  1
  O  O422  1  0.99673281  0.33561958  0.69489582  1
  O  O423  1  0.97794803  0.82691829  0.03039870  1
  O  O424  1  0.98615604  0.83125352  0.36673161  1
  O  O425  1  0.98706344  0.83189636  0.69974031  1
  O  O426  1  0.16192728  -0.01187203  0.13538300  1
  O  O427  1  0.17478778  0.00909531  0.47160877  1
  O  O428  1  0.17530818  0.00980542  0.80088873  1
  O  O429  1  0.17393129  0.51140651  0.13710427  1
  O  O430  1  0.16488800  0.50689315  0.47096057  1
  O  O431  1  0.17190574  0.50814683  0.80380825  1
  O  O432  1  0.64731406  0.00024941  0.13789753  1
  O  O433  1  0.65837995  0.01035227  0.46458056  1
  O  O434  1  0.66461955  0.01153900  0.80103019  1
  O  O435  1  0.66717403  0.50860913  0.13663018  1
  O  O436  1  0.66179996  0.50295714  0.46671195  1
  O  O437  1  0.66273195  0.50810874  0.80397257  1
  O  O438  1  0.01967706  0.17789900  0.31579573  1
  O  O439  1  0.01456490  0.17227012  0.63727089  1
  O  O440  1  0.00972540  0.15491291  0.96140817  1
  O  O441  1  0.00655341  0.66471821  0.30477331  1
  O  O442  1  0.00566182  0.66459415  0.63299589  1
  O  O443  1  0.00230570  0.65742943  0.97370676  1
  O  O444  1  0.50708081  0.17497740  0.30842831  1
  O  O445  1  0.50884637  0.18054351  0.63891283  1
  O  O446  1  0.50641490  0.17223387  0.97052507  1
  O  O447  1  0.50954866  0.66766180  0.30366994  1
  O  O448  1  0.50328880  0.66253125  0.63407824  1
  O  O449  1  0.50578565  0.66680680  0.96942400  1
  O  O450  1  0.33461348  0.49288888  0.19841999  1
  O  O451  1  0.33427319  0.50130180  0.53340567  1
  O  O452  1  0.34133482  0.49978231  0.86047106  1
  O  O453  1  0.33377304  0.99027265  0.19450981  1
  O  O454  1  0.33702100  0.99094762  0.52976043  1
  O  O455  1  0.33590321  0.99439862  0.86280853  1
  O  O456  1  0.83042229  0.49170626  0.19918849  1
  O  O457  1  0.82975693  0.49275719  0.52970202  1
  O  O458  1  0.83611226  0.49659696  0.85844397  1
  O  O459  1  0.82006772  0.98685561  0.19251164  1
  O  O460  1  0.82166743  0.98721167  0.52905995  1
  O  O461  1  0.82938412  0.98776247  0.86918187  1
