# generated using pymatgen
data_Na31Fe20(SO4)36
_symmetry_space_group_name_H-M   'P 1'
_cell_length_a   18.06401801
_cell_length_b   18.07210068
_cell_length_c   19.68985216
_cell_angle_alpha   107.60016242
_cell_angle_beta   107.55977039
_cell_angle_gamma   90.67262025
_symmetry_Int_Tables_number   1
_chemical_formula_structural   Na31Fe20(SO4)36
_chemical_formula_sum   'Na62 Fe40 S72 O288'
_cell_volume   5803.84273892
_cell_formula_units_Z   2
loop_
 _symmetry_equiv_pos_site_id
 _symmetry_equiv_pos_as_xyz
  1  'x, y, z'
loop_
 _atom_site_type_symbol
 _atom_site_label
 _atom_site_symmetry_multiplicity
 _atom_site_fract_x
 _atom_site_fract_y
 _atom_site_fract_z
 _atom_site_occupancy
  Na  Na0  1  0.12999392  0.35750133  0.07100474  1
  Na  Na1  1  0.13149083  0.36635916  0.41600603  1
  Na  Na2  1  0.12834823  0.37483397  0.75275365  1
  Na  Na3  1  0.14456433  0.85821356  0.07561878  1
  Na  Na4  1  0.14369309  0.85927671  0.41207384  1
  Na  Na5  1  0.13050517  0.86899487  0.74921764  1
  Na  Na6  1  0.63880522  0.35945144  0.08484393  1
  Na  Na7  1  0.65649446  0.38380479  0.43586201  1
  Na  Na8  1  0.62489805  0.36156929  0.74022659  1
  Na  Na9  1  0.63017860  0.86093395  0.08011955  1
  Na  Na10  1  0.63432788  0.86858419  0.42896774  1
  Na  Na11  1  0.63278458  0.86269087  0.74660945  1
  Na  Na12  1  0.36946090  0.13492725  0.25042631  1
  Na  Na13  1  0.37069674  0.13717487  0.58266359  1
  Na  Na14  1  0.37133954  0.12946831  0.91809526  1
  Na  Na15  1  0.36642626  0.66568776  0.27401579  1
  Na  Na16  1  0.36642374  0.63747935  0.58641382  1
  Na  Na17  1  0.36955050  0.63838459  0.92831023  1
  Na  Na18  1  0.85637251  0.13828223  0.24415523  1
  Na  Na19  1  0.84892933  0.13092453  0.57680861  1
  Na  Na20  1  0.86166060  0.14358793  0.91698447  1
  Na  Na21  1  0.86898658  0.63689520  0.25339763  1
  Na  Na22  1  0.85684182  0.62351583  0.57413366  1
  Na  Na23  1  0.87552012  0.62347610  0.91339312  1
  Na  Na24  1  0.48739375  0.00793527  0.75697518  1
  Na  Na25  1  0.48504089  0.02196523  0.41863059  1
  Na  Na26  1  0.97681027  0.50311197  0.43060268  1
  Na  Na27  1  0.50990307  0.51963888  0.41219510  1
  Na  Na28  1  0.49992620  0.52211294  0.06166587  1
  Na  Na29  1  0.99233483  0.00163438  0.43001100  1
  Na  Na30  1  0.49369330  -0.00332316  0.06832069  1
  Na  Na31  1  0.99565139  0.00808818  0.07099231  1
  Na  Na32  1  1.00301476  0.50979379  0.06598348  1
  Na  Na33  1  0.01060604  0.98786930  0.24863253  1
  Na  Na34  1  -0.04400322  1.01674448  0.64111781  1
  Na  Na35  1  0.00714371  0.48973518  0.25091829  1
  Na  Na36  1  0.50368572  0.47701467  0.60290393  1
  Na  Na37  1  -0.01685592  1.04334442  0.85971558  1
  Na  Na38  1  0.54180905  0.49537911  0.24799526  1
  Na  Na39  1  0.00038821  0.49337252  0.63654522  1
  Na  Na40  1  0.51580680  0.98332408  0.57519360  1
  Na  Na41  1  0.51221697  0.96220006  0.23645221  1
  Na  Na42  1  0.24248065  0.24234925  -0.00442271  1
  Na  Na43  1  0.75654448  0.25968720  0.32399688  1
  Na  Na44  1  0.24973867  0.24839014  0.33178015  1
  Na  Na45  1  0.25445581  0.25702943  0.66707290  1
  Na  Na46  1  0.74125490  0.74106554  0.34260373  1
  Na  Na47  1  0.75604657  0.25742668  -0.00539978  1
  Na  Na48  1  0.73186875  0.24135803  0.67905926  1
  Na  Na49  1  0.24189481  0.73742440  0.67367189  1
  Na  Na50  1  0.74994926  0.74756918  0.00245021  1
  Na  Na51  1  0.75056006  0.75561055  0.66411920  1
  Na  Na52  1  0.74461596  0.74196579  0.50292171  1
  Na  Na53  1  0.75760307  0.74771227  0.83246501  1
  Na  Na54  1  0.27331496  0.76091342  0.48185969  1
  Na  Na55  1  0.24748722  0.24873470  0.16288720  1
  Na  Na56  1  0.27756553  0.76222972  0.15379557  1
  Na  Na57  1  0.74678177  0.74172816  0.17291551  1
  Na  Na58  1  0.73796026  0.25131182  0.50923561  1
  Na  Na59  1  0.24404011  0.25290785  0.83235855  1
  Na  Na60  1  0.24624667  0.25321049  0.50025239  1
  Na  Na61  1  0.24113192  0.73373106  0.84642209  1
  Fe  Fe62  1  0.46707787  0.30804699  0.78959856  1
  Fe  Fe63  1  0.46533694  0.81282911  0.78740387  1
  Fe  Fe64  1  0.96278274  0.30335466  0.79133892  1
  Fe  Fe65  1  0.96680572  0.80795403  0.45456731  1
  Fe  Fe66  1  0.96496584  0.30776434  0.45832737  1
  Fe  Fe67  1  0.46617822  0.30428775  0.12076592  1
  Fe  Fe68  1  0.96850784  0.80571714  0.11600199  1
  Fe  Fe69  1  0.46992929  0.29692642  0.45739159  1
  Fe  Fe70  1  0.96210810  0.80951849  0.78372302  1
  Fe  Fe71  1  0.96307185  0.30448206  0.11572859  1
  Fe  Fe72  1  0.18880247  0.03643960  0.71323105  1
  Fe  Fe73  1  0.69490911  0.03248286  0.38466565  1
  Fe  Fe74  1  0.69955852  0.03443922  0.71074208  1
  Fe  Fe75  1  0.19146857  0.53500185  0.04705307  1
  Fe  Fe76  1  0.68916732  0.03533350  0.04495464  1
  Fe  Fe77  1  0.69290055  0.53349726  0.03849444  1
  Fe  Fe78  1  0.19341164  0.53238400  0.38192390  1
  Fe  Fe79  1  0.19252760  0.03555437  0.38051950  1
  Fe  Fe80  1  0.70273674  0.53210852  0.70757969  1
  Fe  Fe81  1  0.18886492  0.03430979  0.04130819  1
  Fe  Fe82  1  0.52860769  0.70451019  0.54472541  1
  Fe  Fe83  1  0.53322219  0.69051669  0.87582606  1
  Fe  Fe84  1  0.03192532  0.19264683  0.21417893  1
  Fe  Fe85  1  0.03824925  0.69143915  0.54987126  1
  Fe  Fe86  1  0.53673272  0.19060422  0.88247130  1
  Fe  Fe87  1  0.52868712  0.70784426  0.21262315  1
  Fe  Fe88  1  0.04124765  0.69149201  0.21570938  1
  Fe  Fe89  1  0.03306326  0.19336833  0.55253266  1
  Fe  Fe90  1  0.03961452  0.68595470  0.87613972  1
  Fe  Fe91  1  0.53746399  0.18892649  0.21348409  1
  Fe  Fe92  1  0.80033663  0.46797295  0.28684133  1
  Fe  Fe93  1  0.30390835  0.46423029  0.95227616  1
  Fe  Fe94  1  0.30624599  0.95933827  0.94758039  1
  Fe  Fe95  1  0.30738730  0.46194281  0.28809456  1
  Fe  Fe96  1  0.80633941  0.46083083  0.94796966  1
  Fe  Fe97  1  0.30562000  0.96650864  0.61505785  1
  Fe  Fe98  1  0.80541015  0.96454156  0.95077567  1
  Fe  Fe99  1  0.80973041  0.96424381  0.28585847  1
  Fe  Fe100  1  0.30830490  0.96440508  0.28089331  1
  Fe  Fe101  1  0.30154852  0.47159699  0.63076502  1
  S  S102  1  0.36115262  0.13834158  0.08138886  1
  S  S103  1  0.35428567  0.14038594  0.41216449  1
  S  S104  1  0.35877498  0.13980043  0.75022162  1
  S  S105  1  0.36226029  0.63357688  0.08926010  1
  S  S106  1  0.35972757  0.63456223  0.41695181  1
  S  S107  1  0.36041186  0.64590319  0.74890022  1
  S  S108  1  0.85836026  0.13793850  0.08341880  1
  S  S109  1  0.85961772  0.13863680  0.41536792  1
  S  S110  1  0.85654733  0.14280354  0.75032631  1
  S  S111  1  0.86413262  0.63973918  0.08398463  1
  S  S112  1  0.86345344  0.63967958  0.41400698  1
  S  S113  1  0.86355767  0.64313833  0.75089434  1
  S  S114  1  0.13765250  0.35855153  0.24916411  1
  S  S115  1  0.13676115  0.35608446  0.58382527  1
  S  S116  1  0.13562978  0.36117524  0.91684723  1
  S  S117  1  0.14136198  0.86029351  0.24744281  1
  S  S118  1  0.14201235  0.85934465  0.58047868  1
  S  S119  1  0.13664326  0.85949070  0.91264561  1
  S  S120  1  0.63821634  0.35827776  0.25170228  1
  S  S121  1  0.63793064  0.36553356  0.58216414  1
  S  S122  1  0.64030740  0.35767762  0.91840160  1
  S  S123  1  0.64818782  0.85954599  0.25050998  1
  S  S124  1  0.64183457  0.86248273  0.59037488  1
  S  S125  1  0.64231022  0.85810115  0.91683480  1
  S  S126  1  0.06272821  0.16679646  0.04202287  1
  S  S127  1  0.06310914  0.16753506  0.37415075  1
  S  S128  1  0.06256655  0.17155913  0.71060428  1
  S  S129  1  0.07179131  0.67378753  0.04708539  1
  S  S130  1  0.07146897  0.66935148  0.37652226  1
  S  S131  1  0.06749554  0.67402307  0.71287674  1
  S  S132  1  0.56798405  0.16718236  0.04287300  1
  S  S133  1  0.56790362  0.16451408  0.37267902  1
  S  S134  1  0.56462253  0.16119164  0.70882494  1
  S  S135  1  0.57174675  0.67064738  0.04097581  1
  S  S136  1  0.56503173  0.67635060  0.37502565  1
  S  S137  1  0.57271179  0.67145313  0.70960000  1
  S  S138  1  0.32822177  0.42338618  0.12519282  1
  S  S139  1  0.32676485  0.42552171  0.46050974  1
  S  S140  1  0.33056889  0.42927790  0.79436865  1
  S  S141  1  0.33066785  0.94234869  0.12079566  1
  S  S142  1  0.33093633  0.94264031  0.45666481  1
  S  S143  1  0.32740353  0.93385171  0.78553087  1
  S  S144  1  0.83037342  0.43423487  0.12382208  1
  S  S145  1  0.84023819  0.43236341  0.46141510  1
  S  S146  1  0.82425897  0.42656250  0.78888576  1
  S  S147  1  0.83379419  0.93281793  0.12386408  1
  S  S148  1  0.83527734  0.93454070  0.45691559  1
  S  S149  1  0.82840169  0.93665322  0.79215035  1
  S  S150  1  0.43096974  0.32646910  0.29225510  1
  S  S151  1  0.42431297  0.32858568  0.62495806  1
  S  S152  1  0.43063314  0.32715725  0.95827908  1
  S  S153  1  0.44202228  0.84712333  0.29483617  1
  S  S154  1  0.43041728  0.83561832  0.62561522  1
  S  S155  1  0.43564710  0.83179511  0.95427203  1
  S  S156  1  0.93236722  0.33123043  0.29024501  1
  S  S157  1  0.92712682  0.32107090  0.62472085  1
  S  S158  1  0.93064313  0.33100598  0.95939738  1
  S  S159  1  0.93890683  0.83243095  0.29063277  1
  S  S160  1  0.93064204  0.82100225  0.61861285  1
  S  S161  1  0.93387551  0.83131088  0.95846240  1
  S  S162  1  0.16401846  0.06483444  0.20502909  1
  S  S163  1  0.16878369  0.06830907  0.54107292  1
  S  S164  1  0.17741379  0.06853988  0.87772366  1
  S  S165  1  0.16688492  0.56279058  0.20819507  1
  S  S166  1  0.16895701  0.56380955  0.54053006  1
  S  S167  1  0.17572539  0.56730100  0.88035368  1
  S  S168  1  0.66927063  0.06287456  0.20860641  1
  S  S169  1  0.66480431  0.06380325  0.54374363  1
  S  S170  1  0.67309863  0.06753336  0.87664070  1
  S  S171  1  0.67082900  0.56890957  0.20425407  1
  S  S172  1  0.66282661  0.57717618  0.54227228  1
  S  S173  1  0.67947175  0.57264792  0.87454875  1
  O  O174  1  0.36979928  0.21575961  0.06977046  1
  O  O175  1  0.36722764  0.21917622  0.40413203  1
  O  O176  1  0.37052168  0.21907825  0.74427119  1
  O  O177  1  0.36397638  0.70768003  0.07496351  1
  O  O178  1  0.36244745  0.70911241  0.40350069  1
  O  O179  1  0.37848169  0.72127275  0.73506026  1
  O  O180  1  0.86731576  0.21679504  0.07523966  1
  O  O181  1  0.86971762  0.21780058  0.40838799  1
  O  O182  1  0.86638647  0.22698894  0.75124045  1
  O  O183  1  0.87257680  0.71889247  0.07553386  1
  O  O184  1  0.87756475  0.71734777  0.40264662  1
  O  O185  1  0.86379983  0.72661564  0.74973435  1
  O  O186  1  0.28107552  0.13116297  0.08809630  1
  O  O187  1  0.27168487  0.13628738  0.41514822  1
  O  O188  1  0.27899628  0.13286948  0.75729692  1
  O  O189  1  0.28591593  0.61782414  0.10152823  1
  O  O190  1  0.28238386  0.62035869  0.42834252  1
  O  O191  1  0.28146658  0.64528818  0.75391828  1
  O  O192  1  0.78036609  0.12646477  0.09117553  1
  O  O193  1  0.78236286  0.13027556  0.42706523  1
  O  O194  1  0.77211497  0.13284334  0.74920325  1
  O  O195  1  0.78385980  0.63044966  0.08924891  1
  O  O196  1  0.78683936  0.63536611  0.42346699  1
  O  O197  1  0.78462393  0.62707237  0.75930836  1
  O  O198  1  0.12893745  0.28051659  0.25967232  1
  O  O199  1  0.13201878  0.27389202  0.58812984  1
  O  O200  1  0.13299559  0.28736977  0.93244125  1
  O  O201  1  0.13158029  0.78288555  0.25672411  1
  O  O202  1  0.13564211  0.78115801  0.59056205  1
  O  O203  1  0.12679150  0.78123958  0.92119059  1
  O  O204  1  0.62930277  0.27592959  0.25307306  1
  O  O205  1  0.63206190  0.29134542  0.59669246  1
  O  O206  1  0.62935135  0.28106513  0.93138180  1
  O  O207  1  0.63712788  0.77807832  0.25298724  1
  O  O208  1  0.62171273  0.78945471  0.60652159  1
  O  O209  1  0.63299526  0.77989011  0.92613598  1
  O  O210  1  0.21781899  0.36660471  0.24346874  1
  O  O211  1  0.21859161  0.36981775  0.58339062  1
  O  O212  1  0.21172172  0.37353656  0.90303157  1
  O  O213  1  0.21927400  0.87031658  0.23796075  1
  O  O214  1  0.21915379  0.87030511  0.56886137  1
  O  O215  1  0.21466371  0.86635186  0.90171370  1
  O  O216  1  0.71775206  0.36975463  0.24603214  1
  O  O217  1  0.70911264  0.37815149  0.56437935  1
  O  O218  1  0.72149091  0.36639473  0.91696965  1
  O  O219  1  0.72990980  0.86670753  0.24582093  1
  O  O220  1  0.72017202  0.85852702  0.58346047  1
  O  O221  1  0.72236546  0.86563444  0.90941997  1
  O  O222  1  0.41883717  0.13455572  0.15199738  1
  O  O223  1  0.40921346  0.12904383  0.47821497  1
  O  O224  1  0.41726969  0.12851892  0.81736445  1
  O  O225  1  0.42406743  0.63199275  0.15938615  1
  O  O226  1  0.42072557  0.63086714  0.48654941  1
  O  O227  1  0.41740948  0.63907531  0.81878407  1
  O  O228  1  0.91832055  0.13032475  0.15178246  1
  O  O229  1  0.92103125  0.12620558  0.47973444  1
  O  O230  1  0.90811170  0.13164615  0.81854384  1
  O  O231  1  0.92176670  0.63417576  0.15414755  1
  O  O232  1  0.92495922  0.62896163  0.47987253  1
  O  O233  1  0.92212562  0.63883784  0.82143074  1
  O  O234  1  0.37272588  0.07675479  0.01684768  1
  O  O235  1  0.36043003  0.08184386  0.34223301  1
  O  O236  1  0.36594403  0.08100059  0.68168904  1
  O  O237  1  0.37503048  0.56942427  0.02524661  1
  O  O238  1  0.37014814  0.57072705  0.35175632  1
  O  O239  1  0.36746400  0.58246698  0.68226238  1
  O  O240  1  0.86924594  0.07886308  0.01642586  1
  O  O241  1  0.86390028  0.08099373  0.34427246  1
  O  O242  1  0.86743643  0.09140200  0.68179394  1
  O  O243  1  0.87545614  0.58002391  0.01809385  1
  O  O244  1  0.86945021  0.57905010  0.34484922  1
  O  O245  1  0.87518875  0.59084161  0.68396254  1
  O  O246  1  0.07996457  0.36503611  0.17975378  1
  O  O247  1  0.08331583  0.35756007  0.50962109  1
  O  O248  1  0.07287109  0.36165819  0.84644209  1
  O  O249  1  0.08136816  0.87003614  0.17996432  1
  O  O250  1  0.08130111  0.86513313  0.51212701  1
  O  O251  1  0.07703883  0.87020696  0.84631707  1
  O  O252  1  0.57998755  0.36722521  0.18183832  1
  O  O253  1  0.56956664  0.37257941  0.51802334  1
  O  O254  1  0.58485938  0.35975486  0.84626881  1
  O  O255  1  0.59289642  0.87310486  0.18521841  1
  O  O256  1  0.58391503  0.87529934  0.52624538  1
  O  O257  1  0.58485810  0.86601173  0.84819967  1
  O  O258  1  0.12680568  0.41906785  0.31515991  1
  O  O259  1  0.11757639  0.41095264  0.64558940  1
  O  O260  1  0.12656396  0.42555605  0.98152788  1
  O  O261  1  0.13216395  0.92076435  0.31515526  1
  O  O262  1  0.13456291  0.91898492  0.64844322  1
  O  O263  1  0.13116264  0.91883820  0.98192822  1
  O  O264  1  0.62576886  0.41347184  0.31788044  1
  O  O265  1  0.63142414  0.42998619  0.65084487  1
  O  O266  1  0.62820893  0.41962167  0.98292014  1
  O  O267  1  0.64154360  0.91493775  0.32143358  1
  O  O268  1  0.63943408  0.92735994  0.66099135  1
  O  O269  1  0.63622389  0.91796146  0.98525373  1
  O  O270  1  0.03056963  0.20021008  0.10719524  1
  O  O271  1  0.02872408  0.19735740  0.43584959  1
  O  O272  1  0.02426064  0.20317038  0.76856429  1
  O  O273  1  0.03202635  0.70250275  0.10708251  1
  O  O274  1  0.03713161  0.69928432  0.43857081  1
  O  O275  1  0.02637957  0.70849761  0.77073729  1
  O  O276  1  0.52978678  0.19846892  0.10297753  1
  O  O277  1  0.53084917  0.19331445  0.43157562  1
  O  O278  1  0.53415335  0.19098638  0.77549080  1
  O  O279  1  0.53616470  0.68954503  0.10132277  1
  O  O280  1  0.53468162  0.70580967  0.43887296  1
  O  O281  1  0.53844724  0.69920394  0.77261636  1
  O  O282  1  0.29657415  0.45388242  0.06087217  1
  O  O283  1  0.29657490  0.45918580  0.39698923  1
  O  O284  1  0.30530299  0.46559106  0.73492831  1
  O  O285  1  0.28925747  0.97150345  0.05559542  1
  O  O286  1  0.29329122  0.97536320  0.39273670  1
  O  O287  1  0.29601210  0.97153107  0.72496142  1
  O  O288  1  0.80287101  0.47213795  0.06360846  1
  O  O289  1  0.82867701  0.46047821  0.39542774  1
  O  O290  1  0.80018560  0.46765541  0.73235496  1
  O  O291  1  0.80142768  0.96766466  0.06256255  1
  O  O292  1  0.80268561  0.96961045  0.39377438  1
  O  O293  1  0.79824721  0.97697176  0.73557218  1
  O  O294  1  0.46653938  0.29761668  0.23022563  1
  O  O295  1  0.45711439  0.30350358  0.56287249  1
  O  O296  1  0.46765329  0.29747793  0.89756177  1
  O  O297  1  0.47412337  0.81482299  0.23133753  1
  O  O298  1  0.46162107  0.80304308  0.56336227  1
  O  O299  1  0.47094181  0.80084507  0.89100867  1
  O  O300  1  0.96917328  0.29845472  0.22905466  1
  O  O301  1  0.96959587  0.29070976  0.56637534  1
  O  O302  1  0.96316918  0.30744132  0.89656553  1
  O  O303  1  0.97335316  0.80259921  0.22825806  1
  O  O304  1  0.97281274  0.79011650  0.56035954  1
  O  O305  1  0.96736778  0.80424137  0.89623084  1
  O  O306  1  0.19600109  0.03066306  0.26685938  1
  O  O307  1  0.19891111  0.03343730  0.60298950  1
  O  O308  1  0.21051640  0.02883882  0.93704355  1
  O  O309  1  0.19796470  0.52634052  0.26939069  1
  O  O310  1  0.19646178  0.52741378  0.59954753  1
  O  O311  1  0.20960804  0.53692956  0.94743287  1
  O  O312  1  0.69840488  0.02667116  0.26992733  1
  O  O313  1  0.69638461  0.03024849  0.60646613  1
  O  O314  1  0.69987817  0.02704233  0.93555752  1
  O  O315  1  0.69700499  0.52915219  0.26163141  1
  O  O316  1  0.69104730  0.54969565  0.60873163  1
  O  O317  1  0.70673155  0.52994565  0.93218352  1
  O  O318  1  0.08520229  0.08704577  0.04353722  1
  O  O319  1  0.08067036  0.08497955  0.36844973  1
  O  O320  1  0.08539421  0.09232569  0.71217447  1
  O  O321  1  0.08749477  0.59222375  0.04405063  1
  O  O322  1  0.08529630  0.58566918  0.36773944  1
  O  O323  1  0.08860311  0.59792763  0.71717180  1
  O  O324  1  0.58362957  0.08548305  0.04132586  1
  O  O325  1  0.58479946  0.08126252  0.36651654  1
  O  O326  1  0.59821345  0.08442264  0.71260437  1
  O  O327  1  0.59054129  0.58761516  0.02594624  1
  O  O328  1  0.57053417  0.59152190  0.35814502  1
  O  O329  1  0.59138143  0.58944136  0.70042492  1
  O  O330  1  0.41166379  0.40907512  0.13376160  1
  O  O331  1  0.40759281  0.40602707  0.46585031  1
  O  O332  1  0.41020289  0.40509227  0.80174455  1
  O  O333  1  0.41294324  0.93993291  0.12426520  1
  O  O334  1  0.41321542  0.93804705  0.46272965  1
  O  O335  1  0.40892911  0.91784774  0.78821015  1
  O  O336  1  0.91315940  0.41609886  0.13066873  1
  O  O337  1  0.92594122  0.41497457  0.48271782  1
  O  O338  1  0.90051336  0.39539079  0.78767079  1
  O  O339  1  0.91657871  0.91722158  0.12813571  1
  O  O340  1  0.91393095  0.91029360  0.45211586  1
  O  O341  1  0.90824612  0.91609821  0.79207166  1
  O  O342  1  0.41554852  0.40956456  0.30096350  1
  O  O343  1  0.40626198  0.41106914  0.63616487  1
  O  O344  1  0.41280006  0.40878687  0.96629297  1
  O  O345  1  0.41887222  0.92841494  0.29148699  1
  O  O346  1  0.41562583  0.91945847  0.63074599  1
  O  O347  1  0.40831068  0.90975543  0.95025789  1
  O  O348  1  0.91846902  0.41343623  0.29267556  1
  O  O349  1  0.91272490  0.40068744  0.63009065  1
  O  O350  1  0.91239312  0.41392279  0.97247257  1
  O  O351  1  0.92289074  0.91575921  0.29661888  1
  O  O352  1  0.90522653  0.89559910  0.61442066  1
  O  O353  1  0.91166973  0.91221711  0.96532803  1
  O  O354  1  0.08097300  0.08039236  0.20141089  1
  O  O355  1  0.08807118  0.08843602  0.53743517  1
  O  O356  1  0.10314878  0.09409142  0.88327697  1
  O  O357  1  0.08320344  0.57796141  0.20407760  1
  O  O358  1  0.08685230  0.58408553  0.53379476  1
  O  O359  1  0.09953498  0.59491088  0.88618706  1
  O  O360  1  0.58542783  0.07657503  0.19931587  1
  O  O361  1  0.58101372  0.06905147  0.53082781  1
  O  O362  1  0.59006759  0.08205122  0.86775848  1
  O  O363  1  0.58968854  0.58968557  0.19920972  1
  O  O364  1  0.58192190  0.60124113  0.53622606  1
  O  O365  1  0.60149901  0.59530261  0.87360740  1
  O  O366  1  0.13361775  0.21861089  0.05591418  1
  O  O367  1  0.13417133  0.21850044  0.38762183  1
  O  O368  1  0.13206192  0.22424174  0.72228711  1
  O  O369  1  0.14396364  0.72495868  0.06715053  1
  O  O370  1  0.14336166  0.71863158  0.39098521  1
  O  O371  1  0.13612501  0.73037600  0.72868537  1
  O  O372  1  0.63882884  0.21720721  0.05727676  1
  O  O373  1  0.64004147  0.21471358  0.38733736  1
  O  O374  1  0.62570960  0.21918479  0.71581895  1
  O  O375  1  0.64423292  0.72402012  0.06134821  1
  O  O376  1  0.64200388  0.72167807  0.39234657  1
  O  O377  1  0.64471222  0.72410111  0.72803253  1
  O  O378  1  0.27903005  0.34991451  0.11071028  1
  O  O379  1  0.27244400  0.35494879  0.44418999  1
  O  O380  1  0.27413500  0.35987388  0.77799145  1
  O  O381  1  0.28889242  0.86709323  0.10958248  1
  O  O382  1  0.28559658  0.86812520  0.44200337  1
  O  O383  1  0.27652874  0.86201780  0.76887906  1
  O  O384  1  0.77836808  0.36303555  0.10574396  1
  O  O385  1  0.78795336  0.35903275  0.43913176  1
  O  O386  1  0.76429056  0.36355159  0.77607821  1
  O  O387  1  0.78475672  0.86063334  0.11028678  1
  O  O388  1  0.78229217  0.86530051  0.44393946  1
  O  O389  1  0.77559737  0.86647120  0.77776318  1
  O  O390  1  0.35678235  0.27588639  0.27221132  1
  O  O391  1  0.35275464  0.27561674  0.60894068  1
  O  O392  1  0.35882819  0.27483914  0.94047583  1
  O  O393  1  0.37005153  0.79763356  0.28169095  1
  O  O394  1  0.35748095  0.78845744  0.61407014  1
  O  O395  1  0.36900633  0.77667315  0.94184961  1
  O  O396  1  0.86087787  0.28122737  0.27498055  1
  O  O397  1  0.85580497  0.26686472  0.60297300  1
  O  O398  1  0.86173765  0.27872350  0.94699521  1
  O  O399  1  0.86716516  0.78193167  0.27521538  1
  O  O400  1  0.86459868  0.76230719  0.60335690  1
  O  O401  1  0.86553129  0.77738608  0.94674539  1
  O  O402  1  0.21249355  0.13791991  0.21916192  1
  O  O403  1  0.22179531  0.13756813  0.55401506  1
  O  O404  1  0.23474169  0.13539285  0.89138598  1
  O  O405  1  0.21543324  0.63408586  0.22222844  1
  O  O406  1  0.22094871  0.63467175  0.55484568  1
  O  O407  1  0.23126921  0.63322902  0.89075081  1
  O  O408  1  0.71894754  0.13554641  0.22633961  1
  O  O409  1  0.71081360  0.13978355  0.56150142  1
  O  O410  1  0.72437462  0.13994340  0.89852642  1
  O  O411  1  0.72600219  0.63955889  0.22305371  1
  O  O412  1  0.71751368  0.64590348  0.55468337  1
  O  O413  1  0.73720494  0.64178187  0.89614746  1
  O  O414  1  0.49019108  0.32680723  0.03003391  1
  O  O415  1  0.48809777  0.32369109  0.36307381  1
  O  O416  1  0.48478749  0.32440663  0.69478799  1
  O  O417  1  0.49781712  0.84698871  0.02610682  1
  O  O418  1  0.50179262  0.86067191  0.36751315  1
  O  O419  1  0.49111121  0.84057084  0.69929119  1
  O  O420  1  0.99383395  0.33092438  0.03000653  1
  O  O421  1  0.99097262  0.33421966  0.36379999  1
  O  O422  1  0.98328308  0.31677084  0.69800436  1
  O  O423  1  0.99658538  0.83688601  0.03087283  1
  O  O424  1  0.99862280  0.83426616  0.36257604  1
  O  O425  1  0.98981429  0.82935385  0.69357611  1
  O  O426  1  0.16059283  0.00551353  0.13243026  1
  O  O427  1  0.16183021  0.00696163  0.46776696  1
  O  O428  1  0.16901580  0.00862722  0.80313744  1
  O  O429  1  0.16083375  0.50237843  0.13439750  1
  O  O430  1  0.16335942  0.50443493  0.46562602  1
  O  O431  1  0.16376350  0.50291488  0.81159401  1
  O  O432  1  0.67094687  0.00455837  0.13655920  1
  O  O433  1  0.67655766  0.00727174  0.47464692  1
  O  O434  1  0.67718231  0.01103637  0.80478756  1
  O  O435  1  0.66655250  0.51204277  0.12898236  1
  O  O436  1  0.65536941  0.51401188  0.47263872  1
  O  O437  1  0.67693512  0.51645545  0.80059853  1
  O  O438  1  0.00303504  0.16442184  0.30144053  1
  O  O439  1  0.00351381  0.15836051  0.63414997  1
  O  O440  1  0.00084316  0.15867177  0.97187284  1
  O  O441  1  0.01108973  0.66939508  0.30454482  1
  O  O442  1  0.00999049  0.66650061  0.63704829  1
  O  O443  1  0.01420579  0.67416863  0.97520298  1
  O  O444  1  0.50958647  0.16090716  0.29806108  1
  O  O445  1  0.49859045  0.14123948  0.63965165  1
  O  O446  1  0.50876338  0.16280763  0.96907890  1
  O  O447  1  0.50894313  0.68953568  0.30676619  1
  O  O448  1  0.51173326  0.67494462  0.64046109  1
  O  O449  1  0.51341239  0.67627711  0.97103847  1
  O  O450  1  0.32641170  0.48335337  0.19550016  1
  O  O451  1  0.32829162  0.48591284  0.53196618  1
  O  O452  1  0.33364039  0.48920017  0.86727380  1
  O  O453  1  0.32512314  1.00121222  0.19128595  1
  O  O454  1  0.32501778  1.00058578  0.52797102  1
  O  O455  1  0.32944739  0.99189530  0.85827576  1
  O  O456  1  0.83221136  0.49261776  0.19676226  1
  O  O457  1  0.83105062  0.49278312  0.52524914  1
  O  O458  1  0.83847695  0.48646226  0.86544263  1
  O  O459  1  0.83749498  0.99226438  0.19705964  1
  O  O460  1  0.84741676  0.99637433  0.52825822  1
  O  O461  1  0.83776089  0.99447537  0.86845426  1
