# generated using pymatgen
data_Na31Fe20(SO4)36
_symmetry_space_group_name_H-M   'P 1'
_cell_length_a   18.06655189
_cell_length_b   18.06035000
_cell_length_c   19.69466875
_cell_angle_alpha   107.57737773
_cell_angle_beta   107.60044025
_cell_angle_gamma   90.69150533
_symmetry_Int_Tables_number   1
_chemical_formula_structural   Na31Fe20(SO4)36
_chemical_formula_sum   'Na62 Fe40 S72 O288'
_cell_volume   5801.41260464
_cell_formula_units_Z   2
loop_
 _symmetry_equiv_pos_site_id
 _symmetry_equiv_pos_as_xyz
  1  'x, y, z'
loop_
 _atom_site_type_symbol
 _atom_site_label
 _atom_site_symmetry_multiplicity
 _atom_site_fract_x
 _atom_site_fract_y
 _atom_site_fract_z
 _atom_site_occupancy
  Na  Na0  1  0.13472123  0.37286409  0.08858646  1
  Na  Na1  1  0.12840316  0.36534675  0.40905082  1
  Na  Na2  1  0.13742117  0.35785803  0.74403145  1
  Na  Na3  1  0.13858303  0.87134104  0.09537180  1
  Na  Na4  1  0.12890825  0.85443156  0.40021221  1
  Na  Na5  1  0.13418162  0.86146549  0.75283096  1
  Na  Na6  1  0.63551755  0.37425601  0.09215925  1
  Na  Na7  1  0.63483141  0.36209073  0.41620265  1
  Na  Na8  1  0.63069176  0.37000633  0.74834270  1
  Na  Na9  1  0.64003272  0.86303551  0.08953422  1
  Na  Na10  1  0.63766433  0.86562187  0.41652777  1
  Na  Na11  1  0.63584013  0.85780863  0.73895123  1
  Na  Na12  1  0.36369484  0.12399403  0.25591396  1
  Na  Na13  1  0.36480152  0.13460566  0.58897927  1
  Na  Na14  1  0.36427581  0.13449529  0.91559060  1
  Na  Na15  1  0.37379789  0.64761809  0.26106591  1
  Na  Na16  1  0.35964685  0.63876998  0.58193588  1
  Na  Na17  1  0.34239104  0.63170030  0.89002390  1
  Na  Na18  1  0.88036069  0.12908965  0.25127509  1
  Na  Na19  1  0.86497386  0.13060900  0.57876111  1
  Na  Na20  1  0.86413358  0.13427558  0.91223220  1
  Na  Na21  1  0.86285045  0.63881078  0.24936650  1
  Na  Na22  1  0.86068248  0.63510124  0.58441747  1
  Na  Na23  1  0.86786725  0.63930805  0.92098258  1
  Na  Na24  1  0.98493203  0.01847462  0.11676307  1
  Na  Na25  1  0.49015746  0.00473727  0.08634798  1
  Na  Na26  1  0.49487482  0.51875441  0.41382911  1
  Na  Na27  1  0.50257861  -0.02320860  0.43230846  1
  Na  Na28  1  0.98324375  0.53607707  0.16169974  1
  Na  Na29  1  1.01471259  0.48087560  0.74842818  1
  Na  Na30  1  1.00152352  0.01249296  0.39638054  1
  Na  Na31  1  0.96191863  0.51345487  0.36748961  1
  Na  Na32  1  0.50164286  0.00691118  0.72721362  1
  Na  Na33  1  0.49331689  0.50432792  0.92076045  1
  Na  Na34  1  0.53233202  0.98821621  0.27018989  1
  Na  Na35  1  0.00349182  0.98449084  0.59219740  1
  Na  Na36  1  0.51074245  0.98910095  0.91195891  1
  Na  Na37  1  0.00980807  0.46832739  0.91750189  1
  Na  Na38  1  0.52089989  0.49794656  0.22976170  1
  Na  Na39  1  0.01221721  1.00276582  0.90274806  1
  Na  Na40  1  0.48463534  0.50058399  0.60364047  1
  Na  Na41  1  0.03629547  0.49331617  0.58558654  1
  Na  Na42  1  0.74151153  0.74103833  0.00947687  1
  Na  Na43  1  0.76344259  0.25635399  0.66062959  1
  Na  Na44  1  0.76178541  0.25492282  0.32495125  1
  Na  Na45  1  0.23738201  0.24016729  0.33987169  1
  Na  Na46  1  0.75453897  0.75573644  0.32804099  1
  Na  Na47  1  0.26794410  0.77477740  0.32777122  1
  Na  Na48  1  0.75959278  0.25944414  -0.00383472  1
  Na  Na49  1  0.23697584  0.72899484  0.68445028  1
  Na  Na50  1  0.24683805  0.25208774  0.00021783  1
  Na  Na51  1  0.25406554  0.75452700  -0.01403081  1
  Na  Na52  1  0.75706551  0.75822407  0.82605397  1
  Na  Na53  1  0.74900807  0.24343592  0.49437190  1
  Na  Na54  1  0.76809434  0.26194070  0.82437458  1
  Na  Na55  1  0.76328985  0.26396085  0.16244342  1
  Na  Na56  1  0.25655369  0.25601132  0.82278852  1
  Na  Na57  1  0.74046213  0.74407284  0.51084947  1
  Na  Na58  1  0.25955155  0.76548781  0.16308169  1
  Na  Na59  1  0.25656938  0.75603466  0.49287903  1
  Na  Na60  1  0.23633863  0.24200352  0.17406088  1
  Na  Na61  1  0.23999273  0.24112511  0.51484281  1
  Fe  Fe62  1  0.46516387  0.30712467  0.78556042  1
  Fe  Fe63  1  0.96786270  0.30492429  0.45049964  1
  Fe  Fe64  1  0.46585601  0.80688758  0.11663438  1
  Fe  Fe65  1  0.46314693  0.30564731  0.11956757  1
  Fe  Fe66  1  0.97044128  0.30277030  0.12607310  1
  Fe  Fe67  1  0.46089203  0.30914813  0.45433567  1
  Fe  Fe68  1  0.96161226  0.80685025  0.78601265  1
  Fe  Fe69  1  0.96549291  0.80474573  0.44953211  1
  Fe  Fe70  1  0.46482467  0.80481368  0.78168729  1
  Fe  Fe71  1  0.96719617  0.80242820  0.12633232  1
  Fe  Fe72  1  0.19491240  0.03320974  0.71253273  1
  Fe  Fe73  1  0.19413721  0.03271922  0.04970287  1
  Fe  Fe74  1  0.69303035  0.03514756  0.05080745  1
  Fe  Fe75  1  0.19198012  0.53918814  0.04964032  1
  Fe  Fe76  1  0.70054628  0.52800186  0.37758295  1
  Fe  Fe77  1  0.69490848  0.53596534  0.04827174  1
  Fe  Fe78  1  0.18568673  0.54127859  0.37576815  1
  Fe  Fe79  1  0.69150835  0.53718452  0.71306659  1
  Fe  Fe80  1  0.69129031  0.03322908  0.71133427  1
  Fe  Fe81  1  0.19792988  0.03133841  0.37243465  1
  Fe  Fe82  1  0.03223615  0.69113022  0.54907967  1
  Fe  Fe83  1  0.03841539  0.19120320  0.54880542  1
  Fe  Fe84  1  0.53435081  0.19158324  0.54815244  1
  Fe  Fe85  1  0.53525215  0.69121009  0.21012032  1
  Fe  Fe86  1  0.53486046  0.68877122  0.87773507  1
  Fe  Fe87  1  0.53110039  0.19160588  0.21956683  1
  Fe  Fe88  1  0.03129994  0.19643535  0.87314210  1
  Fe  Fe89  1  0.53329249  0.70077463  0.54419992  1
  Fe  Fe90  1  0.53640973  0.19434272  0.88412010  1
  Fe  Fe91  1  0.03580613  0.68664496  0.87797643  1
  Fe  Fe92  1  0.30770158  0.46750797  0.95292251  1
  Fe  Fe93  1  0.80745720  0.96523496  0.95334940  1
  Fe  Fe94  1  0.30794495  0.46853858  0.28561306  1
  Fe  Fe95  1  0.80707160  0.96514203  0.61949300  1
  Fe  Fe96  1  0.79916041  0.96840294  0.28905642  1
  Fe  Fe97  1  0.81141819  0.46527796  0.95483296  1
  Fe  Fe98  1  0.80927323  0.46449924  0.62172435  1
  Fe  Fe99  1  0.30581707  0.96159451  0.61438503  1
  Fe  Fe100  1  0.30573250  0.96139115  0.94853107  1
  Fe  Fe101  1  0.30070799  0.46864619  0.62411057  1
  S  S102  1  0.35979321  0.13836126  0.08158410  1
  S  S103  1  0.35978733  0.14350200  0.42275505  1
  S  S104  1  0.36426353  0.13707038  0.75217933  1
  S  S105  1  0.35848154  0.64197513  0.08023344  1
  S  S106  1  0.35936981  0.64036737  0.41784063  1
  S  S107  1  0.36281900  0.63841775  0.74560869  1
  S  S108  1  0.85411649  0.13955387  0.07985910  1
  S  S109  1  0.86333940  0.13891049  0.41614283  1
  S  S110  1  0.85710702  0.13712459  0.75101405  1
  S  S111  1  0.85569644  0.64095784  0.07956906  1
  S  S112  1  0.85690262  0.64385382  0.41980316  1
  S  S113  1  0.85718300  0.64178583  0.75142008  1
  S  S114  1  0.14415355  0.36407884  0.24928197  1
  S  S115  1  0.13892607  0.35899548  0.58370030  1
  S  S116  1  0.14397526  0.36105795  0.91759297  1
  S  S117  1  0.13805454  0.86246367  0.25073602  1
  S  S118  1  0.14090465  0.85617820  0.58552801  1
  S  S119  1  0.13750407  0.86012066  0.91655908  1
  S  S120  1  0.63763502  0.35475156  0.25187035  1
  S  S121  1  0.63919961  0.36034200  0.58397089  1
  S  S122  1  0.64212040  0.35925081  0.91765113  1
  S  S123  1  0.64023649  0.85762455  0.24730057  1
  S  S124  1  0.63899988  0.86411134  0.58005853  1
  S  S125  1  0.63868372  0.86018516  0.91633440  1
  S  S126  1  0.06833727  0.17051682  0.03770602  1
  S  S127  1  0.07321284  0.16959592  0.37726508  1
  S  S128  1  0.06957965  0.16383379  0.70715454  1
  S  S129  1  0.06738631  0.67215133  0.04133041  1
  S  S130  1  0.06066618  0.66895199  0.37622516  1
  S  S131  1  0.05858579  0.66578727  0.71021860  1
  S  S132  1  0.56590429  0.16940898  0.04402477  1
  S  S133  1  0.55949770  0.17006796  0.38067029  1
  S  S134  1  0.57151634  0.17532178  0.71506915  1
  S  S135  1  0.56461332  0.66901467  0.03683941  1
  S  S136  1  0.56957567  0.65958579  0.37147688  1
  S  S137  1  0.56894900  0.67207962  0.70803630  1
  S  S138  1  0.33330514  0.43541028  0.12465164  1
  S  S139  1  0.33012273  0.43340975  0.45899771  1
  S  S140  1  0.33320764  0.42960121  0.79308080  1
  S  S141  1  0.33416058  0.93436355  0.12029783  1
  S  S142  1  0.32675649  0.93654641  0.45796372  1
  S  S143  1  0.33072845  0.93115273  0.78928608  1
  S  S144  1  0.83129550  0.43505169  0.12441301  1
  S  S145  1  0.83141259  0.43073366  0.46035335  1
  S  S146  1  0.83274555  0.43843859  0.79036503  1
  S  S147  1  0.82634382  0.93226563  0.12246678  1
  S  S148  1  0.83235179  0.93074806  0.45941935  1
  S  S149  1  0.82834006  0.93094393  0.79270348  1
  S  S150  1  0.42929730  0.33173825  0.29210331  1
  S  S151  1  0.43109749  0.33062886  0.62434836  1
  S  S152  1  0.43385912  0.32982159  0.95804519  1
  S  S153  1  0.44483730  0.83258725  0.28805107  1
  S  S154  1  0.43345822  0.82984958  0.62343556  1
  S  S155  1  0.43355153  0.82996851  0.95443703  1
  S  S156  1  0.92973410  0.32235486  0.28569482  1
  S  S157  1  0.93524771  0.32805020  0.62279415  1
  S  S158  1  0.93505576  0.32801934  0.96008688  1
  S  S159  1  0.92582391  0.83456738  0.29429024  1
  S  S160  1  0.93341359  0.82987913  0.62509503  1
  S  S161  1  0.93187917  0.83328250  0.96114785  1
  S  S162  1  0.17287783  0.07223257  0.21094691  1
  S  S163  1  0.17019444  0.06336424  0.53920792  1
  S  S164  1  0.17273687  0.06776438  0.87617720  1
  S  S165  1  0.17948291  0.57807880  0.21535230  1
  S  S166  1  0.16880562  0.56735984  0.54035681  1
  S  S167  1  0.16501742  0.55965157  0.87582277  1
  S  S168  1  0.66484210  0.06716384  0.20780931  1
  S  S169  1  0.66906805  0.06786084  0.54323683  1
  S  S170  1  0.66503946  0.06497152  0.87527247  1
  S  S171  1  0.66950850  0.56719634  0.20858015  1
  S  S172  1  0.66793282  0.56752571  0.54103562  1
  S  S173  1  0.66951561  0.56546362  0.87589351  1
  O  O174  1  0.36943294  0.21688433  0.07201704  1
  O  O175  1  0.36335627  0.22465350  0.41639796  1
  O  O176  1  0.37307425  0.21543825  0.74422726  1
  O  O177  1  0.36766314  0.72156531  0.07241825  1
  O  O178  1  0.36200587  0.71540373  0.40485362  1
  O  O179  1  0.37465002  0.71610540  0.73348399  1
  O  O180  1  0.86653269  0.22077191  0.07719006  1
  O  O181  1  0.87534748  0.21665199  0.40473556  1
  O  O182  1  0.86000643  0.21539171  0.74409144  1
  O  O183  1  0.86911984  0.71905029  0.07024560  1
  O  O184  1  0.86446193  0.72691658  0.42043388  1
  O  O185  1  0.86525440  0.72121886  0.74509658  1
  O  O186  1  0.28029819  0.13062959  0.08802264  1
  O  O187  1  0.27793442  0.13080329  0.42754703  1
  O  O188  1  0.28565810  0.12702818  0.76078899  1
  O  O189  1  0.27976067  0.63495219  0.08959204  1
  O  O190  1  0.28229025  0.62529416  0.42916006  1
  O  O191  1  0.28617078  0.63155555  0.75427330  1
  O  O192  1  0.77250838  0.13362859  0.08469425  1
  O  O193  1  0.78784602  0.13268729  0.42725926  1
  O  O194  1  0.78092506  0.12282740  0.76530256  1
  O  O195  1  0.77200640  0.63434218  0.07724434  1
  O  O196  1  0.77835994  0.63081671  0.42837470  1
  O  O197  1  0.77859143  0.63186283  0.76067349  1
  O  O198  1  0.14181389  0.28730324  0.25902636  1
  O  O199  1  0.13102659  0.27809760  0.58827231  1
  O  O200  1  0.13216343  0.28004490  0.92090592  1
  O  O201  1  0.12973613  0.79252617  0.27178522  1
  O  O202  1  0.13100758  0.77901644  0.59701626  1
  O  O203  1  0.12687889  0.78007597  0.92116709  1
  O  O204  1  0.62262363  0.27779776  0.26367052  1
  O  O205  1  0.63098337  0.28279513  0.59550010  1
  O  O206  1  0.63234393  0.28076117  0.92756658  1
  O  O207  1  0.63297002  0.77561252  0.24959189  1
  O  O208  1  0.62933283  0.78357907  0.58557148  1
  O  O209  1  0.62895403  0.78061429  0.92258486  1
  O  O210  1  0.22005673  0.37791096  0.23451794  1
  O  O211  1  0.21877806  0.36965851  0.57750963  1
  O  O212  1  0.22663196  0.36836312  0.91556749  1
  O  O213  1  0.21254412  0.86996947  0.23627519  1
  O  O214  1  0.22068203  0.86445038  0.57927515  1
  O  O215  1  0.21506652  0.86872124  0.90604221  1
  O  O216  1  0.71318139  0.35691796  0.24011129  1
  O  O217  1  0.71951803  0.36813793  0.57770300  1
  O  O218  1  0.72172317  0.36586078  0.90974923  1
  O  O219  1  0.71765546  0.86985644  0.23755383  1
  O  O220  1  0.72169931  0.87278590  0.57788073  1
  O  O221  1  0.71768227  0.86988769  0.90889753  1
  O  O222  1  0.41807865  0.13102041  0.15053958  1
  O  O223  1  0.41536116  0.14162513  0.49565930  1
  O  O224  1  0.42379159  0.12909865  0.82073411  1
  O  O225  1  0.41734362  0.63293192  0.14756114  1
  O  O226  1  0.42038689  0.63640612  0.48765126  1
  O  O227  1  0.42381786  0.63260743  0.81419838  1
  O  O228  1  0.91003305  0.12350732  0.14301139  1
  O  O229  1  0.92630227  0.13034069  0.48255429  1
  O  O230  1  0.91946895  0.12933503  0.81740550  1
  O  O231  1  0.90739584  0.63320520  0.14920409  1
  O  O232  1  0.91657190  0.63235345  0.48654431  1
  O  O233  1  0.91646965  0.63308455  0.81911409  1
  O  O234  1  0.37027556  0.07848683  0.01494718  1
  O  O235  1  0.37333427  0.08667268  0.35938563  1
  O  O236  1  0.37348191  0.07677857  0.68529063  1
  O  O237  1  0.36401494  0.58393220  0.01059823  1
  O  O238  1  0.37245894  0.57774181  0.35332695  1
  O  O239  1  0.37213269  0.57781107  0.67809254  1
  O  O240  1  0.85783943  0.08413309  0.00738413  1
  O  O241  1  0.87010934  0.07797515  0.34759974  1
  O  O242  1  0.86339992  0.07852880  0.68162609  1
  O  O243  1  0.86714124  0.58111361  0.01285096  1
  O  O244  1  0.86393491  0.59110853  0.35007885  1
  O  O245  1  0.86387948  0.58323415  0.68262346  1
  O  O246  1  0.08124293  0.37059193  0.18264273  1
  O  O247  1  0.08182712  0.36668251  0.51288728  1
  O  O248  1  0.08865923  0.37475518  0.85236506  1
  O  O249  1  0.07406649  0.86657585  0.18284978  1
  O  O250  1  0.08316949  0.86312767  0.51631174  1
  O  O251  1  0.07655696  0.87330812  0.85170215  1
  O  O252  1  0.57549563  0.36501680  0.18536510  1
  O  O253  1  0.58166568  0.36604970  0.51432725  1
  O  O254  1  0.58374307  0.36602651  0.84886350  1
  O  O255  1  0.57961763  0.86771267  0.17935669  1
  O  O256  1  0.58432311  0.87533857  0.51404628  1
  O  O257  1  0.57936490  0.87053646  0.84911012  1
  O  O258  1  0.13869395  0.42472383  0.31799731  1
  O  O259  1  0.12613895  0.41612556  0.64859460  1
  O  O260  1  0.13667821  0.41745044  0.98860056  1
  O  O261  1  0.13058319  0.93130881  0.31589764  1
  O  O262  1  0.13166028  0.91794449  0.65203637  1
  O  O263  1  0.13260074  0.91757173  0.98728782  1
  O  O264  1  0.63301872  0.41625508  0.32032787  1
  O  O265  1  0.62931987  0.42164620  0.64993381  1
  O  O266  1  0.63393864  0.41920081  0.98490831  1
  O  O267  1  0.63133955  0.91274473  0.31518576  1
  O  O268  1  0.63238986  0.92066936  0.65148407  1
  O  O269  1  0.62989981  0.91882434  0.98472050  1
  O  O270  1  0.03079773  0.19840164  0.09588218  1
  O  O271  1  0.03867100  0.19682079  0.44077616  1
  O  O272  1  0.03297245  0.18572995  0.76643474  1
  O  O273  1  0.03069672  0.69991629  0.10019405  1
  O  O274  1  0.02741408  0.70102695  0.44148310  1
  O  O275  1  0.02384478  0.70442480  0.77237916  1
  O  O276  1  0.53016810  0.19793323  0.10555662  1
  O  O277  1  0.52319443  0.20780298  0.44166209  1
  O  O278  1  0.53414472  0.20449144  0.77604127  1
  O  O279  1  0.52924073  0.69951391  0.09831439  1
  O  O280  1  0.53297214  0.68017349  0.43116604  1
  O  O281  1  0.53451886  0.70233784  0.77065035  1
  O  O282  1  0.30520779  0.47293390  0.06460388  1
  O  O283  1  0.30347110  0.46677160  0.39628657  1
  O  O284  1  0.30987494  0.46301308  0.73183636  1
  O  O285  1  0.29973335  0.96742503  0.05543698  1
  O  O286  1  0.28884124  0.97295530  0.39844961  1
  O  O287  1  0.30097720  0.96762086  0.72835123  1
  O  O288  1  0.79888525  0.46840649  0.05918010  1
  O  O289  1  0.80288670  0.46686438  0.40063408  1
  O  O290  1  0.79469395  0.47321024  0.72848416  1
  O  O291  1  0.79841280  0.97323346  0.06286025  1
  O  O292  1  0.80914903  0.96448510  0.39837513  1
  O  O293  1  0.79904617  0.96402856  0.72987383  1
  O  O294  1  0.46243682  0.29750474  0.22910686  1
  O  O295  1  0.47172249  0.30338984  0.56589939  1
  O  O296  1  0.47155106  0.29874179  0.89768726  1
  O  O297  1  0.47291748  0.79105463  0.22043764  1
  O  O298  1  0.47029507  0.80157022  0.56496597  1
  O  O299  1  0.46767399  0.79881180  0.89189370  1
  O  O300  1  0.96884218  0.29535724  0.22784715  1
  O  O301  1  0.96659867  0.29686841  0.55745501  1
  O  O302  1  0.97170208  0.29980446  0.90073849  1
  O  O303  1  0.95413337  0.80592410  0.22987127  1
  O  O304  1  0.97329997  0.80059974  0.56641822  1
  O  O305  1  0.96731687  0.80483028  0.89939565  1
  O  O306  1  0.20299505  0.04121584  0.27550924  1
  O  O307  1  0.20069779  0.02548391  0.59989562  1
  O  O308  1  0.20138357  0.03039581  0.93728224  1
  O  O309  1  0.21121388  0.53860334  0.27522800  1
  O  O310  1  0.19770329  0.52920912  0.59860313  1
  O  O311  1  0.19973981  0.52998966  0.94255628  1
  O  O312  1  0.69744977  0.03280771  0.26771248  1
  O  O313  1  0.70319503  0.03741788  0.60922288  1
  O  O314  1  0.69357264  0.02761119  0.93549139  1
  O  O315  1  0.68586328  0.52619988  0.26503562  1
  O  O316  1  0.69781133  0.53110255  0.60254271  1
  O  O317  1  0.70024321  0.52510653  0.93367001  1
  O  O318  1  0.08859015  0.08831898  0.03152541  1
  O  O319  1  0.10356170  0.09191951  0.38049407  1
  O  O320  1  0.09051649  0.08113236  0.69546092  1
  O  O321  1  0.08526235  0.58931614  0.03306065  1
  O  O322  1  0.07803622  0.58699244  0.37424237  1
  O  O323  1  0.06657522  0.58444880  0.70804371  1
  O  O324  1  0.58152395  0.08609108  0.03630010  1
  O  O325  1  0.57096771  0.09015136  0.37969646  1
  O  O326  1  0.58932786  0.09420867  0.71168002  1
  O  O327  1  0.58700899  0.58908970  0.03395674  1
  O  O328  1  0.58841785  0.57596974  0.35980324  1
  O  O329  1  0.58530969  0.58963991  0.70212998  1
  O  O330  1  0.41402356  0.41355639  0.12913846  1
  O  O331  1  0.41462773  0.41813272  0.46888911  1
  O  O332  1  0.41648663  0.41013530  0.80605797  1
  O  O333  1  0.41431259  0.91356134  0.11730940  1
  O  O334  1  0.40386596  0.91914451  0.45478990  1
  O  O335  1  0.41324654  0.91476821  0.79524783  1
  O  O336  1  0.90832526  0.40781328  0.12104635  1
  O  O337  1  0.91390070  0.41351139  0.46856727  1
  O  O338  1  0.91431555  0.43026466  0.79418641  1
  O  O339  1  0.90738261  0.91470795  0.12713998  1
  O  O340  1  0.91540429  0.91047978  0.47199088  1
  O  O341  1  0.91050830  0.91291204  0.80010712  1
  O  O342  1  0.41594660  0.41457438  0.29642253  1
  O  O343  1  0.40808453  0.40976812  0.62556859  1
  O  O344  1  0.41564178  0.41046518  0.96118284  1
  O  O345  1  0.43775713  0.91422490  0.28982557  1
  O  O346  1  0.41245560  0.91124492  0.62934118  1
  O  O347  1  0.41923752  0.91373342  0.95994089  1
  O  O348  1  0.90278809  0.39869736  0.28883867  1
  O  O349  1  0.91376169  0.40940746  0.62643566  1
  O  O350  1  0.91617484  0.40981716  0.96338229  1
  O  O351  1  0.90521325  0.91643091  0.30232804  1
  O  O352  1  0.91492859  0.91090430  0.62783139  1
  O  O353  1  0.91603037  0.91687191  0.96925786  1
  O  O354  1  0.09325826  0.09063683  0.20148108  1
  O  O355  1  0.08742751  0.07835972  0.53391957  1
  O  O356  1  0.09226597  0.08718790  0.87137663  1
  O  O357  1  0.10222738  0.59832670  0.21519299  1
  O  O358  1  0.08640363  0.58487872  0.53704954  1
  O  O359  1  0.08240805  0.57652152  0.87296482  1
  O  O360  1  0.58163680  0.08286211  0.20505919  1
  O  O361  1  0.58974684  0.09195115  0.54479574  1
  O  O362  1  0.58150207  0.08075381  0.86898977  1
  O  O363  1  0.58673318  0.58769387  0.19488075  1
  O  O364  1  0.58634405  0.58660575  0.53678799  1
  O  O365  1  0.58891764  0.58355586  0.87479004  1
  O  O366  1  0.14015863  0.22326244  0.05411694  1
  O  O367  1  0.14106171  0.22707725  0.39378775  1
  O  O368  1  0.13949963  0.21775925  0.72446673  1
  O  O369  1  0.13936983  0.72361151  0.05635506  1
  O  O370  1  0.13410375  0.71835311  0.39402689  1
  O  O371  1  0.13160528  0.71350621  0.72480612  1
  O  O372  1  0.63680832  0.22084865  0.05916215  1
  O  O373  1  0.63214945  0.21972265  0.39545021  1
  O  O374  1  0.64280767  0.22750247  0.73177208  1
  O  O375  1  0.63134961  0.72337448  0.04756243  1
  O  O376  1  0.63988773  0.71367851  0.38948547  1
  O  O377  1  0.64023659  0.72283129  0.72370209  1
  O  O378  1  0.27957087  0.36506789  0.10807267  1
  O  O379  1  0.27942671  0.36198195  0.44396226  1
  O  O380  1  0.28042329  0.36066587  0.78047642  1
  O  O381  1  0.28266879  0.86242519  0.10457962  1
  O  O382  1  0.27474510  0.86544220  0.44582763  1
  O  O383  1  0.27942365  0.86066613  0.77450602  1
  O  O384  1  0.77454884  0.36700718  0.10989680  1
  O  O385  1  0.77992582  0.35776149  0.44364192  1
  O  O386  1  0.78460454  0.36369568  0.77313629  1
  O  O387  1  0.77261317  0.86134834  0.10069687  1
  O  O388  1  0.77845315  0.86105638  0.44458492  1
  O  O389  1  0.77654410  0.86179306  0.78091996  1
  O  O390  1  0.35687388  0.28361170  0.27907689  1
  O  O391  1  0.36342415  0.27491894  0.60849104  1
  O  O392  1  0.36247081  0.27684207  0.94068640  1
  O  O393  1  0.36838280  0.78777365  0.27265321  1
  O  O394  1  0.36302512  0.77767542  0.60977047  1
  O  O395  1  0.36146977  0.78175365  0.94072131  1
  O  O396  1  0.86260473  0.26302396  0.26954839  1
  O  O397  1  0.86387955  0.27550802  0.60770384  1
  O  O398  1  0.86161890  0.27662205  0.94239672  1
  O  O399  1  0.85953580  0.78205233  0.28850263  1
  O  O400  1  0.86291455  0.77724175  0.60803067  1
  O  O401  1  0.85838986  0.78285249  0.94245793  1
  O  O402  1  0.22821069  0.14171499  0.22540610  1
  O  O403  1  0.22114781  0.13510706  0.55749557  1
  O  O404  1  0.22657152  0.13850524  0.89350857  1
  O  O405  1  0.23547538  0.64617807  0.23046460  1
  O  O406  1  0.21897894  0.64085544  0.55818092  1
  O  O407  1  0.21306578  0.63226200  0.88895488  1
  O  O408  1  0.71225311  0.13896083  0.21737770  1
  O  O409  1  0.72194442  0.13762763  0.55501280  1
  O  O410  1  0.71510058  0.13741954  0.89237861  1
  O  O411  1  0.72489789  0.63684887  0.23035260  1
  O  O412  1  0.72048435  0.63722830  0.55596706  1
  O  O413  1  0.72129213  0.63756438  0.89351508  1
  O  O414  1  0.49219994  0.33102410  0.03077968  1
  O  O415  1  0.48956834  0.33435693  0.36433337  1
  O  O416  1  0.49088513  0.33658175  0.69826496  1
  O  O417  1  0.49464035  0.83197524  0.02608018  1
  O  O418  1  0.50325857  0.82877136  0.35666093  1
  O  O419  1  0.49333492  0.83681797  0.69887013  1
  O  O420  1  0.99122934  0.32977389  0.03384679  1
  O  O421  1  0.98928612  0.32687495  0.36050078  1
  O  O422  1  0.99703650  0.33365686  0.69253363  1
  O  O423  1  0.98946149  0.83237911  0.03294680  1
  O  O424  1  0.99187697  0.84059640  0.36588504  1
  O  O425  1  0.99144793  0.83362312  0.69915047  1
  O  O426  1  0.17668127  0.00990413  0.14095296  1
  O  O427  1  0.16817325  0.00515858  0.46574444  1
  O  O428  1  0.17238564  0.00830817  0.80437894  1
  O  O429  1  0.17613765  0.51720412  0.14183307  1
  O  O430  1  0.16594306  0.51122632  0.46587578  1
  O  O431  1  0.16114828  0.49723259  0.80711614  1
  O  O432  1  0.65698616  0.00715663  0.13247778  1
  O  O433  1  0.65940482  0.00448932  0.47377769  1
  O  O434  1  0.66256654  0.00652778  0.80210246  1
  O  O435  1  0.67160611  0.50967383  0.13600387  1
  O  O436  1  0.66374949  0.50658622  0.46829984  1
  O  O437  1  0.66565851  0.50916866  0.80136005  1
  O  O438  1  0.01268984  0.15827157  0.30645670  1
  O  O439  1  0.00958673  0.16263821  0.63450344  1
  O  O440  1  0.01074006  0.16516763  0.96239984  1
  O  O441  1  0.00049028  0.66620165  0.30679026  1
  O  O442  1  0.00082796  0.66621812  0.63684300  1
  O  O443  1  0.00888677  0.67027099  0.96710430  1
  O  O444  1  0.50130852  0.16998364  0.30721636  1
  O  O445  1  0.51209078  0.17428446  0.64364089  1
  O  O446  1  0.50601354  0.16758282  0.97152001  1
  O  O447  1  0.51044112  0.65855815  0.29852455  1
  O  O448  1  0.50880203  0.67010356  0.63614082  1
  O  O449  1  0.50144810  0.66063168  0.96366541  1
  O  O450  1  0.33848345  0.49493394  0.19788896  1
  O  O451  1  0.33140211  0.49357419  0.53102925  1
  O  O452  1  0.33596371  0.49275587  0.86526041  1
  O  O453  1  0.34152854  0.99438043  0.19051235  1
  O  O454  1  0.33135183  0.99523934  0.53293606  1
  O  O455  1  0.33433414  0.99142703  0.86256512  1
  O  O456  1  0.84189894  0.49801818  0.19434381  1
  O  O457  1  0.83084355  0.48917892  0.53333054  1
  O  O458  1  0.82985060  0.49401163  0.86326433  1
  O  O459  1  0.82466929  0.98968721  0.19427243  1
  O  O460  1  0.83384692  0.99194381  0.53152391  1
  O  O461  1  0.83149657  0.99353622  0.86440666  1
