# generated using pymatgen
data_Na31Fe20(SO4)36
_symmetry_space_group_name_H-M   'P 1'
_cell_length_a   18.08024588
_cell_length_b   18.07804167
_cell_length_c   19.70307634
_cell_angle_alpha   107.57058154
_cell_angle_beta   107.59242997
_cell_angle_gamma   90.70413506
_symmetry_Int_Tables_number   1
_chemical_formula_structural   Na31Fe20(SO4)36
_chemical_formula_sum   'Na62 Fe40 S72 O288'
_cell_volume   5814.35286051
_cell_formula_units_Z   2
loop_
 _symmetry_equiv_pos_site_id
 _symmetry_equiv_pos_as_xyz
  1  'x, y, z'
loop_
 _atom_site_type_symbol
 _atom_site_label
 _atom_site_symmetry_multiplicity
 _atom_site_fract_x
 _atom_site_fract_y
 _atom_site_fract_z
 _atom_site_occupancy
  Na  Na0  1  0.14076671  0.37709403  0.09566396  1
  Na  Na1  1  0.12820788  0.37198121  0.41176762  1
  Na  Na2  1  0.13147154  0.36861044  0.74666514  1
  Na  Na3  1  0.13837882  0.86660260  0.09221519  1
  Na  Na4  1  0.12959832  0.85615192  0.40925207  1
  Na  Na5  1  0.12118072  0.85408644  0.72797035  1
  Na  Na6  1  0.64871943  0.36338686  0.09274529  1
  Na  Na7  1  0.63213038  0.36898544  0.41602983  1
  Na  Na8  1  0.63216129  0.37192532  0.75307049  1
  Na  Na9  1  0.65336135  0.84335374  0.08161556  1
  Na  Na10  1  0.64423086  0.84747414  0.41516144  1
  Na  Na11  1  0.63070236  0.85565866  0.73991038  1
  Na  Na12  1  0.36937755  0.12548944  0.24862826  1
  Na  Na13  1  0.36557510  0.13069894  0.57780179  1
  Na  Na14  1  0.36292198  0.13266982  0.91472905  1
  Na  Na15  1  0.36457082  0.62495169  0.24760888  1
  Na  Na16  1  0.37063645  0.64575761  0.58745207  1
  Na  Na17  1  0.36589198  0.63279789  0.91530916  1
  Na  Na18  1  0.86676981  0.13042796  0.24935591  1
  Na  Na19  1  0.86278923  0.13094160  0.57119444  1
  Na  Na20  1  0.86750016  0.13546888  0.92091416  1
  Na  Na21  1  0.87478098  0.64594815  0.27721358  1
  Na  Na22  1  0.85665306  0.64475006  0.57904124  1
  Na  Na23  1  0.86645025  0.66202912  0.94219224  1
  Na  Na24  1  0.50701596  0.49867128  0.09576055  1
  Na  Na25  1  0.99842267  0.00651039  0.72527734  1
  Na  Na26  1  0.47298404  0.52399487  0.39204532  1
  Na  Na27  1  0.51390939  -0.02205723  0.11173270  1
  Na  Na28  1  1.00374331  -0.01709090  0.09475996  1
  Na  Na29  1  0.97687381  0.51101457  0.11254869  1
  Na  Na30  1  0.98969778  0.51786525  0.73508802  1
  Na  Na31  1  1.01650484  -0.03745751  0.46973127  1
  Na  Na32  1  0.49852128  0.01222335  0.74872575  1
  Na  Na33  1  0.55088960  0.49566657  0.92308050  1
  Na  Na34  1  0.48926020  0.52273711  0.57574966  1
  Na  Na35  1  0.51173430  0.98694626  0.92397010  1
  Na  Na36  1  -0.02025500  0.51021200  0.92711771  1
  Na  Na37  1  -0.01695771  0.54845380  0.47042761  1
  Na  Na38  1  0.54792626  0.97917532  0.35369728  1
  Na  Na39  1  0.51322332  0.98539732  0.56314629  1
  Na  Na40  1  0.00565717  0.95858084  0.25636950  1
  Na  Na41  1  0.01077584  0.99045724  0.91480030  1
  Na  Na42  1  0.25216999  0.25237512  -0.00324250  1
  Na  Na43  1  0.25911910  0.25987018  0.66014150  1
  Na  Na44  1  0.24725699  0.75070986  0.00057406  1
  Na  Na45  1  0.74677258  0.75588784  0.65275663  1
  Na  Na46  1  0.25579559  0.25945216  0.32596704  1
  Na  Na47  1  0.25317335  0.75741903  0.33238582  1
  Na  Na48  1  0.75931987  0.25067911  0.32350565  1
  Na  Na49  1  0.74843598  0.24560954  0.66342576  1
  Na  Na50  1  0.74330397  0.23768431  0.01386311  1
  Na  Na51  1  0.24144793  0.75085297  0.66117942  1
  Na  Na52  1  0.26320159  0.26421020  0.16431652  1
  Na  Na53  1  0.74810282  0.24852545  0.83822225  1
  Na  Na54  1  0.25077136  0.75336281  0.50003220  1
  Na  Na55  1  0.25732838  0.75688711  0.16891131  1
  Na  Na56  1  0.25815530  0.25827106  0.49156662  1
  Na  Na57  1  0.74457441  0.74411130  0.84258500  1
  Na  Na58  1  0.74713196  0.72559970  0.17580697  1
  Na  Na59  1  0.24527564  0.74932931  0.83026240  1
  Na  Na60  1  0.25628390  0.25848179  0.82751459  1
  Na  Na61  1  0.74402393  0.24231200  0.49325664  1
  Fe  Fe62  1  0.95971052  0.80802186  0.77846725  1
  Fe  Fe63  1  0.96748091  0.30809438  0.45177040  1
  Fe  Fe64  1  0.96375593  0.30921088  0.78651574  1
  Fe  Fe65  1  0.46685449  0.79515450  0.45241085  1
  Fe  Fe66  1  0.46525706  0.31234522  0.12670958  1
  Fe  Fe67  1  0.46604434  0.80383772  0.78460979  1
  Fe  Fe68  1  0.46255394  0.31071556  0.45196829  1
  Fe  Fe69  1  0.46637452  0.80623515  0.12432244  1
  Fe  Fe70  1  0.96442500  0.30855667  0.12282639  1
  Fe  Fe71  1  0.46641987  0.30778586  0.78764576  1
  Fe  Fe72  1  0.20306573  0.02973581  0.37764036  1
  Fe  Fe73  1  0.18491369  0.53952595  0.70365576  1
  Fe  Fe74  1  0.19255030  0.53427399  0.04542368  1
  Fe  Fe75  1  0.69320578  0.03537404  0.71271623  1
  Fe  Fe76  1  0.19300885  0.53458706  0.36908504  1
  Fe  Fe77  1  0.19811930  0.03491233  0.05175993  1
  Fe  Fe78  1  0.68732187  0.53514749  0.70980833  1
  Fe  Fe79  1  0.69589786  0.03601961  0.05603759  1
  Fe  Fe80  1  0.19282835  0.03651543  0.71230510  1
  Fe  Fe81  1  0.68249102  0.53503636  0.37559308  1
  Fe  Fe82  1  0.53656961  0.68773308  0.88153167  1
  Fe  Fe83  1  0.53885890  0.19147254  0.21788659  1
  Fe  Fe84  1  0.53400897  0.18976544  0.54227085  1
  Fe  Fe85  1  0.02740276  0.70588769  0.21014902  1
  Fe  Fe86  1  0.03788514  0.19039218  0.54424664  1
  Fe  Fe87  1  0.53964906  0.68878867  0.21691689  1
  Fe  Fe88  1  0.53639524  0.19403241  0.88642032  1
  Fe  Fe89  1  0.03401301  0.19431074  0.21614994  1
  Fe  Fe90  1  0.03157353  0.69785716  0.88037366  1
  Fe  Fe91  1  0.03481078  0.19467042  0.88122072  1
  Fe  Fe92  1  0.80113281  0.47236748  0.95966484  1
  Fe  Fe93  1  0.80287663  0.46431040  0.61614716  1
  Fe  Fe94  1  0.80307506  0.96446651  0.29167183  1
  Fe  Fe95  1  0.80627367  0.46461172  0.28699948  1
  Fe  Fe96  1  0.79810146  0.96144708  0.60162799  1
  Fe  Fe97  1  0.30956942  0.96483084  0.95524219  1
  Fe  Fe98  1  0.80924017  0.96139933  0.95665049  1
  Fe  Fe99  1  0.31108408  0.46670988  0.62073623  1
  Fe  Fe100  1  0.30776252  0.46590364  0.95252202  1
  Fe  Fe101  1  0.30767529  0.96608366  0.61846255  1
  S  S102  1  0.36257675  0.14004907  0.08390732  1
  S  S103  1  0.35916982  0.14508905  0.41806952  1
  S  S104  1  0.36150543  0.14106899  0.75233439  1
  S  S105  1  0.35740517  0.63952380  0.08227385  1
  S  S106  1  0.35512620  0.63852864  0.41725508  1
  S  S107  1  0.35827426  0.64134285  0.74955547  1
  S  S108  1  0.86232787  0.13764781  0.08077666  1
  S  S109  1  0.86506666  0.13918861  0.41586982  1
  S  S110  1  0.86089627  0.14137723  0.75104842  1
  S  S111  1  0.86619222  0.64027930  0.08259343  1
  S  S112  1  0.84728120  0.63768669  0.41651403  1
  S  S113  1  0.85715504  0.63911481  0.75098610  1
  S  S114  1  0.13985274  0.36018287  0.24941423  1
  S  S115  1  0.14129835  0.35978597  0.58393993  1
  S  S116  1  0.13944467  0.36009436  0.91447324  1
  S  S117  1  0.14148023  0.86200983  0.24986344  1
  S  S118  1  0.14181844  0.86585853  0.58435046  1
  S  S119  1  0.13996952  0.86294532  0.91466182  1
  S  S120  1  0.64185506  0.35783776  0.25000431  1
  S  S121  1  0.63952076  0.35757240  0.58363068  1
  S  S122  1  0.64169865  0.35546758  0.91728276  1
  S  S123  1  0.64216308  0.85104335  0.24223871  1
  S  S124  1  0.63380189  0.86339678  0.58714852  1
  S  S125  1  0.63824308  0.86050758  0.91921540  1
  S  S126  1  0.07192957  0.17117921  0.04310416  1
  S  S127  1  0.07493381  0.16891284  0.37615415  1
  S  S128  1  0.06871225  0.17425571  0.71115517  1
  S  S129  1  0.07261875  0.67246844  0.04233361  1
  S  S130  1  0.07514831  0.66974575  0.37103474  1
  S  S131  1  0.06033842  0.67078798  0.70762683  1
  S  S132  1  0.56594617  0.16762141  0.04182995  1
  S  S133  1  0.56623224  0.17723263  0.37940471  1
  S  S134  1  0.56504419  0.17092680  0.70961600  1
  S  S135  1  0.55698228  0.66186843  0.04257786  1
  S  S136  1  0.56050060  0.66344720  0.36955325  1
  S  S137  1  0.56469535  0.66906424  0.71121477  1
  S  S138  1  0.32927047  0.43387391  0.11996169  1
  S  S139  1  0.32593055  0.43640975  0.45632114  1
  S  S140  1  0.33067923  0.43250886  0.79106127  1
  S  S141  1  0.33024773  0.93248541  0.12324830  1
  S  S142  1  0.33287187  0.93100439  0.45952732  1
  S  S143  1  0.33197585  0.93344657  0.79279811  1
  S  S144  1  0.83175060  0.42765503  0.12467365  1
  S  S145  1  0.83092644  0.42642078  0.45819316  1
  S  S146  1  0.82842101  0.43177751  0.79141358  1
  S  S147  1  0.83092753  0.93689792  0.12675073  1
  S  S148  1  0.82751756  0.93519263  0.45805875  1
  S  S149  1  0.82499768  0.93493301  0.79233679  1
  S  S150  1  0.43437411  0.32900316  0.28994215  1
  S  S151  1  0.43365104  0.33084393  0.62501164  1
  S  S152  1  0.43287686  0.32818673  0.95844913  1
  S  S153  1  0.43822999  0.82333474  0.29048910  1
  S  S154  1  0.43149952  0.83607565  0.62871413  1
  S  S155  1  0.43307511  0.83062839  0.95739874  1
  S  S156  1  0.92880789  0.32497959  0.28961667  1
  S  S157  1  0.92980705  0.32882834  0.62339849  1
  S  S158  1  0.93442620  0.33195153  0.95863518  1
  S  S159  1  0.93125247  0.83118273  0.29145406  1
  S  S160  1  0.92388663  0.83580408  0.62714842  1
  S  S161  1  0.93968192  0.83897901  0.95523909  1
  S  S162  1  0.16807339  0.07140734  0.20862341  1
  S  S163  1  0.17774966  0.07235374  0.54453793  1
  S  S164  1  0.16785608  0.06674603  0.87510919  1
  S  S165  1  0.16779986  0.57614568  0.20690925  1
  S  S166  1  0.17917359  0.57123196  0.54273155  1
  S  S167  1  0.16692599  0.56850978  0.87189707  1
  S  S168  1  0.67186762  0.06402170  0.21099527  1
  S  S169  1  0.66547326  0.06564501  0.54081235  1
  S  S170  1  0.66850148  0.06508203  0.87603239  1
  S  S171  1  0.66952236  0.55913444  0.20804364  1
  S  S172  1  0.66314347  0.55977466  0.53946561  1
  S  S173  1  0.67316811  0.56878283  0.87411239  1
  O  O174  1  0.37087475  0.22018086  0.07735109  1
  O  O175  1  0.36248384  0.22947337  0.41871387  1
  O  O176  1  0.36783859  0.22155824  0.74654126  1
  O  O177  1  0.36489308  0.72068463  0.07824175  1
  O  O178  1  0.36244849  0.72254053  0.41919024  1
  O  O179  1  0.36545279  0.72114421  0.74189303  1
  O  O180  1  0.87527930  0.21398710  0.06822826  1
  O  O181  1  0.87987467  0.21580802  0.40341705  1
  O  O182  1  0.86904465  0.22160575  0.74426810  1
  O  O183  1  0.88042412  0.71245969  0.06857341  1
  O  O184  1  0.84521949  0.70690897  0.39472039  1
  O  O185  1  0.86490723  0.71733664  0.74192826  1
  O  O186  1  0.28394230  0.13181125  0.09354599  1
  O  O187  1  0.28175912  0.13143162  0.42907983  1
  O  O188  1  0.28345559  0.13070469  0.76233479  1
  O  O189  1  0.27851129  0.62985270  0.09095213  1
  O  O190  1  0.27161467  0.62789347  0.41996969  1
  O  O191  1  0.27728570  0.63041977  0.75430338  1
  O  O192  1  0.78124170  0.13211062  0.08375003  1
  O  O193  1  0.79097410  0.13739937  0.43044875  1
  O  O194  1  0.78142248  0.13277813  0.75895373  1
  O  O195  1  0.79155419  0.62797279  0.09295558  1
  O  O196  1  0.76860692  0.61714330  0.42529400  1
  O  O197  1  0.77759505  0.62810975  0.75666316  1
  O  O198  1  0.12561509  0.28544282  0.26468483  1
  O  O199  1  0.12895528  0.28343694  0.59695849  1
  O  O200  1  0.13129684  0.27990515  0.92087355  1
  O  O201  1  0.12420958  0.78215438  0.25781189  1
  O  O202  1  0.12972244  0.79149649  0.59661456  1
  O  O203  1  0.13082398  0.78353840  0.92188556  1
  O  O204  1  0.63398110  0.27961573  0.26021984  1
  O  O205  1  0.62913179  0.27797942  0.59087367  1
  O  O206  1  0.63508609  0.27214830  0.91763354  1
  O  O207  1  0.63772698  0.76669833  0.23605265  1
  O  O208  1  0.62423909  0.79332457  0.60689710  1
  O  O209  1  0.62757642  0.78301176  0.92838755  1
  O  O210  1  0.21556890  0.36266560  0.23757511  1
  O  O211  1  0.22213299  0.36462853  0.57906988  1
  O  O212  1  0.21820202  0.36893352  0.90552183  1
  O  O213  1  0.21978792  0.86346422  0.24361050  1
  O  O214  1  0.22623349  0.87375857  0.58444107  1
  O  O215  1  0.21941817  0.87068995  0.90676736  1
  O  O216  1  0.71930503  0.36738387  0.24055587  1
  O  O217  1  0.71891468  0.36362636  0.57529765  1
  O  O218  1  0.71951472  0.36809991  0.90816542  1
  O  O219  1  0.72020089  0.86885874  0.23387906  1
  O  O220  1  0.71374281  0.87329635  0.58287745  1
  O  O221  1  0.71716461  0.86925573  0.91100916  1
  O  O222  1  0.42254594  0.12931868  0.14935572  1
  O  O223  1  0.41939722  0.13807092  0.48688424  1
  O  O224  1  0.42192528  0.13195576  0.81929013  1
  O  O225  1  0.41724159  0.62596830  0.14585728  1
  O  O226  1  0.40938413  0.62482283  0.48333297  1
  O  O227  1  0.41459248  0.63630362  0.81974312  1
  O  O228  1  0.91850164  0.13210386  0.15120851  1
  O  O229  1  0.92884737  0.13115515  0.48201110  1
  O  O230  1  0.91939849  0.13546014  0.82092923  1
  O  O231  1  0.93049275  0.63365374  0.15277034  1
  O  O232  1  0.90584840  0.64094308  0.48793992  1
  O  O233  1  0.91586248  0.63288812  0.82070461  1
  O  O234  1  0.36661520  0.08277979  0.01327228  1
  O  O235  1  0.36729157  0.09305622  0.34984716  1
  O  O236  1  0.37016560  0.08409220  0.68395445  1
  O  O237  1  0.36079419  0.58399150  0.01013405  1
  O  O238  1  0.36308907  0.58682631  0.34754529  1
  O  O239  1  0.36916189  0.58356608  0.68296571  1
  O  O240  1  0.87280195  0.07562273  0.01541937  1
  O  O241  1  0.86682658  0.07682192  0.34659449  1
  O  O242  1  0.87118805  0.08324995  0.68468345  1
  O  O243  1  0.87865970  0.57298221  0.01850312  1
  O  O244  1  0.86342426  0.57053358  0.35565207  1
  O  O245  1  0.86830192  0.57855648  0.68477810  1
  O  O246  1  0.07785534  0.36736717  0.18270770  1
  O  O247  1  0.08491926  0.36462369  0.51359774  1
  O  O248  1  0.08029710  0.36876407  0.84694313  1
  O  O249  1  0.08273043  0.87617673  0.18629199  1
  O  O250  1  0.09112227  0.87475779  0.51489467  1
  O  O251  1  0.08135301  0.87321102  0.84784851  1
  O  O252  1  0.58117148  0.36286535  0.18139843  1
  O  O253  1  0.58093927  0.36803499  0.51708162  1
  O  O254  1  0.58153149  0.36460247  0.84889197  1
  O  O255  1  0.58188645  0.86472251  0.17604039  1
  O  O256  1  0.57696475  0.86372947  0.51402807  1
  O  O257  1  0.57932771  0.86924275  0.85053260  1
  O  O258  1  0.13684498  0.42428073  0.31803368  1
  O  O259  1  0.13347695  0.42216120  0.65005230  1
  O  O260  1  0.13214960  0.41748509  0.98335137  1
  O  O261  1  0.13621531  0.91992338  0.32137938  1
  O  O262  1  0.13308270  0.92992266  0.65133524  1
  O  O263  1  0.13273033  0.92185976  0.98349472  1
  O  O264  1  0.63318677  0.41729445  0.31785036  1
  O  O265  1  0.63438800  0.41558759  0.65320741  1
  O  O266  1  0.63098456  0.40887139  0.98461803  1
  O  O267  1  0.63255024  0.89900019  0.31242866  1
  O  O268  1  0.61932693  0.93265721  0.64688891  1
  O  O269  1  0.62905879  0.92166159  0.98587561  1
  O  O270  1  0.03753017  0.20055845  0.10502693  1
  O  O271  1  0.04165950  0.20073828  0.43941075  1
  O  O272  1  0.02986653  0.20390211  0.77077151  1
  O  O273  1  0.04312979  0.69956116  0.10636481  1
  O  O274  1  0.03715351  0.68135329  0.42722321  1
  O  O275  1  0.02876014  0.70367080  0.77378063  1
  O  O276  1  0.53303847  0.19807765  0.10453585  1
  O  O277  1  0.52473738  0.20965388  0.43763967  1
  O  O278  1  0.52867279  0.20027393  0.77098365  1
  O  O279  1  0.51888485  0.69995132  0.10107636  1
  O  O280  1  0.52419166  0.69226857  0.42938113  1
  O  O281  1  0.53061322  0.69963664  0.77560822  1
  O  O282  1  0.29593109  0.46643643  0.05442105  1
  O  O283  1  0.29412106  0.47394191  0.39822398  1
  O  O284  1  0.30371993  0.46874875  0.73029071  1
  O  O285  1  0.29874330  0.96626276  0.05789664  1
  O  O286  1  0.30489520  0.96932078  0.40197000  1
  O  O287  1  0.30408407  0.97237216  0.73406074  1
  O  O288  1  0.80894063  0.46134135  0.06300273  1
  O  O289  1  0.79549964  0.45637405  0.39438575  1
  O  O290  1  0.79908473  0.46690052  0.72983853  1
  O  O291  1  0.79532582  0.97365588  0.06434038  1
  O  O292  1  0.79920682  0.96447232  0.39152009  1
  O  O293  1  0.79583429  0.97255532  0.73279227  1
  O  O294  1  0.47204900  0.29225890  0.22942442  1
  O  O295  1  0.47097402  0.30174311  0.56515324  1
  O  O296  1  0.47010416  0.29765037  0.89768173  1
  O  O297  1  0.47567657  0.78661601  0.22922587  1
  O  O298  1  0.46191502  0.81197331  0.56581936  1
  O  O299  1  0.46662017  0.79976114  0.89478422  1
  O  O300  1  0.96528247  0.29385177  0.22788478  1
  O  O301  1  0.96635428  0.30193015  0.56264496  1
  O  O302  1  0.97206795  0.30250221  0.89779659  1
  O  O303  1  0.96758905  0.80124496  0.22930924  1
  O  O304  1  0.95545159  0.81048826  0.56691563  1
  O  O305  1  0.96935543  0.80451583  0.88882201  1
  O  O306  1  0.19303641  0.03859779  0.27011983  1
  O  O307  1  0.20971394  0.03888600  0.60776114  1
  O  O308  1  0.19862198  0.03267409  0.93737618  1
  O  O309  1  0.18979484  0.53631704  0.26469722  1
  O  O310  1  0.20959902  0.52572783  0.59838387  1
  O  O311  1  0.19633109  0.53132968  0.93223165  1
  O  O312  1  0.70281073  0.02767630  0.26989246  1
  O  O313  1  0.70404439  0.03667480  0.60711992  1
  O  O314  1  0.69824528  0.02902841  0.93637355  1
  O  O315  1  0.69795219  0.52707259  0.27440077  1
  O  O316  1  0.69936764  0.52239276  0.60087481  1
  O  O317  1  0.69955730  0.53076929  0.93298830  1
  O  O318  1  0.09000452  0.08892244  0.03569834  1
  O  O319  1  0.09568541  0.08893171  0.37208784  1
  O  O320  1  0.08865829  0.09429061  0.71066658  1
  O  O321  1  0.08789888  0.58839044  0.02828140  1
  O  O322  1  0.09769057  0.58694263  0.35147609  1
  O  O323  1  0.08222028  0.59050946  0.70884828  1
  O  O324  1  0.58652238  0.08646194  0.03756623  1
  O  O325  1  0.59173696  0.10316242  0.38512787  1
  O  O326  1  0.58124169  0.08844058  0.70438584  1
  O  O327  1  0.55952137  0.57919151  0.03811689  1
  O  O328  1  0.58049854  0.58159144  0.36956082  1
  O  O329  1  0.58379894  0.58733566  0.70594573  1
  O  O330  1  0.40900308  0.41254308  0.11825762  1
  O  O331  1  0.40564714  0.41435539  0.45564244  1
  O  O332  1  0.41201859  0.41277990  0.80032220  1
  O  O333  1  0.40879158  0.90753200  0.12068733  1
  O  O334  1  0.41092017  0.90426768  0.46060568  1
  O  O335  1  0.41488557  0.91705984  0.80022230  1
  O  O336  1  0.91592923  0.41150589  0.13628475  1
  O  O337  1  0.91387137  0.41358821  0.46314819  1
  O  O338  1  0.91192172  0.41632868  0.79826070  1
  O  O339  1  0.91463559  0.93624006  0.13561845  1
  O  O340  1  0.90667082  0.91570826  0.46839356  1
  O  O341  1  0.90795291  0.91959692  0.80030910  1
  O  O342  1  0.41686909  0.40661573  0.28835466  1
  O  O343  1  0.41338152  0.41098887  0.62801996  1
  O  O344  1  0.41520470  0.40954191  0.96287769  1
  O  O345  1  0.42690262  0.90300233  0.29131872  1
  O  O346  1  0.41575348  0.92047911  0.64341719  1
  O  O347  1  0.41889389  0.91418515  0.96374828  1
  O  O348  1  0.90759467  0.40355968  0.29194441  1
  O  O349  1  0.90913127  0.40996348  0.63134897  1
  O  O350  1  0.91609236  0.41317571  0.96329489  1
  O  O351  1  0.90069967  0.90752080  0.28385869  1
  O  O352  1  0.89982044  0.91789307  0.63806679  1
  O  O353  1  0.92235478  0.92177728  0.95807301  1
  O  O354  1  0.08453239  0.08939161  0.19618525  1
  O  O355  1  0.09589185  0.08791248  0.54016691  1
  O  O356  1  0.08480742  0.08284195  0.86872804  1
  O  O357  1  0.08765098  0.60130118  0.19681167  1
  O  O358  1  0.10324520  0.59158744  0.54705002  1
  O  O359  1  0.08464730  0.58587938  0.86583690  1
  O  O360  1  0.59219947  0.08736445  0.21088499  1
  O  O361  1  0.58728519  0.08831938  0.54793959  1
  O  O362  1  0.58623550  0.08356791  0.87250001  1
  O  O363  1  0.59207050  0.58842754  0.20930746  1
  O  O364  1  0.57976769  0.56159666  0.52999683  1
  O  O365  1  0.59138778  0.58716386  0.87087469  1
  O  O366  1  0.14236482  0.22321937  0.05657062  1
  O  O367  1  0.14324855  0.22322082  0.38838026  1
  O  O368  1  0.13997529  0.22704003  0.72855641  1
  O  O369  1  0.14414511  0.72285902  0.05494263  1
  O  O370  1  0.14610561  0.72532792  0.39191772  1
  O  O371  1  0.13292984  0.72176868  0.72341835  1
  O  O372  1  0.63357604  0.21972595  0.05067324  1
  O  O373  1  0.63291913  0.23491027  0.39401403  1
  O  O374  1  0.63786711  0.22149856  0.72715212  1
  O  O375  1  0.63350508  0.70508406  0.06085360  1
  O  O376  1  0.62972848  0.71273773  0.37937667  1
  O  O377  1  0.63665663  0.72113677  0.72937546  1
  O  O378  1  0.27721551  0.36123646  0.10280737  1
  O  O379  1  0.27266644  0.36665964  0.44342806  1
  O  O380  1  0.27629447  0.36148044  0.77310146  1
  O  O381  1  0.27585214  0.86237887  0.10667830  1
  O  O382  1  0.27622718  0.86450289  0.44811314  1
  O  O383  1  0.28030692  0.86167836  0.77520591  1
  O  O384  1  0.78196274  0.35443810  0.10641023  1
  O  O385  1  0.78450745  0.35277266  0.44691618  1
  O  O386  1  0.77823228  0.35876523  0.77447429  1
  O  O387  1  0.78782816  0.86072842  0.10654834  1
  O  O388  1  0.77294927  0.87145339  0.45234729  1
  O  O389  1  0.77480371  0.86180089  0.77465540  1
  O  O390  1  0.36426387  0.27458069  0.27480482  1
  O  O391  1  0.36284294  0.27707990  0.60858974  1
  O  O392  1  0.36052081  0.27583687  0.93989428  1
  O  O393  1  0.36522727  0.77278102  0.27343036  1
  O  O394  1  0.35991684  0.78557890  0.61549423  1
  O  O395  1  0.35967424  0.78176957  0.94187709  1
  O  O396  1  0.86197218  0.26961634  0.27661304  1
  O  O397  1  0.86014890  0.27435153  0.60747033  1
  O  O398  1  0.86349013  0.27864665  0.94068069  1
  O  O399  1  0.86645796  0.77482891  0.27995189  1
  O  O400  1  0.85864602  0.78343243  0.62463582  1
  O  O401  1  0.86720529  0.79145840  0.94229659  1
  O  O402  1  0.21969803  0.14182313  0.22132452  1
  O  O403  1  0.22738204  0.14512061  0.56019529  1
  O  O404  1  0.21801940  0.13924837  0.89036508  1
  O  O405  1  0.22535173  0.64372552  0.22492201  1
  O  O406  1  0.23617245  0.64030040  0.56348421  1
  O  O407  1  0.21898309  0.64074203  0.88968501  1
  O  O408  1  0.72444468  0.13167572  0.21972737  1
  O  O409  1  0.71541653  0.13607668  0.55032161  1
  O  O410  1  0.72018634  0.13661044  0.89150677  1
  O  O411  1  0.72747235  0.62143389  0.21789115  1
  O  O412  1  0.70798012  0.63586664  0.56088169  1
  O  O413  1  0.72451017  0.63937549  0.88877184  1
  O  O414  1  0.49092744  0.32899533  0.03057357  1
  O  O415  1  0.49276099  0.33235452  0.36382612  1
  O  O416  1  0.49166658  0.33362484  0.69841927  1
  O  O417  1  0.49229029  0.83183838  0.02919581  1
  O  O418  1  0.49533278  0.82187057  0.36311138  1
  O  O419  1  0.49265384  0.83447985  0.69982588  1
  O  O420  1  0.99299144  0.33347441  0.03114370  1
  O  O421  1  0.99206400  0.33020700  0.36173369  1
  O  O422  1  0.99013368  0.33171270  0.69609018  1
  O  O423  1  1.00209444  0.84456704  0.02463753  1
  O  O424  1  0.99409707  0.85029945  0.36366017  1
  O  O425  1  0.98909284  0.84641574  0.70290734  1
  O  O426  1  0.16658885  0.00935442  0.13643267  1
  O  O427  1  0.17725943  0.01241853  0.47380403  1
  O  O428  1  0.16642177  0.00783342  0.80299999  1
  O  O429  1  0.16498146  0.51517286  0.13422330  1
  O  O430  1  0.17429912  0.51729187  0.46570215  1
  O  O431  1  0.16642516  0.51085123  0.79913786  1
  O  O432  1  0.65776178  0.00299905  0.13454187  1
  O  O433  1  0.65287167  0.00160939  0.47124007  1
  O  O434  1  0.66209973  0.00740429  0.80140049  1
  O  O435  1  0.65333595  0.49332055  0.13862056  1
  O  O436  1  0.67220106  0.50584204  0.46786322  1
  O  O437  1  0.66838588  0.50940201  0.80020521  1
  O  O438  1  0.01185370  0.16490864  0.30490505  1
  O  O439  1  0.01160838  0.17027846  0.63758865  1
  O  O440  1  0.01065628  0.16828888  0.97077503  1
  O  O441  1  0.01810938  0.67727763  0.29887549  1
  O  O442  1  -0.00054900  0.66580578  0.63869768  1
  O  O443  1  0.01040915  0.67362019  0.97149157  1
  O  O444  1  0.50738583  0.16881471  0.30442451  1
  O  O445  1  0.50680367  0.17076530  0.63784329  1
  O  O446  1  0.50271214  0.16040556  0.96896079  1
  O  O447  1  0.50006399  0.65358841  0.29494333  1
  O  O448  1  0.50453649  0.66590496  0.64125654  1
  O  O449  1  0.50394528  0.66538063  0.96784516  1
  O  O450  1  0.33211975  0.49285619  0.18904339  1
  O  O451  1  0.33825113  0.49402722  0.53323345  1
  O  O452  1  0.32971850  0.49122995  0.86292007  1
  O  O453  1  0.33623175  0.99334843  0.19233327  1
  O  O454  1  0.34460841  0.99145995  0.53596582  1
  O  O455  1  0.33316962  0.99154802  0.86614522  1
  O  O456  1  0.82821021  0.48627971  0.19463096  1
  O  O457  1  0.83196094  0.48734535  0.52958517  1
  O  O458  1  0.83081165  0.48998087  0.86429553  1
  O  O459  1  0.82168765  0.99251554  0.19735025  1
  O  O460  1  0.82661828  1.00365977  0.52609794  1
  O  O461  1  0.82431549  0.99263688  0.86509767  1
