# generated using pymatgen
data_Na31Fe20(SO4)36
_symmetry_space_group_name_H-M   'P 1'
_cell_length_a   18.07257216
_cell_length_b   18.07655674
_cell_length_c   19.70253488
_cell_angle_alpha   107.58218171
_cell_angle_beta   107.56560668
_cell_angle_gamma   90.75599859
_symmetry_Int_Tables_number   1
_chemical_formula_structural   Na31Fe20(SO4)36
_chemical_formula_sum   'Na62 Fe40 S72 O288'
_cell_volume   5811.12964503
_cell_formula_units_Z   2
loop_
 _symmetry_equiv_pos_site_id
 _symmetry_equiv_pos_as_xyz
  1  'x, y, z'
loop_
 _atom_site_type_symbol
 _atom_site_label
 _atom_site_symmetry_multiplicity
 _atom_site_fract_x
 _atom_site_fract_y
 _atom_site_fract_z
 _atom_site_occupancy
  Na  Na0  1  0.13515164  0.36910696  0.08275188  1
  Na  Na1  1  0.13251964  0.35363964  0.41443301  1
  Na  Na2  1  0.12618491  0.36247839  0.75068810  1
  Na  Na3  1  0.15004495  0.86657029  0.08976958  1
  Na  Na4  1  0.14365670  0.86022298  0.41966415  1
  Na  Na5  1  0.13615683  0.85852383  0.74876745  1
  Na  Na6  1  0.63834169  0.36534951  0.07115949  1
  Na  Na7  1  0.63876701  0.36137118  0.41756931  1
  Na  Na8  1  0.62691037  0.37621025  0.75088910  1
  Na  Na9  1  0.62841473  0.86849892  0.08256110  1
  Na  Na10  1  0.63334501  0.86896918  0.41992154  1
  Na  Na11  1  0.63011331  0.87294393  0.75397962  1
  Na  Na12  1  0.34483062  0.12687621  0.23104388  1
  Na  Na13  1  0.37200072  0.14263896  0.58603978  1
  Na  Na14  1  0.35443738  0.15968774  0.92591517  1
  Na  Na15  1  0.36754194  0.63236375  0.24976956  1
  Na  Na16  1  0.36685847  0.63196770  0.58051825  1
  Na  Na17  1  0.36505097  0.63243665  0.91879881  1
  Na  Na18  1  0.87088719  0.13847991  0.25924490  1
  Na  Na19  1  0.86812841  0.14109029  0.59387308  1
  Na  Na20  1  0.87014854  0.13280199  0.91757529  1
  Na  Na21  1  0.85899891  0.62604914  0.23822449  1
  Na  Na22  1  0.86762688  0.63452729  0.58509168  1
  Na  Na23  1  0.86170479  0.62504069  0.91411233  1
  Na  Na24  1  0.51206954  0.49680852  0.09225240  1
  Na  Na25  1  0.99161876  0.00543933  0.76862305  1
  Na  Na26  1  0.47475633  0.03030880  0.41101863  1
  Na  Na27  1  0.99549610  0.02317297  0.40852777  1
  Na  Na28  1  0.49550781  0.48883320  0.43024836  1
  Na  Na29  1  1.00929077  0.47794777  0.42802783  1
  Na  Na30  1  0.93301116  0.49638301  0.05270322  1
  Na  Na31  1  1.04527321  -0.01539826  0.02214718  1
  Na  Na32  1  0.50466243  0.08158371  0.78923700  1
  Na  Na33  1  0.49929964  1.01630398  0.58283566  1
  Na  Na34  1  0.01474937  0.49046401  0.25169674  1
  Na  Na35  1  0.02201742  0.98904295  0.22907667  1
  Na  Na36  1  0.55475831  0.50133600  0.92409810  1
  Na  Na37  1  0.00666711  0.45855121  0.59065486  1
  Na  Na38  1  -0.00678677  0.43414947  0.87303423  1
  Na  Na39  1  0.48633430  1.01266839  0.23634326  1
  Na  Na40  1  0.48102447  1.01523906  0.94121330  1
  Na  Na41  1  0.01746623  0.99395078  0.58283823  1
  Na  Na42  1  0.76335048  0.25889043  0.33340404  1
  Na  Na43  1  0.25832800  0.75667099  0.65181284  1
  Na  Na44  1  0.73500764  0.72951295  0.00662541  1
  Na  Na45  1  0.74771136  0.74511588  0.33780360  1
  Na  Na46  1  0.74112739  0.74395743  0.67272465  1
  Na  Na47  1  0.23978636  0.24419579  0.67724161  1
  Na  Na48  1  0.25463581  0.75795553  0.33309311  1
  Na  Na49  1  0.75221834  0.25934015  -0.01247538  1
  Na  Na50  1  0.74886893  0.25439310  0.66629754  1
  Na  Na51  1  0.25061375  0.24192405  0.32873723  1
  Na  Na52  1  0.74713963  0.74934153  0.50447916  1
  Na  Na53  1  0.23912725  0.73838199  0.84689611  1
  Na  Na54  1  0.75385341  0.25637030  0.16042414  1
  Na  Na55  1  0.25017754  0.24584874  0.50102989  1
  Na  Na56  1  0.26475961  0.76286354  0.15661156  1
  Na  Na57  1  0.74383527  0.24600275  0.50327626  1
  Na  Na58  1  0.25842020  0.25158344  0.14700234  1
  Na  Na59  1  0.76516346  0.27765668  0.82889220  1
  Na  Na60  1  0.74663012  0.74753987  0.83899961  1
  Na  Na61  1  0.73938559  0.73740470  0.17169979  1
  Fe  Fe62  1  0.96348789  0.30714905  0.11744258  1
  Fe  Fe63  1  0.46107251  0.80765708  0.11754292  1
  Fe  Fe64  1  0.96980780  0.80535174  0.45259692  1
  Fe  Fe65  1  0.96654366  0.80524936  0.78680342  1
  Fe  Fe66  1  0.46255738  0.81265064  0.45285708  1
  Fe  Fe67  1  0.47278414  0.30436714  0.79383044  1
  Fe  Fe68  1  0.46912410  0.30005287  0.46199534  1
  Fe  Fe69  1  0.96612506  0.80146125  0.11665335  1
  Fe  Fe70  1  0.46228581  0.81334574  0.78607564  1
  Fe  Fe71  1  0.46880670  0.30678590  0.11618898  1
  Fe  Fe72  1  0.68959191  0.53724297  0.38058308  1
  Fe  Fe73  1  0.19236977  0.53077661  0.04576954  1
  Fe  Fe74  1  0.19827559  0.02867944  0.37198029  1
  Fe  Fe75  1  0.68981851  0.03306341  0.38099472  1
  Fe  Fe76  1  0.68539637  0.53646582  0.70984709  1
  Fe  Fe77  1  0.69277681  0.03854480  0.72042013  1
  Fe  Fe78  1  0.19683083  0.53511399  0.38575395  1
  Fe  Fe79  1  0.19538059  0.53176610  0.71714688  1
  Fe  Fe80  1  0.19613963  0.04472244  0.72983384  1
  Fe  Fe81  1  0.69145524  0.03621922  0.04820960  1
  Fe  Fe82  1  0.52723920  0.69668737  0.87830029  1
  Fe  Fe83  1  0.03709220  0.68496067  0.87844953  1
  Fe  Fe84  1  0.53170030  0.69918592  0.54746569  1
  Fe  Fe85  1  0.53344282  0.69245403  0.21409933  1
  Fe  Fe86  1  0.53741967  0.19140305  0.21215207  1
  Fe  Fe87  1  0.04020010  0.19851157  0.87982833  1
  Fe  Fe88  1  0.03350670  0.19156626  0.20986070  1
  Fe  Fe89  1  0.03342695  0.68582039  0.21147660  1
  Fe  Fe90  1  0.02851198  0.19977641  0.54661730  1
  Fe  Fe91  1  0.03805729  0.69132791  0.54774197  1
  Fe  Fe92  1  0.80728897  0.96672713  0.62120745  1
  Fe  Fe93  1  0.31504389  0.46425599  0.62645552  1
  Fe  Fe94  1  0.81238031  0.46432133  0.62297752  1
  Fe  Fe95  1  0.30697765  0.97131974  0.62156374  1
  Fe  Fe96  1  0.31251489  0.46208776  0.95567710  1
  Fe  Fe97  1  0.30986536  0.46308572  0.28581632  1
  Fe  Fe98  1  0.80738384  0.96160298  0.28541989  1
  Fe  Fe99  1  0.81396033  0.96200608  0.95688991  1
  Fe  Fe100  1  0.80764275  0.46578393  0.28863147  1
  Fe  Fe101  1  0.29814941  0.96887316  0.95625269  1
  S  S102  1  0.36683919  0.13690625  0.08207280  1
  S  S103  1  0.35602590  0.14213994  0.41386964  1
  S  S104  1  0.35500377  0.14596146  0.74908359  1
  S  S105  1  0.35810544  0.63814848  0.08576236  1
  S  S106  1  0.35973825  0.64052643  0.41584346  1
  S  S107  1  0.35439275  0.64466228  0.74835931  1
  S  S108  1  0.85817616  0.14066955  0.08331092  1
  S  S109  1  0.85806234  0.13518172  0.41694578  1
  S  S110  1  0.86094164  0.13855160  0.75491631  1
  S  S111  1  0.85747133  0.64286165  0.08357117  1
  S  S112  1  0.86126909  0.64257246  0.41698540  1
  S  S113  1  0.85861938  0.64346820  0.74894375  1
  S  S114  1  0.14095658  0.36092804  0.25252371  1
  S  S115  1  0.14283768  0.36089047  0.58219974  1
  S  S116  1  0.14979725  0.35655115  0.91913802  1
  S  S117  1  0.13817140  0.85238354  0.24974815  1
  S  S118  1  0.14178026  0.86248475  0.58550089  1
  S  S119  1  0.13817856  0.85309178  0.91110872  1
  S  S120  1  0.64056856  0.36067145  0.25359641  1
  S  S121  1  0.64064633  0.36302123  0.57690140  1
  S  S122  1  0.64090635  0.36090574  0.91727945  1
  S  S123  1  0.64184907  0.85817478  0.24912630  1
  S  S124  1  0.63982069  0.86402740  0.58607538  1
  S  S125  1  0.63940431  0.86037882  0.92040206  1
  S  S126  1  0.06901910  0.18072457  0.04526044  1
  S  S127  1  0.06681618  0.16180280  0.37269125  1
  S  S128  1  0.06736520  0.16752077  0.70684478  1
  S  S129  1  0.07010347  0.66831048  0.04285680  1
  S  S130  1  0.06789836  0.66588750  0.37521801  1
  S  S131  1  0.06644640  0.66455965  0.70651355  1
  S  S132  1  0.56881361  0.17155307  0.04438649  1
  S  S133  1  0.56499091  0.16632739  0.37342937  1
  S  S134  1  0.56773203  0.17267242  0.70938518  1
  S  S135  1  0.55911232  0.67007858  0.04465672  1
  S  S136  1  0.56753999  0.67482594  0.37913367  1
  S  S137  1  0.56622407  0.67922499  0.70968493  1
  S  S138  1  0.33492540  0.43164180  0.12745206  1
  S  S139  1  0.32857630  0.42886206  0.45701023  1
  S  S140  1  0.32951255  0.42887196  0.79166171  1
  S  S141  1  0.33396687  0.93153368  0.12229236  1
  S  S142  1  0.33275024  0.93836507  0.45971455  1
  S  S143  1  0.32505795  0.93461897  0.78995635  1
  S  S144  1  0.83298228  0.42998757  0.12802551  1
  S  S145  1  0.83143006  0.44150265  0.45893844  1
  S  S146  1  0.81969497  0.43722124  0.78099743  1
  S  S147  1  0.82966333  0.92864810  0.12404747  1
  S  S148  1  0.83515648  0.93022625  0.46077518  1
  S  S149  1  0.83037576  0.92924278  0.79137246  1
  S  S150  1  0.43022236  0.32386359  0.29153624  1
  S  S151  1  0.43064964  0.32888985  0.62852988  1
  S  S152  1  0.43719952  0.33863761  0.96156469  1
  S  S153  1  0.44072603  0.83593779  0.29315455  1
  S  S154  1  0.43078602  0.83413221  0.62473638  1
  S  S155  1  0.42821625  0.83109653  0.95420766  1
  S  S156  1  0.93613715  0.33224235  0.29224690  1
  S  S157  1  0.93117599  0.32575648  0.62481759  1
  S  S158  1  0.93569010  0.32710617  0.95292776  1
  S  S159  1  0.93197451  0.82783800  0.29202692  1
  S  S160  1  0.93420991  0.83164275  0.62417896  1
  S  S161  1  0.93532788  0.82561600  0.95677144  1
  S  S162  1  0.15757346  0.06169677  0.20026751  1
  S  S163  1  0.17027998  0.06662267  0.53856804  1
  S  S164  1  0.16498030  0.06065043  0.86706013  1
  S  S165  1  0.17272780  0.56623412  0.21342939  1
  S  S166  1  0.17083850  0.56475794  0.54445719  1
  S  S167  1  0.17268986  0.56402608  0.87652885  1
  S  S168  1  0.67481490  0.06718709  0.21333237  1
  S  S169  1  0.66858196  0.06153028  0.54250736  1
  S  S170  1  0.67576751  0.06151447  0.88504398  1
  S  S171  1  0.66940241  0.56638238  0.21267488  1
  S  S172  1  0.66699675  0.57382232  0.54161405  1
  S  S173  1  0.66155301  0.57883441  0.86998080  1
  O  O174  1  0.38009549  0.21547539  0.07364490  1
  O  O175  1  0.36617915  0.22783008  0.42061057  1
  O  O176  1  0.37399473  0.22509706  0.74308575  1
  O  O177  1  0.36494887  0.71831334  0.08128625  1
  O  O178  1  0.36952678  0.71889258  0.40653692  1
  O  O179  1  0.36423901  0.72373707  0.74039472  1
  O  O180  1  0.86399461  0.21866106  0.07212222  1
  O  O181  1  0.86471667  0.20968128  0.40408092  1
  O  O182  1  0.86195387  0.21488270  0.74428424  1
  O  O183  1  0.86991413  0.72422532  0.07858960  1
  O  O184  1  0.87253307  0.72170311  0.40928288  1
  O  O185  1  0.87074576  0.72190603  0.73844738  1
  O  O186  1  0.29331563  0.13079535  0.09740573  1
  O  O187  1  0.27241303  0.13189898  0.41347411  1
  O  O188  1  0.26983458  0.13984303  0.73737280  1
  O  O189  1  0.28072562  0.62637051  0.09677012  1
  O  O190  1  0.28165367  0.63073375  0.42429849  1
  O  O191  1  0.27455519  0.63403386  0.75462434  1
  O  O192  1  0.77855640  0.12999987  0.09016293  1
  O  O193  1  0.77946093  0.12295621  0.42635122  1
  O  O194  1  0.78629006  0.12370698  0.77036721  1
  O  O195  1  0.78397925  0.63807680  0.09950448  1
  O  O196  1  0.78176308  0.63710061  0.42515597  1
  O  O197  1  0.77775215  0.63917973  0.75355864  1
  O  O198  1  0.12923268  0.28255489  0.26097961  1
  O  O199  1  0.13124145  0.27965023  0.58497231  1
  O  O200  1  0.13807732  0.27716224  0.92576844  1
  O  O201  1  0.12274541  0.77466010  0.25995683  1
  O  O202  1  0.13012087  0.78366240  0.59410593  1
  O  O203  1  0.13339840  0.76938860  0.90820651  1
  O  O204  1  0.63225150  0.28214302  0.26376905  1
  O  O205  1  0.64130223  0.28453607  0.58309833  1
  O  O206  1  0.63001114  0.28451997  0.92725138  1
  O  O207  1  0.63478670  0.77755061  0.25464357  1
  O  O208  1  0.63110271  0.78467616  0.59364759  1
  O  O209  1  0.62693200  0.78319259  0.93122060  1
  O  O210  1  0.22046179  0.36802701  0.24546493  1
  O  O211  1  0.22357653  0.36976964  0.57744383  1
  O  O212  1  0.23022076  0.36778390  0.91684402  1
  O  O213  1  0.21368459  0.85549616  0.23813246  1
  O  O214  1  0.22200176  0.87123511  0.58167345  1
  O  O215  1  0.21553923  0.87001341  0.90108418  1
  O  O216  1  0.72112080  0.36871137  0.24747950  1
  O  O217  1  0.71542023  0.38136157  0.56212656  1
  O  O218  1  0.71339522  0.37020438  0.90044236  1
  O  O219  1  0.72092043  0.86737166  0.24008679  1
  O  O220  1  0.71856964  0.87127606  0.57621805  1
  O  O221  1  0.71923420  0.86555132  0.91329624  1
  O  O222  1  0.43125204  0.12466853  0.14507652  1
  O  O223  1  0.40886194  0.12514301  0.47904905  1
  O  O224  1  0.40046589  0.13724466  0.82083905  1
  O  O225  1  0.41973744  0.62799213  0.15180296  1
  O  O226  1  0.41981889  0.63375626  0.48425385  1
  O  O227  1  0.41171387  0.63879516  0.81785921  1
  O  O228  1  0.91503455  0.13796116  0.15452036  1
  O  O229  1  0.91767552  0.12814413  0.48567470  1
  O  O230  1  0.92617733  0.13091950  0.82005126  1
  O  O231  1  0.92193511  0.63106747  0.14899038  1
  O  O232  1  0.91962802  0.63481177  0.48549254  1
  O  O233  1  0.91479740  0.63819295  0.81913512  1
  O  O234  1  0.36710259  0.07760745  0.00937521  1
  O  O235  1  0.36688205  0.09412454  0.34365986  1
  O  O236  1  0.37319200  0.08582188  0.68590096  1
  O  O237  1  0.36445438  0.58124992  0.01597308  1
  O  O238  1  0.36883362  0.58029742  0.34888326  1
  O  O239  1  0.36234586  0.58588996  0.68043034  1
  O  O240  1  0.87025449  0.08058073  0.01827467  1
  O  O241  1  0.86872909  0.07167352  0.35121618  1
  O  O242  1  0.86750839  0.07718693  0.68611554  1
  O  O243  1  0.86078602  0.58657524  0.01405999  1
  O  O244  1  0.86804627  0.58347075  0.34894413  1
  O  O245  1  0.86713071  0.58365502  0.68210087  1
  O  O246  1  0.08252701  0.37145286  0.18552959  1
  O  O247  1  0.08546179  0.37525998  0.51801166  1
  O  O248  1  0.09267356  0.36583144  0.85241610  1
  O  O249  1  0.07573119  0.86353991  0.18414935  1
  O  O250  1  0.08432795  0.86770427  0.51440029  1
  O  O251  1  0.07752374  0.86323562  0.84391776  1
  O  O252  1  0.58329223  0.36759777  0.18485570  1
  O  O253  1  0.57701605  0.36812925  0.50894236  1
  O  O254  1  0.57423782  0.36768494  0.84691607  1
  O  O255  1  0.58263086  0.86850813  0.18322666  1
  O  O256  1  0.58036878  0.87264610  0.51902764  1
  O  O257  1  0.58192283  0.86757311  0.85125975  1
  O  O258  1  0.13302316  0.42106866  0.32085542  1
  O  O259  1  0.13592683  0.41666618  0.65355436  1
  O  O260  1  0.13946347  0.41531700  0.98807025  1
  O  O261  1  0.13436133  0.91292220  0.31934614  1
  O  O262  1  0.12889051  0.92286009  0.64988337  1
  O  O263  1  0.12984387  0.90395190  0.98066460  1
  O  O264  1  0.63277053  0.41970868  0.32163833  1
  O  O265  1  0.63080631  0.42056954  0.64454245  1
  O  O266  1  0.63241905  0.42406037  0.98127681  1
  O  O267  1  0.63710906  0.91470269  0.31981089  1
  O  O268  1  0.63359877  0.92262034  0.65496027  1
  O  O269  1  0.63142558  0.92168192  0.98723872  1
  O  O270  1  0.02443403  0.20738420  0.10228004  1
  O  O271  1  0.03161266  0.17955749  0.43336809  1
  O  O272  1  0.03351865  0.18782602  0.76858522  1
  O  O273  1  0.03113325  0.69751086  0.10276371  1
  O  O274  1  0.03363617  0.69811945  0.43816256  1
  O  O275  1  0.02722382  0.69066869  0.76562790  1
  O  O276  1  0.54170662  0.20868104  0.11214579  1
  O  O277  1  0.52710460  0.19446283  0.43123437  1
  O  O278  1  0.53109632  0.20441168  0.77067151  1
  O  O279  1  0.52327753  0.70890975  0.10561955  1
  O  O280  1  0.53217142  0.70857808  0.44065274  1
  O  O281  1  0.52716146  0.70830174  0.76878455  1
  O  O282  1  0.30313352  0.46871742  0.06727922  1
  O  O283  1  0.30087554  0.47008371  0.39860499  1
  O  O284  1  0.30526032  0.47208170  0.73442257  1
  O  O285  1  0.30535668  0.95480865  0.05337144  1
  O  O286  1  0.30392979  0.97305000  0.39934690  1
  O  O287  1  0.29747578  0.97855591  0.73390909  1
  O  O288  1  0.81421423  0.46173313  0.06673303  1
  O  O289  1  0.79576414  0.47740741  0.39721468  1
  O  O290  1  0.78486738  0.47631857  0.71970750  1
  O  O291  1  0.80141004  0.96689250  0.06436451  1
  O  O292  1  0.80260116  0.96136282  0.39706717  1
  O  O293  1  0.79721309  0.96368374  0.72950338  1
  O  O294  1  0.46722357  0.29788485  0.23075402  1
  O  O295  1  0.47073613  0.30782800  0.57198674  1
  O  O296  1  0.46483770  0.30998026  0.89541989  1
  O  O297  1  0.47529857  0.79605681  0.23154473  1
  O  O298  1  0.46855761  0.80450468  0.56395033  1
  O  O299  1  0.46587314  0.80254664  0.89261271  1
  O  O300  1  0.96761574  0.30004457  0.22734388  1
  O  O301  1  0.96526060  0.29558237  0.56216021  1
  O  O302  1  0.97916156  0.29245391  0.89956256  1
  O  O303  1  0.96436531  0.79648286  0.22918347  1
  O  O304  1  0.96972934  0.80252978  0.56244584  1
  O  O305  1  0.97244591  0.79580449  0.89640868  1
  O  O306  1  0.17799107  0.02657770  0.26182325  1
  O  O307  1  0.19962958  0.02794753  0.59753381  1
  O  O308  1  0.20078611  0.03316561  0.93145155  1
  O  O309  1  0.20369279  0.52835419  0.27361664  1
  O  O310  1  0.19934776  0.52897159  0.60546457  1
  O  O311  1  0.20337173  0.52729697  0.93729742  1
  O  O312  1  0.70418271  0.02853581  0.27334068  1
  O  O313  1  0.70492223  0.03048228  0.60752459  1
  O  O314  1  0.71353989  0.02211780  0.94333607  1
  O  O315  1  0.70178821  0.53397888  0.27753132  1
  O  O316  1  0.69645644  0.54218296  0.60464382  1
  O  O317  1  0.68224751  0.55254862  0.93508211  1
  O  O318  1  0.09244491  0.10432948  0.04385050  1
  O  O319  1  0.08400066  0.07772405  0.35666617  1
  O  O320  1  0.08953328  0.08498758  0.69594642  1
  O  O321  1  0.08920721  0.58792073  0.04024859  1
  O  O322  1  0.08588335  0.58414328  0.37295039  1
  O  O323  1  0.08523274  0.58289061  0.69784720  1
  O  O324  1  0.59041383  0.09178199  0.04693321  1
  O  O325  1  0.58242224  0.08309712  0.36840370  1
  O  O326  1  0.59105079  0.09337210  0.71622115  1
  O  O327  1  0.56821647  0.58979738  0.04457222  1
  O  O328  1  0.58713184  0.59552840  0.37919194  1
  O  O329  1  0.58749776  0.60010774  0.70425415  1
  O  O330  1  0.41531171  0.41264766  0.12851456  1
  O  O331  1  0.40817650  0.40813728  0.45896816  1
  O  O332  1  0.40806357  0.40279118  0.79486969  1
  O  O333  1  0.41615660  0.90869450  0.12906298  1
  O  O334  1  0.41648483  0.92200789  0.46637097  1
  O  O335  1  0.40850261  0.92166543  0.79898644  1
  O  O336  1  0.91790997  0.41252758  0.14490555  1
  O  O337  1  0.91403085  0.43451022  0.46579276  1
  O  O338  1  0.89213285  0.41003149  0.76979208  1
  O  O339  1  0.91018610  0.90776652  0.12807946  1
  O  O340  1  0.91786605  0.91415040  0.46581915  1
  O  O341  1  0.91075203  0.91071409  0.79137353  1
  O  O342  1  0.41333815  0.40709389  0.30226520  1
  O  O343  1  0.41307555  0.41126075  0.64234372  1
  O  O344  1  0.42373216  0.42335364  0.97333705  1
  O  O345  1  0.43562974  0.91775939  0.29712925  1
  O  O346  1  0.41072695  0.91415753  0.62671079  1
  O  O347  1  0.40506925  0.91010756  0.95479699  1
  O  O348  1  0.91721862  0.41462371  0.29648987  1
  O  O349  1  0.90930320  0.40572651  0.62148598  1
  O  O350  1  0.91654078  0.40293369  0.94349071  1
  O  O351  1  0.91704935  0.91098516  0.29943964  1
  O  O352  1  0.91896784  0.91487410  0.63240547  1
  O  O353  1  0.91645998  0.90700829  0.95993144  1
  O  O354  1  0.07498144  0.08486413  0.19149250  1
  O  O355  1  0.08763587  0.08281875  0.53396010  1
  O  O356  1  0.09212430  0.09588872  0.87523427  1
  O  O357  1  0.09027602  0.58055488  0.20942947  1
  O  O358  1  0.08871045  0.58370023  0.53804617  1
  O  O359  1  0.09262290  0.58372034  0.87426057  1
  O  O360  1  0.59478322  0.08624749  0.21071689  1
  O  O361  1  0.58506439  0.06467343  0.53194986  1
  O  O362  1  0.59660884  0.07214122  0.88840010  1
  O  O363  1  0.59100466  0.59248467  0.21409725  1
  O  O364  1  0.58545868  0.59358266  0.53439173  1
  O  O365  1  0.57799334  0.59812836  0.85496672  1
  O  O366  1  0.13589962  0.23989758  0.06718125  1
  O  O367  1  0.13815739  0.21571192  0.39266326  1
  O  O368  1  0.13398501  0.22296210  0.72019325  1
  O  O369  1  0.13959001  0.72236493  0.05985215  1
  O  O370  1  0.13727381  0.71660723  0.38681971  1
  O  O371  1  0.13709279  0.71876562  0.72572342  1
  O  O372  1  0.63849643  0.22181581  0.05333574  1
  O  O373  1  0.63815755  0.21644387  0.38963657  1
  O  O374  1  0.63770530  0.22441033  0.72207584  1
  O  O375  1  0.63360573  0.71845160  0.06173274  1
  O  O376  1  0.63880318  0.72732303  0.39360357  1
  O  O377  1  0.63647229  0.73474748  0.72781855  1
  O  O378  1  0.28277292  0.36266187  0.11539379  1
  O  O379  1  0.27266847  0.35924544  0.43731414  1
  O  O380  1  0.27026579  0.36309208  0.77189255  1
  O  O381  1  0.28228103  0.86420752  0.11478067  1
  O  O382  1  0.28386953  0.86577529  0.44555270  1
  O  O383  1  0.27426038  0.86062970  0.76409438  1
  O  O384  1  0.78160233  0.35758480  0.11233826  1
  O  O385  1  0.78469780  0.36590633  0.43989450  1
  O  O386  1  0.76145377  0.36962110  0.76491859  1
  O  O387  1  0.77466425  0.85967051  0.10821331  1
  O  O388  1  0.78557998  0.85847783  0.44894841  1
  O  O389  1  0.77915709  0.85833802  0.77855498  1
  O  O390  1  0.35717822  0.27191269  0.27118853  1
  O  O391  1  0.35837120  0.27541595  0.60694030  1
  O  O392  1  0.36735711  0.29106465  0.95279944  1
  O  O393  1  0.36546748  0.78980278  0.27746390  1
  O  O394  1  0.36290977  0.77917229  0.60980812  1
  O  O395  1  0.36079773  0.77517404  0.93874664  1
  O  O396  1  0.86379526  0.28147081  0.27722522  1
  O  O397  1  0.85784572  0.27455471  0.60818229  1
  O  O398  1  0.86494367  0.27377362  0.93757007  1
  O  O399  1  0.85968072  0.77886398  0.27931044  1
  O  O400  1  0.86145834  0.78129506  0.60715337  1
  O  O401  1  0.86456606  0.77394547  0.94167647  1
  O  O402  1  0.21140551  0.13276460  0.21921351  1
  O  O403  1  0.22126865  0.13936934  0.55681936  1
  O  O404  1  0.21927629  0.11577298  0.85711717  1
  O  O405  1  0.22282308  0.63923481  0.23161424  1
  O  O406  1  0.22314529  0.63430567  0.55808912  1
  O  O407  1  0.22644628  0.63257224  0.89012321  1
  O  O408  1  0.72825362  0.13812938  0.23067827  1
  O  O409  1  0.71355738  0.13707076  0.55796626  1
  O  O410  1  0.72502953  0.13411281  0.90101055  1
  O  O411  1  0.72437812  0.63559461  0.22697181  1
  O  O412  1  0.71994879  0.64408861  0.55443993  1
  O  O413  1  0.71491984  0.64929238  0.88242160  1
  O  O414  1  0.50175204  0.33897711  0.03145818  1
  O  O415  1  0.48795897  0.32261342  0.36336695  1
  O  O416  1  0.48655531  0.32299886  0.70097601  1
  O  O417  1  0.48931558  0.83549362  0.02608729  1
  O  O418  1  0.49649205  0.83249959  0.36633398  1
  O  O419  1  0.49086682  0.84006504  0.69853751  1
  O  O420  1  0.98812609  0.34094271  0.03255906  1
  O  O421  1  0.99704704  0.33721628  0.36247493  1
  O  O422  1  0.98936117  0.33227311  0.69640625  1
  O  O423  1  0.99525400  0.83124290  0.02995138  1
  O  O424  1  0.99350144  0.82856438  0.36314610  1
  O  O425  1  0.99293255  0.83055494  0.69538841  1
  O  O426  1  0.15450560  0.00152234  0.13002743  1
  O  O427  1  0.16803957  0.00971165  0.46463711  1
  O  O428  1  0.13890450  -0.00696337  0.79449032  1
  O  O429  1  0.17256299  0.50917835  0.14093787  1
  O  O430  1  0.16566422  0.50404699  0.47100327  1
  O  O431  1  0.16751090  0.50392690  0.80302816  1
  O  O432  1  0.67322199  0.00879383  0.14079052  1
  O  O433  1  0.67748743  0.00360766  0.47278769  1
  O  O434  1  0.67208108  0.00613510  0.80953629  1
  O  O435  1  0.65926394  0.50434697  0.14233226  1
  O  O436  1  0.66334422  0.51186701  0.46977752  1
  O  O437  1  0.66295759  0.51637533  0.80010301  1
  O  O438  1  0.00828929  0.16726746  0.30249403  1
  O  O439  1  0.00524635  0.16250052  0.63428416  1
  O  O440  1  0.01214122  0.17845300  0.97071786  1
  O  O441  1  0.00522693  0.65908324  0.30280534  1
  O  O442  1  0.00813900  0.66591102  0.63415642  1
  O  O443  1  0.01071870  0.66504033  0.96973574  1
  O  O444  1  0.50888604  0.16082987  0.29764161  1
  O  O445  1  0.50818367  0.15673119  0.63583033  1
  O  O446  1  0.50310819  0.16102114  0.97583878  1
  O  O447  1  0.50804888  0.67063001  0.30671034  1
  O  O448  1  0.50744950  0.67778389  0.63687987  1
  O  O449  1  0.50391759  0.67043130  0.97087035  1
  O  O450  1  0.34043549  0.49210960  0.20114208  1
  O  O451  1  0.33165659  0.48643175  0.53067472  1
  O  O452  1  0.33543963  0.48841015  0.86528424  1
  O  O453  1  0.34245226  0.99813901  0.18934458  1
  O  O454  1  0.33666046  0.99716660  0.53405140  1
  O  O455  1  0.32118367  0.98729100  0.86313443  1
  O  O456  1  0.82970758  0.48948085  0.19954335  1
  O  O457  1  0.82604805  0.49705126  0.53055228  1
  O  O458  1  0.83108238  0.49587815  0.85370407  1
  O  O459  1  0.83513967  0.98865532  0.19759137  1
  O  O460  1  0.83869616  0.99140655  0.53270169  1
  O  O461  1  0.83581967  0.98874588  0.86445759  1
