# generated using pymatgen
data_Na31Fe20(SO4)36
_symmetry_space_group_name_H-M   'P 1'
_cell_length_a   18.07495632
_cell_length_b   18.07037954
_cell_length_c   19.70439955
_cell_angle_alpha   107.56577824
_cell_angle_beta   107.58225728
_cell_angle_gamma   90.73365004
_symmetry_Int_Tables_number   1
_chemical_formula_structural   Na31Fe20(SO4)36
_chemical_formula_sum   'Na62 Fe40 S72 O288'
_cell_volume   5810.74068539
_cell_formula_units_Z   2
loop_
 _symmetry_equiv_pos_site_id
 _symmetry_equiv_pos_as_xyz
  1  'x, y, z'
loop_
 _atom_site_type_symbol
 _atom_site_label
 _atom_site_symmetry_multiplicity
 _atom_site_fract_x
 _atom_site_fract_y
 _atom_site_fract_z
 _atom_site_occupancy
  Na  Na0  1  0.13172677  0.34045160  0.06684153  1
  Na  Na1  1  0.12476428  0.37068368  0.41488812  1
  Na  Na2  1  0.12987423  0.36262027  0.74017985  1
  Na  Na3  1  0.15107503  0.87587098  0.09488913  1
  Na  Na4  1  0.14436770  0.88092080  0.43398527  1
  Na  Na5  1  0.12838179  0.87222595  0.74730189  1
  Na  Na6  1  0.62938009  0.35840849  0.07781313  1
  Na  Na7  1  0.63455993  0.36249878  0.41914497  1
  Na  Na8  1  0.60466881  0.37000199  0.74174271  1
  Na  Na9  1  0.64353412  0.85991882  0.08953870  1
  Na  Na10  1  0.63874752  0.85981925  0.41251815  1
  Na  Na11  1  0.63951885  0.86868116  0.75662494  1
  Na  Na12  1  0.34776624  0.12725878  0.23757940  1
  Na  Na13  1  0.36952393  0.14811342  0.59451465  1
  Na  Na14  1  0.35152371  0.12716304  0.90156314  1
  Na  Na15  1  0.36782912  0.63683939  0.25008567  1
  Na  Na16  1  0.36989915  0.62870326  0.58175037  1
  Na  Na17  1  0.37146481  0.62586284  0.91332551  1
  Na  Na18  1  0.86271882  0.13047157  0.24622145  1
  Na  Na19  1  0.88170861  0.13477104  0.58798433  1
  Na  Na20  1  0.87091925  0.13980408  0.92373450  1
  Na  Na21  1  0.85143868  0.65114965  0.25017520  1
  Na  Na22  1  0.86377625  0.63165838  0.57927598  1
  Na  Na23  1  0.86152677  0.63843294  0.91725764  1
  Na  Na24  1  0.99211066  0.50739374  0.74941965  1
  Na  Na25  1  1.01757597  0.46039665  0.14163217  1
  Na  Na26  1  1.01538531  -0.00423904  0.06991033  1
  Na  Na27  1  0.43121014  0.00036938  0.73271550  1
  Na  Na28  1  0.49256847  0.48976357  0.44321217  1
  Na  Na29  1  0.48190529  0.00816977  0.08374462  1
  Na  Na30  1  0.46969399  0.02290533  0.42107060  1
  Na  Na31  1  0.50725631  0.49682782  0.05705769  1
  Na  Na32  1  0.98957155  0.03769632  0.42833075  1
  Na  Na33  1  0.01802628  0.48989905  0.56287218  1
  Na  Na34  1  0.48029184  1.00744667  0.25885789  1
  Na  Na35  1  0.10147334  1.02240050  0.62909458  1
  Na  Na36  1  0.51458394  0.98740811  0.91558845  1
  Na  Na37  1  0.50749619  0.49116278  0.25115534  1
  Na  Na38  1  0.03329271  0.99209852  0.90524318  1
  Na  Na39  1  0.48665552  1.01842664  0.59028573  1
  Na  Na40  1  0.01627649  0.99177846  0.24650141  1
  Na  Na41  1  0.00496386  0.48903444  0.93142669  1
  Na  Na42  1  0.74579267  0.74206779  0.00424087  1
  Na  Na43  1  0.26092806  0.75676384  -0.00827675  1
  Na  Na44  1  0.75067503  0.24878453  0.33118514  1
  Na  Na45  1  0.76385128  0.26531051  -0.00257148  1
  Na  Na46  1  0.74614934  0.74545531  0.67605654  1
  Na  Na47  1  0.25098885  0.24828716  0.67322841  1
  Na  Na48  1  0.23947789  0.24510964  0.33457560  1
  Na  Na49  1  0.25968320  0.76798925  0.32891071  1
  Na  Na50  1  0.73080994  0.24195629  0.66666635  1
  Na  Na51  1  0.26130899  0.76740172  0.65603198  1
  Na  Na52  1  0.23901640  0.23399824  0.84017743  1
  Na  Na53  1  0.76482587  0.26150673  0.15952447  1
  Na  Na54  1  0.26476890  0.76246243  0.16171089  1
  Na  Na55  1  0.76019051  0.75858378  0.48889895  1
  Na  Na56  1  0.25332034  0.75848015  0.82877749  1
  Na  Na57  1  0.23962207  0.24380030  0.50127050  1
  Na  Na58  1  0.26115016  0.76196000  0.49198724  1
  Na  Na59  1  0.73388722  0.23897514  0.50614672  1
  Na  Na60  1  0.24981794  0.24562338  0.15632154  1
  Na  Na61  1  0.74743107  0.25512335  0.83254049  1
  Fe  Fe62  1  0.96628525  0.29574759  0.45483805  1
  Fe  Fe63  1  0.46807765  0.80424113  0.78571779  1
  Fe  Fe64  1  0.96173516  0.80638491  0.78474470  1
  Fe  Fe65  1  0.96604809  0.81033556  0.45131010  1
  Fe  Fe66  1  0.96194861  0.31085146  0.78519352  1
  Fe  Fe67  1  0.47248426  0.80336099  0.12172829  1
  Fe  Fe68  1  0.46813752  0.81195965  0.45553313  1
  Fe  Fe69  1  0.46436660  0.30232003  0.46044792  1
  Fe  Fe70  1  0.46380593  0.30550044  0.11806682  1
  Fe  Fe71  1  0.96493045  0.80626956  0.11752318  1
  Fe  Fe72  1  0.68922797  0.03085028  0.38028304  1
  Fe  Fe73  1  0.19316702  0.53788888  0.71571246  1
  Fe  Fe74  1  0.20351499  0.02899014  0.37144492  1
  Fe  Fe75  1  0.19820423  0.53484080  0.05021332  1
  Fe  Fe76  1  0.68951439  0.53455872  0.71587224  1
  Fe  Fe77  1  0.69178203  0.03234466  0.04831473  1
  Fe  Fe78  1  0.69070467  0.53521120  0.04839863  1
  Fe  Fe79  1  0.69535024  0.53509383  0.38212399  1
  Fe  Fe80  1  0.19027546  0.53542175  0.37944315  1
  Fe  Fe81  1  0.69425649  0.03264781  0.71333950  1
  Fe  Fe82  1  0.03334756  0.69346061  0.21504972  1
  Fe  Fe83  1  0.03344563  0.69323274  0.88213371  1
  Fe  Fe84  1  0.03134232  0.68967965  0.54320606  1
  Fe  Fe85  1  0.53005639  0.19828958  0.87518943  1
  Fe  Fe86  1  0.54236442  0.68991158  0.21754940  1
  Fe  Fe87  1  0.53608531  0.19284709  0.21445239  1
  Fe  Fe88  1  0.03477909  0.19069580  0.87778988  1
  Fe  Fe89  1  0.53776909  0.69176516  0.54897742  1
  Fe  Fe90  1  0.02709059  0.19870763  0.20445435  1
  Fe  Fe91  1  0.53700171  0.68636570  0.87764019  1
  Fe  Fe92  1  0.80310759  0.46621835  0.61774017  1
  Fe  Fe93  1  0.81116015  0.95902847  0.28678904  1
  Fe  Fe94  1  0.31041267  0.46497968  0.62389603  1
  Fe  Fe95  1  0.80755765  0.96452614  0.95108687  1
  Fe  Fe96  1  0.81290370  0.46545709  0.28855046  1
  Fe  Fe97  1  0.30726539  0.45976865  0.94645983  1
  Fe  Fe98  1  0.30799209  0.46378548  0.28649303  1
  Fe  Fe99  1  0.80541624  0.46534734  0.95607808  1
  Fe  Fe100  1  0.28751367  0.97794970  0.95492241  1
  Fe  Fe101  1  0.81159153  0.96808663  0.61985102  1
  S  S102  1  0.36288425  0.13903835  0.08584274  1
  S  S103  1  0.35656576  0.14064286  0.40972258  1
  S  S104  1  0.36213275  0.14774165  0.75317470  1
  S  S105  1  0.36527344  0.63633815  0.08360548  1
  S  S106  1  0.36129878  0.63966435  0.41653948  1
  S  S107  1  0.35887206  0.64279315  0.74875511  1
  S  S108  1  0.85374728  0.13790955  0.08370980  1
  S  S109  1  0.85142623  0.13750004  0.41423210  1
  S  S110  1  0.85593245  0.14423532  0.74945245  1
  S  S111  1  0.86008739  0.64048208  0.08350513  1
  S  S112  1  0.85993955  0.64125326  0.41485580  1
  S  S113  1  0.85932943  0.63757419  0.75142185  1
  S  S114  1  0.14348393  0.36064578  0.24850698  1
  S  S115  1  0.13749529  0.36450098  0.58325564  1
  S  S116  1  0.13740817  0.36432912  0.91762240  1
  S  S117  1  0.13999835  0.85758812  0.24614246  1
  S  S118  1  0.13936573  0.85188597  0.58380983  1
  S  S119  1  0.13662020  0.85631527  0.91653595  1
  S  S120  1  0.64046310  0.35988524  0.25138583  1
  S  S121  1  0.63836590  0.36333137  0.58039637  1
  S  S122  1  0.64025572  0.35900852  0.92063653  1
  S  S123  1  0.64500991  0.85596514  0.25094256  1
  S  S124  1  0.64663359  0.85628275  0.58411763  1
  S  S125  1  0.64230286  0.85938337  0.91713058  1
  S  S126  1  0.05797746  0.16541025  0.03896259  1
  S  S127  1  0.06469709  0.16955836  0.36875357  1
  S  S128  1  0.06650013  0.17992239  0.71897832  1
  S  S129  1  0.07176732  0.67236227  0.04491528  1
  S  S130  1  0.07115685  0.67626254  0.37750441  1
  S  S131  1  0.06281176  0.66618849  0.70798605  1
  S  S132  1  0.57113195  0.17026080  0.04191165  1
  S  S133  1  0.56330088  0.16907288  0.37391206  1
  S  S134  1  0.57112523  0.16703049  0.71143016  1
  S  S135  1  0.56886550  0.66879603  0.04086294  1
  S  S136  1  0.56721580  0.66559180  0.37729665  1
  S  S137  1  0.57081239  0.67312974  0.70992545  1
  S  S138  1  0.33049893  0.43165962  0.12670672  1
  S  S139  1  0.32403331  0.43148290  0.45457033  1
  S  S140  1  0.32546012  0.43565107  0.78849453  1
  S  S141  1  0.34129905  0.93002358  0.12044228  1
  S  S142  1  0.33495100  0.93904955  0.45665578  1
  S  S143  1  0.32999883  0.92501584  0.79677015  1
  S  S144  1  0.82217905  0.43475062  0.12393128  1
  S  S145  1  0.82900207  0.43095907  0.45623647  1
  S  S146  1  0.82905224  0.43482117  0.79280126  1
  S  S147  1  0.83175936  0.93072252  0.12276783  1
  S  S148  1  0.83221333  0.93409926  0.45805965  1
  S  S149  1  0.83310088  0.93553850  0.79191027  1
  S  S150  1  0.43392676  0.32917590  0.29234999  1
  S  S151  1  0.42375479  0.33034951  0.62252223  1
  S  S152  1  0.43233846  0.32561390  0.95719749  1
  S  S153  1  0.44215643  0.82983262  0.29249441  1
  S  S154  1  0.44082076  0.83074263  0.62214282  1
  S  S155  1  0.44192917  0.82878903  0.95878259  1
  S  S156  1  0.92815147  0.32290400  0.29145212  1
  S  S157  1  0.92607231  0.33450396  0.62330142  1
  S  S158  1  0.93431576  0.33708153  0.95825887  1
  S  S159  1  0.93980430  0.83830197  0.29537391  1
  S  S160  1  0.92762558  0.82450312  0.62201807  1
  S  S161  1  0.93280552  0.82968836  0.95807422  1
  S  S162  1  0.15898930  0.06799536  0.20449186  1
  S  S163  1  0.17722529  0.06941245  0.53519056  1
  S  S164  1  0.16595123  0.06613317  0.87417631  1
  S  S165  1  0.17513265  0.57197273  0.21268479  1
  S  S166  1  0.17311495  0.57171650  0.54422738  1
  S  S167  1  0.16823119  0.56733046  0.87683156  1
  S  S168  1  0.66538510  0.06302890  0.20854082  1
  S  S169  1  0.66334024  0.05685192  0.54042346  1
  S  S170  1  0.66945971  0.07206583  0.87845041  1
  S  S171  1  0.66362276  0.56094861  0.20722958  1
  S  S172  1  0.67154295  0.56827131  0.54244294  1
  S  S173  1  0.67183764  0.56513912  0.87863916  1
  O  O174  1  0.37367888  0.21980942  0.08301450  1
  O  O175  1  0.36280108  0.22222258  0.40581722  1
  O  O176  1  0.37203206  0.22695373  0.75044204  1
  O  O177  1  0.37275332  0.71454534  0.07299387  1
  O  O178  1  0.37172525  0.72002317  0.41111889  1
  O  O179  1  0.36847032  0.72191656  0.73998611  1
  O  O180  1  0.85492243  0.21564661  0.07594488  1
  O  O181  1  0.86252845  0.21677414  0.40716055  1
  O  O182  1  0.86189470  0.22333994  0.74033206  1
  O  O183  1  0.87254467  0.71866947  0.07337880  1
  O  O184  1  0.86988415  0.72160267  0.41129708  1
  O  O185  1  0.86827804  0.71679277  0.74393727  1
  O  O186  1  0.29211587  0.12762087  0.10377322  1
  O  O187  1  0.27039122  0.12910024  0.40629594  1
  O  O188  1  0.29026928  0.13278166  0.76957300  1
  O  O189  1  0.28682917  0.62927329  0.09425872  1
  O  O190  1  0.28289387  0.63204770  0.42578413  1
  O  O191  1  0.28020410  0.63628856  0.75895915  1
  O  O192  1  0.77870540  0.12231708  0.09879096  1
  O  O193  1  0.77035568  0.13048567  0.41943268  1
  O  O194  1  0.77617330  0.13369278  0.75663626  1
  O  O195  1  0.78004392  0.63349356  0.08818528  1
  O  O196  1  0.78174328  0.63091126  0.42536332  1
  O  O197  1  0.78105159  0.62690644  0.75842600  1
  O  O198  1  0.12673324  0.28046198  0.25272167  1
  O  O199  1  0.13311855  0.29087750  0.59839929  1
  O  O200  1  0.12548119  0.28707935  0.92653602  1
  O  O201  1  0.12823405  0.77994722  0.25637953  1
  O  O202  1  0.12290399  0.77283442  0.59220857  1
  O  O203  1  0.13166866  0.77370061  0.91835847  1
  O  O204  1  0.63077963  0.28077102  0.25957653  1
  O  O205  1  0.63349572  0.28469473  0.58539265  1
  O  O206  1  0.62846112  0.28012095  0.93257495  1
  O  O207  1  0.63545633  0.77806191  0.25979062  1
  O  O208  1  0.63736714  0.77632599  0.59026466  1
  O  O209  1  0.63429463  0.77999772  0.92323481  1
  O  O210  1  0.22752263  0.36513077  0.24987634  1
  O  O211  1  0.21334035  0.37768092  0.57045058  1
  O  O212  1  0.21627294  0.37067687  0.90883021  1
  O  O213  1  0.21432033  0.86339100  0.23197068  1
  O  O214  1  0.21530872  0.85176343  0.57124074  1
  O  O215  1  0.21709749  0.87015887  0.91183898  1
  O  O216  1  0.71931463  0.36825356  0.24385213  1
  O  O217  1  0.71470001  0.37636418  0.56570841  1
  O  O218  1  0.72545655  0.36389475  0.92430474  1
  O  O219  1  0.72326307  0.86848818  0.24369848  1
  O  O220  1  0.72572065  0.86631044  0.57673062  1
  O  O221  1  0.71956580  0.87254586  0.90828923  1
  O  O222  1  0.43120023  0.12400232  0.14526105  1
  O  O223  1  0.40653315  0.13117814  0.47951285  1
  O  O224  1  0.42897485  0.13493472  0.82155834  1
  O  O225  1  0.42520438  0.63002348  0.15167009  1
  O  O226  1  0.42110066  0.62782870  0.48262218  1
  O  O227  1  0.41802042  0.63579916  0.81677420  1
  O  O228  1  0.91730235  0.13085662  0.14975378  1
  O  O229  1  0.90893515  0.12686629  0.47959098  1
  O  O230  1  0.91386266  0.13834267  0.81836003  1
  O  O231  1  0.91745999  0.63576922  0.15404192  1
  O  O232  1  0.91937787  0.62911570  0.48108286  1
  O  O233  1  0.91941803  0.62896662  0.81931878  1
  O  O234  1  0.36351974  0.08288339  0.01184522  1
  O  O235  1  0.37068482  0.08556819  0.34377908  1
  O  O236  1  0.37144152  0.08951842  0.68639667  1
  O  O237  1  0.37186086  0.57532159  0.01614440  1
  O  O238  1  0.36754207  0.58179741  0.34697562  1
  O  O239  1  0.36451715  0.58426301  0.68028098  1
  O  O240  1  0.86018920  0.07893316  0.01438238  1
  O  O241  1  0.85760043  0.07900134  0.34384103  1
  O  O242  1  0.86383421  0.08577510  0.68139651  1
  O  O243  1  0.87023553  0.58033440  0.01707903  1
  O  O244  1  0.86363995  0.58462520  0.34423183  1
  O  O245  1  0.86981145  0.57907616  0.68364459  1
  O  O246  1  0.09373664  0.37190815  0.17968149  1
  O  O247  1  0.07493728  0.36769254  0.51364174  1
  O  O248  1  0.07865471  0.37776162  0.85190678  1
  O  O249  1  0.07581788  0.86938531  0.18229511  1
  O  O250  1  0.07865303  0.86338276  0.51709082  1
  O  O251  1  0.07878415  0.86318295  0.84645715  1
  O  O252  1  0.58052329  0.36820297  0.18386507  1
  O  O253  1  0.57584115  0.37453462  0.51543964  1
  O  O254  1  0.59019910  0.36315647  0.85000290  1
  O  O255  1  0.58627915  0.86296850  0.18187225  1
  O  O256  1  0.58762088  0.86407911  0.51599911  1
  O  O257  1  0.58105034  0.87040674  0.85128463  1
  O  O258  1  0.13465692  0.41866400  0.31690882  1
  O  O259  1  0.12552005  0.42983982  0.64679151  1
  O  O260  1  0.13175482  0.42503732  0.98701928  1
  O  O261  1  0.13756912  0.91830104  0.31706475  1
  O  O262  1  0.13706007  0.91161151  0.65200167  1
  O  O263  1  0.12378331  0.91041028  0.98268892  1
  O  O264  1  0.63179253  0.41904111  0.31948460  1
  O  O265  1  0.63594999  0.42165949  0.65150438  1
  O  O266  1  0.62882190  0.41904431  0.98670790  1
  O  O267  1  0.63402846  0.91536318  0.31778335  1
  O  O268  1  0.63914935  0.91374854  0.65324108  1
  O  O269  1  0.63323219  0.91726052  0.98636787  1
  O  O270  1  0.02283508  0.19771751  0.10000760  1
  O  O271  1  0.02454619  0.19246433  0.42602834  1
  O  O272  1  0.02558115  0.21595410  0.77857478  1
  O  O273  1  0.03514281  0.70077207  0.10578266  1
  O  O274  1  0.03115295  0.70363394  0.43624886  1
  O  O275  1  0.02528539  0.69497774  0.76839449  1
  O  O276  1  0.53516451  0.20185083  0.10281863  1
  O  O277  1  0.52755712  0.19996505  0.43281327  1
  O  O278  1  0.54986539  0.19296042  0.78214305  1
  O  O279  1  0.53464743  0.69945540  0.10381380  1
  O  O280  1  0.53052392  0.69633991  0.43766543  1
  O  O281  1  0.53305277  0.70338044  0.77070059  1
  O  O282  1  0.30142182  0.46657721  0.06442629  1
  O  O283  1  0.29799330  0.47293462  0.39603084  1
  O  O284  1  0.29034004  0.47610224  0.72891417  1
  O  O285  1  0.32333838  0.95553219  0.05248048  1
  O  O286  1  0.30070137  0.96963656  0.39157497  1
  O  O287  1  0.31088217  0.95989795  0.73766450  1
  O  O288  1  0.79122913  0.47544261  0.06518642  1
  O  O289  1  0.80122438  0.46924709  0.39566222  1
  O  O290  1  0.79749638  0.46749441  0.72939517  1
  O  O291  1  0.80047442  0.96584857  0.06116747  1
  O  O292  1  0.79879836  0.96993386  0.39641632  1
  O  O293  1  0.80489903  0.97321145  0.73156192  1
  O  O294  1  0.47300238  0.30134937  0.23287233  1
  O  O295  1  0.45714204  0.30397465  0.55960514  1
  O  O296  1  0.47417158  0.29655604  0.90193838  1
  O  O297  1  0.47488529  0.79134582  0.22943132  1
  O  O298  1  0.47822180  0.79401489  0.56195844  1
  O  O299  1  0.47565525  0.79244021  0.89652279  1
  O  O300  1  0.96638877  0.29517144  0.23282982  1
  O  O301  1  0.95965325  0.30865055  0.56218479  1
  O  O302  1  0.96529891  0.30620875  0.89322756  1
  O  O303  1  0.97048286  0.80354496  0.23055781  1
  O  O304  1  0.96373104  0.79565277  0.56090742  1
  O  O305  1  0.96735088  0.79717395  0.89539561  1
  O  O306  1  0.17633485  0.03190099  0.26637646  1
  O  O307  1  0.20754151  0.02705577  0.58774178  1
  O  O308  1  0.19299585  0.03391458  0.94055340  1
  O  O309  1  0.20439209  0.53362472  0.27252130  1
  O  O310  1  0.20433574  0.53716406  0.60608228  1
  O  O311  1  0.20136588  0.53272185  0.93855545  1
  O  O312  1  0.69400786  0.02669608  0.26898399  1
  O  O313  1  0.70464820  0.02413774  0.60301781  1
  O  O314  1  0.69599543  0.03406847  0.93899039  1
  O  O315  1  0.69606880  0.52692886  0.26977651  1
  O  O316  1  0.70210695  0.53590830  0.60592287  1
  O  O317  1  0.70080966  0.52505658  0.93767515  1
  O  O318  1  0.05888157  0.08041799  0.02308601  1
  O  O319  1  0.08701540  0.08834514  0.36260953  1
  O  O320  1  0.09035057  0.10684008  0.73090416  1
  O  O321  1  0.09163985  0.59121067  0.03897404  1
  O  O322  1  0.09423685  0.59762238  0.37538793  1
  O  O323  1  0.07958379  0.58337191  0.70286919  1
  O  O324  1  0.58171884  0.08581572  0.03456109  1
  O  O325  1  0.58203351  0.08692496  0.37037022  1
  O  O326  1  0.59539626  0.08558351  0.70251394  1
  O  O327  1  0.58780734  0.58810566  0.04016604  1
  O  O328  1  0.58476247  0.58334410  0.37313359  1
  O  O329  1  0.59269314  0.59491884  0.70985142  1
  O  O330  1  0.41270816  0.41375749  0.13266431  1
  O  O331  1  0.40251358  0.40748885  0.45461996  1
  O  O332  1  0.40315313  0.41999304  0.78996775  1
  O  O333  1  0.42486588  0.90929250  0.13534244  1
  O  O334  1  0.41388446  0.91381726  0.45174696  1
  O  O335  1  0.41457954  0.90634815  0.81052462  1
  O  O336  1  0.89808386  0.41121300  0.12238303  1
  O  O337  1  0.90903001  0.40977056  0.46254940  1
  O  O338  1  0.91317226  0.42211856  0.79933799  1
  O  O339  1  0.91513100  0.91679540  0.12900763  1
  O  O340  1  0.91220426  0.91575851  0.45751162  1
  O  O341  1  0.91467330  0.91625587  0.79875785  1
  O  O342  1  0.41917530  0.41300352  0.29951706  1
  O  O343  1  0.40629937  0.41330914  0.62960725  1
  O  O344  1  0.41096309  0.40572526  0.95767432  1
  O  O345  1  0.43554716  0.91204512  0.29874219  1
  O  O346  1  0.42905033  0.91058660  0.62166157  1
  O  O347  1  0.43489459  0.91205471  0.96549044  1
  O  O348  1  0.90615063  0.40216349  0.29368632  1
  O  O349  1  0.90895058  0.41836438  0.63375426  1
  O  O350  1  0.90862835  0.41609147  0.95644748  1
  O  O351  1  0.92642410  0.92203362  0.29887894  1
  O  O352  1  0.90628536  0.90392280  0.62566564  1
  O  O353  1  0.91451131  0.91088056  0.95999359  1
  O  O354  1  0.07685932  0.09162911  0.19370776  1
  O  O355  1  0.09463080  0.08062662  0.52740652  1
  O  O356  1  0.08585192  0.08883627  0.87418360  1
  O  O357  1  0.09368645  0.58964620  0.20742310  1
  O  O358  1  0.09167294  0.58851112  0.54185008  1
  O  O359  1  0.08646657  0.58477952  0.87476317  1
  O  O360  1  0.58265065  0.07997515  0.20125176  1
  O  O361  1  0.58072280  0.05895533  0.53485411  1
  O  O362  1  0.58830673  0.09248865  0.87440806  1
  O  O363  1  0.58055316  0.57672114  0.20432573  1
  O  O364  1  0.58958345  0.58562607  0.53643166  1
  O  O365  1  0.59347170  0.58814743  0.87825568  1
  O  O366  1  0.13562538  0.20818334  0.05929489  1
  O  O367  1  0.13439552  0.22571786  0.38816539  1
  O  O368  1  0.13558864  0.23633667  0.73597490  1
  O  O369  1  0.14182391  0.72552783  0.05967298  1
  O  O370  1  0.13985515  0.73202554  0.39358682  1
  O  O371  1  0.13435388  0.71735880  0.72531015  1
  O  O372  1  0.64592776  0.21702818  0.05993114  1
  O  O373  1  0.63523701  0.21967692  0.38696125  1
  O  O374  1  0.63791018  0.22257641  0.72160721  1
  O  O375  1  0.63820463  0.71983127  0.05238723  1
  O  O376  1  0.63798304  0.71655651  0.39196978  1
  O  O377  1  0.63806521  0.72837105  0.72306229  1
  O  O378  1  0.27842740  0.36279411  0.11445905  1
  O  O379  1  0.26705229  0.36338506  0.43579281  1
  O  O380  1  0.26931436  0.36706302  0.77227583  1
  O  O381  1  0.28722569  0.85937385  0.10410784  1
  O  O382  1  0.28312085  0.86864638  0.44551257  1
  O  O383  1  0.27739933  0.85297395  0.77869578  1
  O  O384  1  0.76537806  0.36585529  0.10675314  1
  O  O385  1  0.77344565  0.36169622  0.43821622  1
  O  O386  1  0.78137977  0.36189588  0.77911427  1
  O  O387  1  0.78278780  0.85817166  0.10686485  1
  O  O388  1  0.78059163  0.86453705  0.44577592  1
  O  O389  1  0.78003590  0.86507001  0.77455046  1
  O  O390  1  0.36125896  0.27815087  0.27186669  1
  O  O391  1  0.34906002  0.28030266  0.60271652  1
  O  O392  1  0.36375086  0.27244110  0.94354112  1
  O  O393  1  0.36613407  0.78379455  0.27591863  1
  O  O394  1  0.36780632  0.78026077  0.60479934  1
  O  O395  1  0.36579754  0.78312979  0.94182469  1
  O  O396  1  0.85701408  0.26853934  0.27405728  1
  O  O397  1  0.85482037  0.28311602  0.60914375  1
  O  O398  1  0.86596523  0.28271661  0.94636511  1
  O  O399  1  0.86815078  0.79252382  0.28563857  1
  O  O400  1  0.85826874  0.76956538  0.60680532  1
  O  O401  1  0.86408991  0.77863493  0.94757817  1
  O  O402  1  0.21533139  0.13759584  0.22613799  1
  O  O403  1  0.22549824  0.14437707  0.55335270  1
  O  O404  1  0.21946535  0.13549090  0.89009528  1
  O  O405  1  0.22790544  0.64310391  0.22959309  1
  O  O406  1  0.22419681  0.64267488  0.55746332  1
  O  O407  1  0.21935646  0.63818413  0.88999697  1
  O  O408  1  0.71608145  0.13503040  0.22470566  1
  O  O409  1  0.70593887  0.13379986  0.55583174  1
  O  O410  1  0.72369722  0.14200668  0.89536624  1
  O  O411  1  0.71172579  0.63112669  0.21768994  1
  O  O412  1  0.72266005  0.63887884  0.55562619  1
  O  O413  1  0.72751304  0.63388040  0.89635066  1
  O  O414  1  0.49082822  0.33750715  0.03454274  1
  O  O415  1  0.49049902  0.33004530  0.36561396  1
  O  O416  1  0.48019007  0.32723833  0.69123284  1
  O  O417  1  0.49840607  0.82460904  0.03041514  1
  O  O418  1  0.49860582  0.82329883  0.36336746  1
  O  O419  1  0.49603885  0.83260985  0.69687786  1
  O  O420  1  0.99720654  0.34930843  0.02902941  1
  O  O421  1  0.98510708  0.32663625  0.36559843  1
  O  O422  1  0.98639118  0.33728739  0.69610642  1
  O  O423  1  0.99579177  0.83722242  0.03072582  1
  O  O424  1  1.00226191  0.84132384  0.36642040  1
  O  O425  1  0.98747204  0.82735439  0.69477379  1
  O  O426  1  0.15771971  0.00797329  0.13512499  1
  O  O427  1  0.17854457  0.01635793  0.45685031  1
  O  O428  1  0.16081253  0.00299290  0.80592650  1
  O  O429  1  0.17266215  0.51260066  0.14013440  1
  O  O430  1  0.16889867  0.51180856  0.47143825  1
  O  O431  1  0.16130623  0.50803489  0.80312255  1
  O  O432  1  0.66399067  0.00407136  0.13573753  1
  O  O433  1  0.66965373  0.00119349  0.46873305  1
  O  O434  1  0.66773648  0.01191772  0.80677211  1
  O  O435  1  0.65574559  0.49936882  0.13383969  1
  O  O436  1  0.66858420  0.50665548  0.47084269  1
  O  O437  1  0.66621500  0.50661005  0.80485899  1
  O  O438  1  0.00771817  0.16633832  0.29396199  1
  O  O439  1  0.01036790  0.16955061  0.64496896  1
  O  O440  1  0.00481688  0.17943369  0.96960811  1
  O  O441  1  0.01088321  0.67155801  0.30454415  1
  O  O442  1  0.00430039  0.66267581  0.63469320  1
  O  O443  1  0.01040236  0.66906840  0.97272100  1
  O  O444  1  0.50513856  0.16209405  0.29829017  1
  O  O445  1  0.50422600  0.16048588  0.64571504  1
  O  O446  1  0.51438723  0.17286678  0.96973828  1
  O  O447  1  0.50790682  0.66058597  0.30358764  1
  O  O448  1  0.50937707  0.66629747  0.63659702  1
  O  O449  1  0.50716162  0.66278506  0.96871487  1
  O  O450  1  0.33605136  0.49390037  0.19954641  1
  O  O451  1  0.32955718  0.49004652  0.52794466  1
  O  O452  1  0.32444210  0.49495017  0.86198170  1
  O  O453  1  0.33980277  0.99317804  0.18642538  1
  O  O454  1  0.34866875  1.00063982  0.52799128  1
  O  O455  1  0.32881974  0.98224373  0.87080094  1
  O  O456  1  0.82559806  0.49343973  0.19736796  1
  O  O457  1  0.83076124  0.49159327  0.52813094  1
  O  O458  1  0.82975069  0.49514578  0.86397626  1
  O  O459  1  0.83202269  0.98932917  0.19507886  1
  O  O460  1  0.83813333  0.99503181  0.53097793  1
  O  O461  1  0.83429006  0.99492201  0.86427921  1
