# generated using pymatgen
data_Na31Fe20(SO4)36
_symmetry_space_group_name_H-M   'P 1'
_cell_length_a   18.07823805
_cell_length_b   18.06871248
_cell_length_c   19.71248676
_cell_angle_alpha   107.56939032
_cell_angle_beta   107.59171995
_cell_angle_gamma   90.72121298
_symmetry_Int_Tables_number   1
_chemical_formula_structural   Na31Fe20(SO4)36
_chemical_formula_sum   'Na62 Fe40 S72 O288'
_cell_volume   5813.33086968
_cell_formula_units_Z   2
loop_
 _symmetry_equiv_pos_site_id
 _symmetry_equiv_pos_as_xyz
  1  'x, y, z'
loop_
 _atom_site_type_symbol
 _atom_site_label
 _atom_site_symmetry_multiplicity
 _atom_site_fract_x
 _atom_site_fract_y
 _atom_site_fract_z
 _atom_site_occupancy
  Na  Na0  1  0.13939811  0.37254411  0.09208893  1
  Na  Na1  1  0.12989678  0.36311361  0.41367110  1
  Na  Na2  1  0.15791766  0.36846377  0.77517431  1
  Na  Na3  1  0.13753661  0.85208643  0.07833677  1
  Na  Na4  1  0.12799080  0.87192282  0.40504492  1
  Na  Na5  1  0.13139236  0.87105108  0.74859422  1
  Na  Na6  1  0.63850783  0.37144613  0.08514837  1
  Na  Na7  1  0.62968359  0.35759927  0.40819802  1
  Na  Na8  1  0.63297204  0.36414233  0.74495593  1
  Na  Na9  1  0.63622950  0.86871309  0.08944282  1
  Na  Na10  1  0.62979127  0.85127674  0.40931007  1
  Na  Na11  1  0.63981389  0.85896512  0.74762618  1
  Na  Na12  1  0.36750677  0.14356793  0.24743120  1
  Na  Na13  1  0.35877052  0.12954422  0.57052277  1
  Na  Na14  1  0.36390659  0.13639542  0.91014222  1
  Na  Na15  1  0.36612815  0.63080285  0.26016786  1
  Na  Na16  1  0.36848543  0.62803761  0.58249207  1
  Na  Na17  1  0.37313156  0.62462780  0.92361047  1
  Na  Na18  1  0.86242404  0.13206575  0.25239255  1
  Na  Na19  1  0.86036802  0.13514376  0.58060818  1
  Na  Na20  1  0.86652782  0.13531698  0.91933616  1
  Na  Na21  1  0.86751335  0.64246770  0.25136821  1
  Na  Na22  1  0.85901869  0.63783857  0.58193656  1
  Na  Na23  1  0.87408947  0.64724731  0.93279071  1
  Na  Na24  1  0.48505171  0.00532494  0.76374399  1
  Na  Na25  1  0.98889085  0.50525148  0.74679240  1
  Na  Na26  1  0.49411639  -0.00601766  0.42280633  1
  Na  Na27  1  0.99645943  0.58014420  0.11887800  1
  Na  Na28  1  0.46286535  0.51009906  0.42098643  1
  Na  Na29  1  0.50199269  0.50665939  0.05476417  1
  Na  Na30  1  0.49337757  0.50891821  0.74976794  1
  Na  Na31  1  1.01899514  -0.03917560  0.11071992  1
  Na  Na32  1  0.49537050  0.04683563  0.08662932  1
  Na  Na33  1  0.51090869  0.95142257  0.57782928  1
  Na  Na34  1  0.00673645  0.99217607  0.57859469  1
  Na  Na35  1  0.01870555  0.96624025  0.27793560  1
  Na  Na36  1  0.00578281  0.47604300  0.92800004  1
  Na  Na37  1  0.50550249  1.00018527  0.25074829  1
  Na  Na38  1  0.01455773  0.50098196  0.26286990  1
  Na  Na39  1  0.00917905  0.99389321  0.91170460  1
  Na  Na40  1  0.49783561  0.48587190  0.24644676  1
  Na  Na41  1  0.00772594  0.49885955  0.55976598  1
  Na  Na42  1  0.74890871  0.25201243  0.00267270  1
  Na  Na43  1  0.75681568  0.25713360  0.65328634  1
  Na  Na44  1  0.74435326  0.74239052  0.00934004  1
  Na  Na45  1  0.24560522  0.75156961  0.33157175  1
  Na  Na46  1  0.24666641  0.74094264  0.00148561  1
  Na  Na47  1  0.73313022  0.23854308  0.34291877  1
  Na  Na48  1  0.26044772  0.26152944  0.32635809  1
  Na  Na49  1  0.25563761  0.75328339  0.66247334  1
  Na  Na50  1  0.26953757  0.28001741  -0.01723034  1
  Na  Na51  1  0.24390179  0.24227053  0.67799456  1
  Na  Na52  1  0.26197990  0.26556584  0.15956989  1
  Na  Na53  1  0.24964073  0.74599121  0.83468215  1
  Na  Na54  1  0.74455194  0.73627570  0.17499251  1
  Na  Na55  1  0.26072714  0.75944071  0.49142176  1
  Na  Na56  1  0.23803573  0.23719940  0.49885518  1
  Na  Na57  1  0.75072136  0.75053830  0.49936498  1
  Na  Na58  1  0.73565334  0.24408279  0.17529975  1
  Na  Na59  1  0.75662288  0.75116105  0.82973759  1
  Na  Na60  1  0.23499155  0.73393055  0.17211980  1
  Na  Na61  1  0.74464208  0.24990517  0.83063167  1
  Fe  Fe62  1  0.47059392  0.30128208  0.11903289  1
  Fe  Fe63  1  0.96245096  0.80550108  0.77919708  1
  Fe  Fe64  1  0.46581940  0.31405012  0.79100047  1
  Fe  Fe65  1  0.95880493  0.30500557  0.44966217  1
  Fe  Fe66  1  0.96655936  0.80353305  0.44783831  1
  Fe  Fe67  1  0.47034384  0.30448039  0.45091711  1
  Fe  Fe68  1  0.46096795  0.81162772  0.12038770  1
  Fe  Fe69  1  0.96213402  0.30594319  0.78279496  1
  Fe  Fe70  1  0.96210857  0.30810392  0.12112438  1
  Fe  Fe71  1  0.46639155  0.81153497  0.79284380  1
  Fe  Fe72  1  0.20470207  0.52631045  0.04398051  1
  Fe  Fe73  1  0.69401866  0.03412883  0.38629087  1
  Fe  Fe74  1  0.69398952  0.03158513  0.71487171  1
  Fe  Fe75  1  0.20358087  0.52900760  0.37600145  1
  Fe  Fe76  1  0.19646798  0.53064031  0.71291190  1
  Fe  Fe77  1  0.68945364  0.53887241  0.38002470  1
  Fe  Fe78  1  0.69278681  0.03275903  0.04831906  1
  Fe  Fe79  1  0.68384308  0.53885827  0.70578352  1
  Fe  Fe80  1  0.19201197  0.04095956  0.71637836  1
  Fe  Fe81  1  0.19115667  0.03859631  0.04757168  1
  Fe  Fe82  1  0.03219728  0.19066278  0.87995746  1
  Fe  Fe83  1  0.53337733  0.70073195  0.54879489  1
  Fe  Fe84  1  0.54103420  0.19218425  0.87824095  1
  Fe  Fe85  1  0.03880568  0.68920155  0.54143371  1
  Fe  Fe86  1  0.03359983  0.69279141  0.87764996  1
  Fe  Fe87  1  0.53776781  0.18883208  0.54741585  1
  Fe  Fe88  1  0.03173084  0.18830266  0.54390534  1
  Fe  Fe89  1  0.53691945  0.69453837  0.88567055  1
  Fe  Fe90  1  0.53338398  0.69382120  0.21695038  1
  Fe  Fe91  1  0.03056359  0.19053271  0.21696088  1
  Fe  Fe92  1  0.81408400  0.96240497  0.95741862  1
  Fe  Fe93  1  0.81441645  0.96168579  0.62362534  1
  Fe  Fe94  1  0.30030322  0.97314345  0.29029143  1
  Fe  Fe95  1  0.80108762  0.47448324  0.95902167  1
  Fe  Fe96  1  0.30785641  0.45855147  0.61695090  1
  Fe  Fe97  1  0.80716077  0.96271721  0.28906846  1
  Fe  Fe98  1  0.80209038  0.46432359  0.61480348  1
  Fe  Fe99  1  0.80471055  0.47180891  0.28414724  1
  Fe  Fe100  1  0.30271356  0.96959485  0.61403461  1
  Fe  Fe101  1  0.30474890  0.96784587  0.95194884  1
  S  S102  1  0.35474186  0.14218568  0.07755628  1
  S  S103  1  0.36219439  0.14109599  0.41515346  1
  S  S104  1  0.36209140  0.14033188  0.74904011  1
  S  S105  1  0.36346829  0.64338642  0.08689102  1
  S  S106  1  0.36037109  0.64446629  0.42418731  1
  S  S107  1  0.36168504  0.64132724  0.75199724  1
  S  S108  1  0.85706966  0.14082825  0.08430360  1
  S  S109  1  0.85500982  0.14052176  0.41869076  1
  S  S110  1  0.85845339  0.13984385  0.75005199  1
  S  S111  1  0.85178823  0.64830638  0.07748573  1
  S  S112  1  0.86201683  0.63935032  0.41907903  1
  S  S113  1  0.85867766  0.63758094  0.74558853  1
  S  S114  1  0.13594361  0.35524547  0.25158288  1
  S  S115  1  0.13625582  0.35811068  0.58127128  1
  S  S116  1  0.13379848  0.35718105  0.91694790  1
  S  S117  1  0.14539570  0.86284551  0.24127047  1
  S  S118  1  0.14097544  0.86166440  0.58381031  1
  S  S119  1  0.13988583  0.86072418  0.91457504  1
  S  S120  1  0.64279348  0.36321240  0.24933849  1
  S  S121  1  0.63993321  0.35944155  0.58399127  1
  S  S122  1  0.64340847  0.35720769  0.91150178  1
  S  S123  1  0.63598665  0.86262906  0.25237792  1
  S  S124  1  0.64752234  0.85762281  0.58689421  1
  S  S125  1  0.64374824  0.85914132  0.91849888  1
  S  S126  1  0.06472613  0.17138150  0.04418298  1
  S  S127  1  0.05809149  0.16769271  0.37654261  1
  S  S128  1  0.06540058  0.17288763  0.70862502  1
  S  S129  1  0.07518831  0.66046538  0.03424220  1
  S  S130  1  0.07279662  0.66935511  0.37557245  1
  S  S131  1  0.06827479  0.66616805  0.70532600  1
  S  S132  1  0.57015263  0.17030364  0.03821037  1
  S  S133  1  0.56286057  0.15938215  0.37525417  1
  S  S134  1  0.56536987  0.16063479  0.70414036  1
  S  S135  1  0.56565056  0.67785800  0.04848524  1
  S  S136  1  0.56522743  0.66748833  0.37804607  1
  S  S137  1  0.56497946  0.67457450  0.71387223  1
  S  S138  1  0.33672941  0.43304046  0.12414754  1
  S  S139  1  0.33100239  0.42620631  0.45940130  1
  S  S140  1  0.33543675  0.43575698  0.78723637  1
  S  S141  1  0.32643054  0.93627382  0.12283764  1
  S  S142  1  0.33128416  0.93664740  0.45504289  1
  S  S143  1  0.32589427  0.93347063  0.78884153  1
  S  S144  1  0.83379924  0.43332621  0.12608109  1
  S  S145  1  0.82503708  0.43190566  0.45489073  1
  S  S146  1  0.82761547  0.43312546  0.79119324  1
  S  S147  1  0.83041677  0.93610511  0.12587664  1
  S  S148  1  0.82853703  0.92966773  0.46228127  1
  S  S149  1  0.83326815  0.93327176  0.79460274  1
  S  S150  1  0.43894851  0.33116267  0.28993346  1
  S  S151  1  0.43163045  0.32360639  0.62201188  1
  S  S152  1  0.44191624  0.32584332  0.95470116  1
  S  S153  1  0.42830876  0.83949818  0.29186150  1
  S  S154  1  0.43348228  0.83587193  0.63092270  1
  S  S155  1  0.43121484  0.83492888  0.95986170  1
  S  S156  1  0.92579575  0.33049941  0.28962128  1
  S  S157  1  0.93228848  0.33228670  0.62587081  1
  S  S158  1  0.92414906  0.32992604  0.95668792  1
  S  S159  1  0.93212350  0.83556451  0.29288236  1
  S  S160  1  0.93748114  0.82819747  0.62066496  1
  S  S161  1  0.93911920  0.83190660  0.95283262  1
  S  S162  1  0.17092858  0.07199324  0.20816139  1
  S  S163  1  0.16485042  0.06559687  0.54395922  1
  S  S164  1  0.16764532  0.06971448  0.87755313  1
  S  S165  1  0.17785403  0.55969397  0.21303440  1
  S  S166  1  0.17538195  0.56518331  0.54377013  1
  S  S167  1  0.16917508  0.56755510  0.87140626  1
  S  S168  1  0.66731132  0.06156664  0.21116337  1
  S  S169  1  0.67119271  0.06209761  0.54641431  1
  S  S170  1  0.67419642  0.06469787  0.87656259  1
  S  S171  1  0.66338382  0.56720882  0.20815210  1
  S  S172  1  0.66674728  0.56967231  0.53986840  1
  S  S173  1  0.67102509  0.56905232  0.87033731  1
  O  O174  1  0.36580679  0.22121351  0.07019899  1
  O  O175  1  0.37655456  0.21769073  0.40345742  1
  O  O176  1  0.37415119  0.22027883  0.74483258  1
  O  O177  1  0.36711431  0.72201598  0.07480767  1
  O  O178  1  0.35885876  0.72294739  0.41731471  1
  O  O179  1  0.36890372  0.72142880  0.74514818  1
  O  O180  1  0.86775266  0.21896617  0.07445402  1
  O  O181  1  0.86134792  0.21980199  0.41003914  1
  O  O182  1  0.86653731  0.21873694  0.74054601  1
  O  O183  1  0.87131246  0.71561579  0.05641544  1
  O  O184  1  0.87147550  0.71916567  0.41461522  1
  O  O185  1  0.87012641  0.71475305  0.73577131  1
  O  O186  1  0.27371749  0.13494518  0.08251222  1
  O  O187  1  0.28880783  0.13788827  0.43060667  1
  O  O188  1  0.28443270  0.13263513  0.75961196  1
  O  O189  1  0.28184845  0.63017405  0.08823498  1
  O  O190  1  0.28381932  0.62553403  0.43575862  1
  O  O191  1  0.28142617  0.62985902  0.75649907  1
  O  O192  1  0.77772704  0.13452738  0.09250640  1
  O  O193  1  0.77688766  0.12954086  0.42772583  1
  O  O194  1  0.77994527  0.13100790  0.75915714  1
  O  O195  1  0.76916977  0.64243671  0.07340655  1
  O  O196  1  0.78488809  0.62926660  0.43085690  1
  O  O197  1  0.77909619  0.62899654  0.75150972  1
  O  O198  1  0.11935488  0.28126813  0.26773261  1
  O  O199  1  0.12621764  0.27789227  0.58613321  1
  O  O200  1  0.12004467  0.27944086  0.92712210  1
  O  O201  1  0.14470258  0.78127688  0.23982662  1
  O  O202  1  0.13323110  0.78327851  0.59388354  1
  O  O203  1  0.13145344  0.78126303  0.92188779  1
  O  O204  1  0.64103951  0.28559269  0.25761878  1
  O  O205  1  0.62957426  0.28234027  0.59619889  1
  O  O206  1  0.64217002  0.27240905  0.90913163  1
  O  O207  1  0.62178640  0.78518214  0.26083548  1
  O  O208  1  0.63382033  0.77931904  0.59386228  1
  O  O209  1  0.63433068  0.77949429  0.92542899  1
  O  O210  1  0.21325684  0.35512360  0.24337052  1
  O  O211  1  0.21281640  0.36510932  0.56798369  1
  O  O212  1  0.20878820  0.36206985  0.90471882  1
  O  O213  1  0.22790780  0.88039028  0.23464539  1
  O  O214  1  0.22046494  0.86999059  0.57608787  1
  O  O215  1  0.21929273  0.86965310  0.90699346  1
  O  O216  1  0.71924661  0.37885423  0.23692637  1
  O  O217  1  0.72128817  0.36783097  0.58167064  1
  O  O218  1  0.72265135  0.37437280  0.90451506  1
  O  O219  1  0.71385498  0.86713648  0.24163964  1
  O  O220  1  0.73047420  0.86643838  0.58794436  1
  O  O221  1  0.72331986  0.86861198  0.91123081  1
  O  O222  1  0.41147526  0.13025354  0.14306100  1
  O  O223  1  0.42639074  0.12696752  0.47735709  1
  O  O224  1  0.42269579  0.12520266  0.81282225  1
  O  O225  1  0.41689680  0.64638124  0.16240051  1
  O  O226  1  0.42146704  0.64111119  0.49533849  1
  O  O227  1  0.41936915  0.63515648  0.82169586  1
  O  O228  1  0.91499631  0.13305676  0.15259801  1
  O  O229  1  0.91475654  0.13489634  0.48729766  1
  O  O230  1  0.91766666  0.13453038  0.81912136  1
  O  O231  1  0.90268876  0.64630621  0.15077269  1
  O  O232  1  0.92311686  0.62795581  0.48470746  1
  O  O233  1  0.91683692  0.62985223  0.81469358  1
  O  O234  1  0.36214266  0.08332141  0.00785310  1
  O  O235  1  0.36258695  0.08001072  0.34316972  1
  O  O236  1  0.36592904  0.08304569  0.67777184  1
  O  O237  1  0.38241049  0.58448277  0.02734820  1
  O  O238  1  0.37451032  0.58613644  0.36086710  1
  O  O239  1  0.37363656  0.58299258  0.68568250  1
  O  O240  1  0.86382064  0.08135158  0.01611012  1
  O  O241  1  0.86286140  0.08243159  0.35078698  1
  O  O242  1  0.86616254  0.08074900  0.68259557  1
  O  O243  1  0.86776064  0.57659735  0.01741868  1
  O  O244  1  0.86641812  0.58249590  0.34834711  1
  O  O245  1  0.86892144  0.57592337  0.67936338  1
  O  O246  1  0.07676768  0.36108748  0.18181720  1
  O  O247  1  0.07414424  0.37155574  0.51716737  1
  O  O248  1  0.07079861  0.36837560  0.85137245  1
  O  O249  1  0.08898338  0.87667529  0.17588601  1
  O  O250  1  0.08179015  0.86948086  0.51624272  1
  O  O251  1  0.08110032  0.86868080  0.84630756  1
  O  O252  1  0.58039540  0.36996735  0.18239168  1
  O  O253  1  0.58496892  0.36328577  0.51258938  1
  O  O254  1  0.58466265  0.36338007  0.84185270  1
  O  O255  1  0.57651454  0.87523674  0.18642688  1
  O  O256  1  0.59433664  0.86912472  0.51930670  1
  O  O257  1  0.58550679  0.86671225  0.85008396  1
  O  O258  1  0.12848766  0.42111984  0.31635417  1
  O  O259  1  0.13376719  0.41554499  0.65235691  1
  O  O260  1  0.12789927  0.41793897  0.98567518  1
  O  O261  1  0.13832880  0.91576913  0.31134600  1
  O  O262  1  0.13286805  0.92185689  0.65147655  1
  O  O263  1  0.13131863  0.91977699  0.98231098  1
  O  O264  1  0.63422129  0.42245754  0.31752217  1
  O  O265  1  0.62839283  0.42064510  0.64878140  1
  O  O266  1  0.63247521  0.40684043  0.97958405  1
  O  O267  1  0.63154674  0.92326032  0.32152981  1
  O  O268  1  0.63593692  0.91669386  0.65488700  1
  O  O269  1  0.63551286  0.91670981  0.98675421  1
  O  O270  1  0.02708780  0.19649512  0.10458448  1
  O  O271  1  0.02102898  0.20413894  0.43789451  1
  O  O272  1  0.02944148  0.20199658  0.77048611  1
  O  O273  1  0.04434664  0.68288258  0.09610169  1
  O  O274  1  0.03958268  0.70193080  0.44079471  1
  O  O275  1  0.03153099  0.69677296  0.76591616  1
  O  O276  1  0.53134905  0.19873216  0.09588593  1
  O  O277  1  0.53901397  0.20012770  0.44391097  1
  O  O278  1  0.53127092  0.19244380  0.76582757  1
  O  O279  1  0.52667130  0.71106686  0.10827489  1
  O  O280  1  0.53114751  0.68968473  0.43924200  1
  O  O281  1  0.52735589  0.70390310  0.77481176  1
  O  O282  1  0.30163951  0.46281998  0.05997476  1
  O  O283  1  0.30112804  0.46235502  0.40027634  1
  O  O284  1  0.30006718  0.46706297  0.72072377  1
  O  O285  1  0.29827423  0.97570269  0.06352152  1
  O  O286  1  0.30370009  0.97074902  0.39255550  1
  O  O287  1  0.29819475  0.97004459  0.72781703  1
  O  O288  1  0.80899199  0.46238758  0.06151351  1
  O  O289  1  0.79892878  0.46900216  0.39464510  1
  O  O290  1  0.80003841  0.46984667  0.73071157  1
  O  O291  1  0.79690758  0.97383727  0.06427550  1
  O  O292  1  0.79772822  0.96600540  0.40117645  1
  O  O293  1  0.80319672  0.97066510  0.73424642  1
  O  O294  1  0.46855920  0.29922009  0.22598531  1
  O  O295  1  0.46771603  0.29493817  0.56070833  1
  O  O296  1  0.48046233  0.29169778  0.89351782  1
  O  O297  1  0.45803549  0.81104174  0.22590319  1
  O  O298  1  0.47344611  0.81037125  0.57431049  1
  O  O299  1  0.47030532  0.80542550  0.90051911  1
  O  O300  1  0.96065265  0.29686403  0.22782739  1
  O  O301  1  0.96644348  0.30081222  0.56391500  1
  O  O302  1  0.95956824  0.29988555  0.89498460  1
  O  O303  1  0.97023026  0.82533963  0.23650427  1
  O  O304  1  0.97595276  0.79824285  0.56143671  1
  O  O305  1  0.96922734  0.79898270  0.88619983  1
  O  O306  1  0.20558012  0.03767993  0.26838668  1
  O  O307  1  0.20056079  0.03448886  0.61015737  1
  O  O308  1  0.19731294  0.02834447  0.93528317  1
  O  O309  1  0.21578587  0.52482829  0.27208612  1
  O  O310  1  0.20375763  0.52766625  0.60502452  1
  O  O311  1  0.19417497  0.53342092  0.93182760  1
  O  O312  1  0.70424695  0.02648590  0.27250289  1
  O  O313  1  0.70242766  0.02666286  0.60818406  1
  O  O314  1  0.70079053  0.02878744  0.93770845  1
  O  O315  1  0.70051683  0.53956445  0.27592180  1
  O  O316  1  0.69801047  0.53122172  0.60074866  1
  O  O317  1  0.69968666  0.52997013  0.92751663  1
  O  O318  1  0.08318554  0.08879728  0.03449524  1
  O  O319  1  0.07066101  0.08796868  0.37373760  1
  O  O320  1  0.08360983  0.09113986  0.70254510  1
  O  O321  1  0.09605530  0.57769784  0.02085440  1
  O  O322  1  0.10279531  0.59357590  0.37993481  1
  O  O323  1  0.08272307  0.58292523  0.69835834  1
  O  O324  1  0.59215686  0.09067092  0.03955239  1
  O  O325  1  0.58602259  0.08031369  0.38139402  1
  O  O326  1  0.58144578  0.07805783  0.69998077  1
  O  O327  1  0.58217680  0.59911398  0.04619330  1
  O  O328  1  0.57949011  0.58246852  0.36173922  1
  O  O329  1  0.57784570  0.59143252  0.70621861  1
  O  O330  1  0.41302291  0.40289750  0.11763782  1
  O  O331  1  0.41191568  0.40725624  0.46203907  1
  O  O332  1  0.41641552  0.41818292  0.78601259  1
  O  O333  1  0.40989180  0.92306620  0.13161638  1
  O  O334  1  0.41426223  0.92560868  0.46780763  1
  O  O335  1  0.40758180  0.91558078  0.79579679  1
  O  O336  1  0.91805393  0.41751610  0.14135289  1
  O  O337  1  0.90622805  0.41045615  0.46178248  1
  O  O338  1  0.91127262  0.41734736  0.79875222  1
  O  O339  1  0.91106321  0.92397005  0.13034419  1
  O  O340  1  0.90867145  0.90854929  0.46589521  1
  O  O341  1  0.91416915  0.91407231  0.79676943  1
  O  O342  1  0.43494206  0.41585606  0.30573559  1
  O  O343  1  0.41542637  0.40614587  0.63078985  1
  O  O344  1  0.42765758  0.40500436  0.95585169  1
  O  O345  1  0.40248271  0.92090769  0.29372904  1
  O  O346  1  0.41296488  0.91798291  0.63554050  1
  O  O347  1  0.41110289  0.91539779  0.96331659  1
  O  O348  1  0.90866514  0.41109749  0.29148517  1
  O  O349  1  0.91154901  0.41313373  0.62764729  1
  O  O350  1  0.90424758  0.41048290  0.95897838  1
  O  O351  1  0.90951757  0.91859551  0.31209320  1
  O  O352  1  0.92142731  0.91018660  0.62565611  1
  O  O353  1  0.92278420  0.91507121  0.95826541  1
  O  O354  1  0.08951636  0.08825947  0.20703563  1
  O  O355  1  0.08533892  0.08631505  0.54791030  1
  O  O356  1  0.08593365  0.08506520  0.87523566  1
  O  O357  1  0.09522835  0.56545317  0.20940969  1
  O  O358  1  0.09396276  0.58367931  0.54001317  1
  O  O359  1  0.08591273  0.58618764  0.85776467  1
  O  O360  1  0.58575494  0.07091155  0.20772127  1
  O  O361  1  0.58875555  0.07814737  0.54091622  1
  O  O362  1  0.59261671  0.08422427  0.86730852  1
  O  O363  1  0.58301299  0.58852927  0.21022992  1
  O  O364  1  0.58725678  0.59001649  0.53895728  1
  O  O365  1  0.59007325  0.58964670  0.86716218  1
  O  O366  1  0.13445068  0.22527956  0.06206506  1
  O  O367  1  0.12999791  0.21946026  0.39329958  1
  O  O368  1  0.13533356  0.22512763  0.72329975  1
  O  O369  1  0.14524413  0.71416332  0.04707666  1
  O  O370  1  0.13785334  0.72769159  0.38701282  1
  O  O371  1  0.14105955  0.71661560  0.72291488  1
  O  O372  1  0.64075504  0.22369056  0.05326590  1
  O  O373  1  0.62906345  0.20808251  0.37690954  1
  O  O374  1  0.63759067  0.21028525  0.71771813  1
  O  O375  1  0.63578765  0.73262140  0.06579547  1
  O  O376  1  0.63878979  0.71683936  0.39657404  1
  O  O377  1  0.63880034  0.72374439  0.73413923  1
  O  O378  1  0.28168598  0.36602894  0.11584789  1
  O  O379  1  0.27911272  0.35529157  0.44620020  1
  O  O380  1  0.28650608  0.36309028  0.77226009  1
  O  O381  1  0.27668487  0.86240956  0.10063542  1
  O  O382  1  0.28009322  0.86439425  0.43817207  1
  O  O383  1  0.27351465  0.86160487  0.77146944  1
  O  O384  1  0.78346499  0.36113322  0.11188612  1
  O  O385  1  0.77069004  0.36337470  0.43984617  1
  O  O386  1  0.77741398  0.35917477  0.77146570  1
  O  O387  1  0.77864724  0.86410046  0.10782035  1
  O  O388  1  0.77456443  0.86272382  0.45153323  1
  O  O389  1  0.78133786  0.86386578  0.78152994  1
  O  O390  1  0.36213601  0.28635416  0.27403729  1
  O  O391  1  0.35922110  0.27250878  0.60489505  1
  O  O392  1  0.37093350  0.27273034  0.93619861  1
  O  O393  1  0.36127613  0.78541239  0.28169343  1
  O  O394  1  0.36246345  0.78279252  0.61396516  1
  O  O395  1  0.36111392  0.78049318  0.94225262  1
  O  O396  1  0.85506171  0.27881028  0.27653076  1
  O  O397  1  0.86417099  0.27979073  0.61550960  1
  O  O398  1  0.85379701  0.27647938  0.94158464  1
  O  O399  1  0.86292024  0.77944333  0.27334958  1
  O  O400  1  0.86638456  0.77664867  0.60374702  1
  O  O401  1  0.86621940  0.78336249  0.93770838  1
  O  O402  1  0.21981744  0.14343853  0.21833165  1
  O  O403  1  0.21561062  0.13796599  0.55861773  1
  O  O404  1  0.21896358  0.14114247  0.89590173  1
  O  O405  1  0.22213694  0.63683077  0.22947005  1
  O  O406  1  0.22734185  0.63750099  0.56357205  1
  O  O407  1  0.22165835  0.63893827  0.88658860  1
  O  O408  1  0.71527789  0.13585746  0.22702890  1
  O  O409  1  0.72127281  0.13409747  0.56231644  1
  O  O410  1  0.72779959  0.13519554  0.89343385  1
  O  O411  1  0.71383241  0.63551708  0.21609074  1
  O  O412  1  0.72133725  0.63754406  0.55417375  1
  O  O413  1  0.72394001  0.63965437  0.88540193  1
  O  O414  1  0.49990275  0.32479451  0.02730754  1
  O  O415  1  0.49540700  0.31869943  0.35888962  1
  O  O416  1  0.49102409  0.32223040  0.69331827  1
  O  O417  1  0.48956165  0.83909754  0.03336957  1
  O  O418  1  0.49382383  0.85184842  0.36081667  1
  O  O419  1  0.49071609  0.84250832  0.70681662  1
  O  O420  1  0.98389673  0.33311467  0.02905249  1
  O  O421  1  0.98601859  0.33375393  0.36215193  1
  O  O422  1  0.99419831  0.34127300  0.69952027  1
  O  O423  1  1.00116346  0.83335735  0.02081348  1
  O  O424  1  0.99123202  0.83163191  0.36516274  1
  O  O425  1  0.99523438  0.82954148  0.69424292  1
  O  O426  1  0.16234459  0.01146529  0.13312898  1
  O  O427  1  0.15880476  0.00472197  0.47491239  1
  O  O428  1  0.16482855  0.01280495  0.80330002  1
  O  O429  1  0.17982745  0.50749306  0.13806610  1
  O  O430  1  0.17494164  0.50703360  0.47238166  1
  O  O431  1  0.16915794  0.50707101  0.79921041  1
  O  O432  1  0.66769388  0.00555773  0.13743922  1
  O  O433  1  0.66975473  0.00232133  0.47486615  1
  O  O434  1  0.67349646  0.00453542  0.80485691  1
  O  O435  1  0.65211067  0.50183420  0.13949027  1
  O  O436  1  0.66147714  0.50831613  0.46713633  1
  O  O437  1  0.66360357  0.51091785  0.79454450  1
  O  O438  1  -0.00037950  0.16969247  0.30422565  1
  O  O439  1  0.00357105  0.17070394  0.63719977  1
  O  O440  1  0.00479697  0.16980113  0.97168268  1
  O  O441  1  0.00833099  0.65475422  0.30543269  1
  O  O442  1  0.01063117  0.66566330  0.63251687  1
  O  O443  1  0.01329702  0.66042827  0.96214407  1
  O  O444  1  0.49532900  0.14278801  0.30722855  1
  O  O445  1  0.50584556  0.15875155  0.63182809  1
  O  O446  1  0.51321781  0.16142136  0.96252086  1
  O  O447  1  0.50657560  0.67518274  0.30894977  1
  O  O448  1  0.50870217  0.67874061  0.64284833  1
  O  O449  1  0.50802454  0.67770316  0.97458824  1
  O  O450  1  0.35566409  0.49570360  0.19639730  1
  O  O451  1  0.33641253  0.48557161  0.53411448  1
  O  O452  1  0.33794186  0.49666396  0.85541558  1
  O  O453  1  0.32338530  0.99267816  0.19507072  1
  O  O454  1  0.32449760  0.99535229  0.52544665  1
  O  O455  1  0.32524776  0.99228340  0.86018632  1
  O  O456  1  0.82968876  0.49571698  0.19445126  1
  O  O457  1  0.82991446  0.49287346  0.52796873  1
  O  O458  1  0.82744535  0.48967036  0.86394687  1
  O  O459  1  0.82835526  0.99340350  0.19829383  1
  O  O460  1  0.83674653  0.99302983  0.53561771  1
  O  O461  1  0.83955340  0.99410459  0.86812514  1
