# generated using pymatgen
data_Na31Fe20(SO4)36
_symmetry_space_group_name_H-M   'P 1'
_cell_length_a   18.07411781
_cell_length_b   18.07935226
_cell_length_c   19.70804210
_cell_angle_alpha   107.58802610
_cell_angle_beta   107.57563929
_cell_angle_gamma   90.70271372
_symmetry_Int_Tables_number   1
_chemical_formula_structural   Na31Fe20(SO4)36
_chemical_formula_sum   'Na62 Fe40 S72 O288'
_cell_volume   5814.26326538
_cell_formula_units_Z   2
loop_
 _symmetry_equiv_pos_site_id
 _symmetry_equiv_pos_as_xyz
  1  'x, y, z'
loop_
 _atom_site_type_symbol
 _atom_site_label
 _atom_site_symmetry_multiplicity
 _atom_site_fract_x
 _atom_site_fract_y
 _atom_site_fract_z
 _atom_site_occupancy
  Na  Na0  1  0.13951485  0.37578987  0.09990710  1
  Na  Na1  1  0.16136777  0.37622006  0.45040616  1
  Na  Na2  1  0.14147587  0.35512089  0.74174905  1
  Na  Na3  1  0.14146702  0.86731277  0.08619529  1
  Na  Na4  1  0.12148763  0.86576803  0.40025905  1
  Na  Na5  1  0.13881458  0.86726195  0.75045614  1
  Na  Na6  1  0.63961230  0.31354421  0.05637859  1
  Na  Na7  1  0.63506779  0.37119859  0.40779334  1
  Na  Na8  1  0.63532731  0.36956493  0.75390052  1
  Na  Na9  1  0.63297760  0.86198625  0.08494639  1
  Na  Na10  1  0.62789996  0.86143684  0.41412632  1
  Na  Na11  1  0.62530644  0.86491171  0.75235316  1
  Na  Na12  1  0.36750578  0.14254814  0.25582708  1
  Na  Na13  1  0.33883411  0.16903237  0.58263749  1
  Na  Na14  1  0.36617086  0.13490203  0.90992923  1
  Na  Na15  1  0.36808170  0.62464337  0.24654537  1
  Na  Na16  1  0.36733679  0.63759458  0.59290349  1
  Na  Na17  1  0.37154522  0.64023906  0.92406012  1
  Na  Na18  1  0.85158511  0.12514957  0.22907191  1
  Na  Na19  1  0.86239032  0.13074816  0.57920193  1
  Na  Na20  1  0.85494165  0.14784655  0.93040439  1
  Na  Na21  1  0.87372889  0.63158548  0.25405576  1
  Na  Na22  1  0.86402953  0.62452062  0.57199278  1
  Na  Na23  1  0.87091656  0.63632283  0.91929869  1
  Na  Na24  1  0.45399037  0.50787291  0.74525984  1
  Na  Na25  1  0.98408719  0.49438217  0.41966254  1
  Na  Na26  1  0.98623768  0.53215839  0.14666177  1
  Na  Na27  1  0.46106595  0.51182849  0.39437239  1
  Na  Na28  1  0.51046548  -0.01613929  0.09002879  1
  Na  Na29  1  0.48540423  0.02898104  0.76184974  1
  Na  Na30  1  1.02446079  0.49173873  0.71445149  1
  Na  Na31  1  0.98694269  -0.00228054  0.12114808  1
  Na  Na32  1  0.99000490  0.00781210  0.74863201  1
  Na  Na33  1  0.50903836  0.96596416  0.25216673  1
  Na  Na34  1  0.50247142  0.47401865  0.93413618  1
  Na  Na35  1  0.53499745  0.48813611  0.24776809  1
  Na  Na36  1  0.48306239  1.01695783  0.57019769  1
  Na  Na37  1  0.01218851  0.49258945  0.91959745  1
  Na  Na38  1  0.53227304  0.98192142  0.92010852  1
  Na  Na39  1  -0.01640757  1.00819673  0.93264775  1
  Na  Na40  1  0.49872827  0.49933927  0.57867724  1
  Na  Na41  1  0.01079369  0.99016848  0.56545714  1
  Na  Na42  1  0.75611002  0.25123139  0.31686997  1
  Na  Na43  1  0.74311053  0.74498346  0.00384685  1
  Na  Na44  1  0.23770331  0.74508973  0.33089502  1
  Na  Na45  1  0.26640932  0.76424268  0.66371682  1
  Na  Na46  1  0.74474335  0.73836568  0.33912412  1
  Na  Na47  1  0.74248880  0.74107513  0.67130975  1
  Na  Na48  1  0.74601139  0.24715114  0.67081320  1
  Na  Na49  1  0.25461757  0.25708909  -0.00383234  1
  Na  Na50  1  0.26521688  0.75993878  -0.00074770  1
  Na  Na51  1  0.24245756  0.25468024  0.34900689  1
  Na  Na52  1  0.74453893  0.74436264  0.83919745  1
  Na  Na53  1  0.25929525  0.26525475  0.16939909  1
  Na  Na54  1  0.75556764  0.25574900  0.49249327  1
  Na  Na55  1  0.25754482  0.25700539  0.82107376  1
  Na  Na56  1  0.24751788  0.74522193  0.17012723  1
  Na  Na57  1  0.73956575  0.73301987  0.50261428  1
  Na  Na58  1  0.72618034  0.23899301  0.85225973  1
  Na  Na59  1  0.24978781  0.75579463  0.49634462  1
  Na  Na60  1  0.74744418  0.74550021  0.17114243  1
  Na  Na61  1  0.27353735  0.76374422  0.82756600  1
  Fe  Fe62  1  0.96382078  0.30633112  0.45153319  1
  Fe  Fe63  1  0.95811805  0.31401367  0.12344724  1
  Fe  Fe64  1  0.96239557  0.30624539  0.78593485  1
  Fe  Fe65  1  0.46809024  0.29993968  0.78242844  1
  Fe  Fe66  1  0.46459804  0.31000498  0.44978313  1
  Fe  Fe67  1  0.96923956  0.79892303  0.44893338  1
  Fe  Fe68  1  0.96895166  0.80672569  0.78702514  1
  Fe  Fe69  1  0.46067755  0.81242783  0.45328126  1
  Fe  Fe70  1  0.97360675  0.79819922  0.12666738  1
  Fe  Fe71  1  0.46976273  0.29842656  0.11514228  1
  Fe  Fe72  1  0.18804158  0.04094290  0.38028166  1
  Fe  Fe73  1  0.68980815  0.03168771  0.71586576  1
  Fe  Fe74  1  0.20450403  0.52760769  0.70772530  1
  Fe  Fe75  1  0.19840087  0.53130820  0.05233246  1
  Fe  Fe76  1  0.69296375  0.53498493  0.71084778  1
  Fe  Fe77  1  0.20243855  0.53123456  0.37524221  1
  Fe  Fe78  1  0.69082210  0.53636506  0.04480534  1
  Fe  Fe79  1  0.19137993  0.03703727  0.04797972  1
  Fe  Fe80  1  0.18934865  0.04020941  0.71401736  1
  Fe  Fe81  1  0.69437298  0.03334696  0.38521095  1
  Fe  Fe82  1  0.53376438  0.19093246  0.54308518  1
  Fe  Fe83  1  0.03733919  0.19013845  0.54536016  1
  Fe  Fe84  1  0.53751912  0.18174531  0.21024160  1
  Fe  Fe85  1  0.52871291  0.69744110  0.20843392  1
  Fe  Fe86  1  0.52933045  0.70316286  0.87741524  1
  Fe  Fe87  1  0.04142408  0.68921340  0.87793065  1
  Fe  Fe88  1  0.03420142  0.19991789  0.21949314  1
  Fe  Fe89  1  0.03122924  0.19595907  0.88490434  1
  Fe  Fe90  1  0.04177643  0.68924706  0.54525136  1
  Fe  Fe91  1  0.53151622  0.69572700  0.54577524  1
  Fe  Fe92  1  0.30326447  0.96942886  0.61674431  1
  Fe  Fe93  1  0.80634792  0.96222024  0.62002378  1
  Fe  Fe94  1  0.31196300  0.96799995  0.95497736  1
  Fe  Fe95  1  0.80375782  0.96602420  0.95968011  1
  Fe  Fe96  1  0.30934400  0.97015537  0.28617993  1
  Fe  Fe97  1  0.31124951  0.46405498  0.95757096  1
  Fe  Fe98  1  0.80483999  0.46713672  0.61675870  1
  Fe  Fe99  1  0.80937071  0.96332592  0.28872992  1
  Fe  Fe100  1  0.80603247  0.46538816  0.95163225  1
  Fe  Fe101  1  0.79497062  0.46515166  0.28304248  1
  S  S102  1  0.35328268  0.14248838  0.08448618  1
  S  S103  1  0.35812361  0.14277576  0.41795493  1
  S  S104  1  0.35344722  0.14227889  0.74069151  1
  S  S105  1  0.35823968  0.64050982  0.08348128  1
  S  S106  1  0.35724751  0.64928459  0.42071609  1
  S  S107  1  0.35784843  0.64175100  0.75149339  1
  S  S108  1  0.86928356  0.13624921  0.08361122  1
  S  S109  1  0.86091038  0.13847835  0.41819353  1
  S  S110  1  0.85797002  0.13848162  0.75311280  1
  S  S111  1  0.85633280  0.63924567  0.07888178  1
  S  S112  1  0.86398178  0.63576987  0.41717415  1
  S  S113  1  0.86339285  0.64068129  0.74763420  1
  S  S114  1  0.13565025  0.36365730  0.25272082  1
  S  S115  1  0.13191731  0.36262453  0.58708450  1
  S  S116  1  0.13827101  0.35965133  0.91527534  1
  S  S117  1  0.14331110  0.86650030  0.24560741  1
  S  S118  1  0.13850822  0.86321142  0.58562868  1
  S  S119  1  0.14223953  0.86117434  0.91618330  1
  S  S120  1  0.64056852  0.34973054  0.24135063  1
  S  S121  1  0.64282468  0.35731373  0.58063044  1
  S  S122  1  0.63860174  0.36245393  0.91513135  1
  S  S123  1  0.64231170  0.85865375  0.25479601  1
  S  S124  1  0.64154508  0.85752370  0.58210957  1
  S  S125  1  0.64516865  0.85744898  0.91924793  1
  S  S126  1  0.07104662  0.17532497  0.04468060  1
  S  S127  1  0.06905110  0.17816050  0.37909944  1
  S  S128  1  0.06002161  0.16757103  0.70915725  1
  S  S129  1  0.07124086  0.66861941  0.03918579  1
  S  S130  1  0.07445962  0.66826913  0.37509015  1
  S  S131  1  0.07772356  0.67354610  0.71232028  1
  S  S132  1  0.55177182  0.14624732  0.03940201  1
  S  S133  1  0.56836870  0.16673450  0.37578172  1
  S  S134  1  0.56660039  0.16673859  0.70514485  1
  S  S135  1  0.56883340  0.67033123  0.03906364  1
  S  S136  1  0.55685672  0.67007846  0.37480469  1
  S  S137  1  0.56861628  0.66945679  0.70737626  1
  S  S138  1  0.33410087  0.42884427  0.12458773  1
  S  S139  1  0.33963106  0.44266922  0.45811692  1
  S  S140  1  0.33442453  0.43042728  0.79621424  1
  S  S141  1  0.33187980  0.94315968  0.12500957  1
  S  S142  1  0.32124900  0.93496850  0.45371535  1
  S  S143  1  0.32954017  0.94512238  0.79103549  1
  S  S144  1  0.82299133  0.43251009  0.12045969  1
  S  S145  1  0.82861449  0.42832647  0.45459356  1
  S  S146  1  0.83176283  0.43488179  0.78975471  1
  S  S147  1  0.83498130  0.92327646  0.12773303  1
  S  S148  1  0.82993512  0.92710826  0.45940025  1
  S  S149  1  0.83428685  0.93067766  0.79214569  1
  S  S150  1  0.44400680  0.32771807  0.28774887  1
  S  S151  1  0.44601559  0.33621768  0.62367316  1
  S  S152  1  0.42909292  0.32411776  0.95310727  1
  S  S153  1  0.43022859  0.83266971  0.29252175  1
  S  S154  1  0.43468485  0.84097952  0.62513085  1
  S  S155  1  0.43631679  0.83508144  0.96060844  1
  S  S156  1  0.92666246  0.32891653  0.29231269  1
  S  S157  1  0.92610533  0.32680593  0.62489213  1
  S  S158  1  0.93174119  0.33423232  0.95767992  1
  S  S159  1  0.92903507  0.82473858  0.29017587  1
  S  S160  1  0.93321987  0.82700809  0.62297003  1
  S  S161  1  0.93625723  0.82819088  0.95819793  1
  S  S162  1  0.17153810  0.07572597  0.21218394  1
  S  S163  1  0.16143581  0.06502737  0.53858768  1
  S  S164  1  0.16190435  0.06850054  0.87451257  1
  S  S165  1  0.17708748  0.57239816  0.21482573  1
  S  S166  1  0.17582248  0.57382427  0.54104256  1
  S  S167  1  0.17320895  0.56428257  0.87549688  1
  S  S168  1  0.66935219  0.05697279  0.21444039  1
  S  S169  1  0.67095059  0.06471364  0.54612623  1
  S  S170  1  0.67009843  0.05817418  0.87364202  1
  S  S171  1  0.66896948  0.57185178  0.20753805  1
  S  S172  1  0.66558529  0.56464093  0.53996787  1
  S  S173  1  0.66888604  0.57078434  0.87170180  1
  O  O174  1  0.36372425  0.22318384  0.08082225  1
  O  O175  1  0.36910526  0.22114533  0.40853358  1
  O  O176  1  0.36587826  0.22117646  0.73407144  1
  O  O177  1  0.36427099  0.71726592  0.07480340  1
  O  O178  1  0.35868941  0.73189324  0.41986809  1
  O  O179  1  0.36040355  0.72045360  0.74499273  1
  O  O180  1  0.88349405  0.21273695  0.07158039  1
  O  O181  1  0.86621055  0.21882969  0.41194211  1
  O  O182  1  0.86689203  0.21700796  0.74402753  1
  O  O183  1  0.87113010  0.71659879  0.06949273  1
  O  O184  1  0.87625821  0.71319717  0.40545546  1
  O  O185  1  0.87354441  0.72002219  0.73998126  1
  O  O186  1  0.27378127  0.13557881  0.09307278  1
  O  O187  1  0.27874192  0.13450196  0.42460246  1
  O  O188  1  0.27189225  0.13548754  0.74567382  1
  O  O189  1  0.27984637  0.62688456  0.09375185  1
  O  O190  1  0.27652480  0.63232215  0.42473437  1
  O  O191  1  0.28094918  0.62673714  0.76377610  1
  O  O192  1  0.79683920  0.12864840  0.09841393  1
  O  O193  1  0.78496447  0.12859419  0.43328237  1
  O  O194  1  0.77825678  0.12828790  0.75801750  1
  O  O195  1  0.77332334  0.63514542  0.07951525  1
  O  O196  1  0.79004029  0.63283767  0.43238254  1
  O  O197  1  0.78366141  0.63329183  0.75494716  1
  O  O198  1  0.12419318  0.28754376  0.26658940  1
  O  O199  1  0.11661122  0.28739250  0.60126731  1
  O  O200  1  0.12772966  0.28031886  0.92218154  1
  O  O201  1  0.13981892  0.78916976  0.25399404  1
  O  O202  1  0.13027862  0.78618438  0.59747800  1
  O  O203  1  0.13501485  0.78192037  0.92405877  1
  O  O204  1  0.63338329  0.27081963  0.25094526  1
  O  O205  1  0.63505111  0.27694602  0.58608309  1
  O  O206  1  0.63453137  0.28562665  0.92383221  1
  O  O207  1  0.63104890  0.77950499  0.26283966  1
  O  O208  1  0.63197570  0.77614842  0.58552730  1
  O  O209  1  0.63479188  0.77307389  0.91749197  1
  O  O210  1  0.20735890  0.36622794  0.23386302  1
  O  O211  1  0.20730520  0.36984965  0.57729924  1
  O  O212  1  0.21711375  0.36729251  0.90734235  1
  O  O213  1  0.21967868  0.88046497  0.23193011  1
  O  O214  1  0.21847586  0.87119638  0.57924459  1
  O  O215  1  0.22087141  0.87225778  0.90797268  1
  O  O216  1  0.72218349  0.36220297  0.24104441  1
  O  O217  1  0.72188164  0.36791112  0.57263665  1
  O  O218  1  0.71598650  0.37679997  0.90289390  1
  O  O219  1  0.72375488  0.86535599  0.25109693  1
  O  O220  1  0.72113983  0.86546061  0.57403002  1
  O  O221  1  0.72719335  0.86428487  0.91392124  1
  O  O222  1  0.41101361  0.12864886  0.14961014  1
  O  O223  1  0.41556699  0.13505596  0.48703228  1
  O  O224  1  0.40899977  0.12907326  0.80584908  1
  O  O225  1  0.41814104  0.63297949  0.15133700  1
  O  O226  1  0.41419102  0.64235170  0.49091852  1
  O  O227  1  0.41925175  0.63554658  0.82083136  1
  O  O228  1  0.93544904  0.12570882  0.14815874  1
  O  O229  1  0.92337865  0.13016602  0.48406969  1
  O  O230  1  0.91588854  0.13204302  0.82282878  1
  O  O231  1  0.90852372  0.62990632  0.14767389  1
  O  O232  1  0.92874981  0.62677917  0.48235402  1
  O  O233  1  0.92174232  0.63265188  0.81566114  1
  O  O234  1  0.35587764  0.08694036  0.01251013  1
  O  O235  1  0.36722085  0.08367105  0.35037541  1
  O  O236  1  0.35901934  0.08437915  0.66975428  1
  O  O237  1  0.36479374  0.57978411  0.01532469  1
  O  O238  1  0.37174565  0.59683484  0.35501833  1
  O  O239  1  0.36794165  0.58295094  0.68591217  1
  O  O240  1  0.87546666  0.07490210  0.01412256  1
  O  O241  1  0.86380533  0.08170033  0.34771334  1
  O  O242  1  0.86995731  0.07850673  0.68681545  1
  O  O243  1  0.86502209  0.57846078  0.01129573  1
  O  O244  1  0.86694782  0.57430495  0.34815766  1
  O  O245  1  0.87038790  0.58182781  0.67904437  1
  O  O246  1  0.06915420  0.37426430  0.19054591  1
  O  O247  1  0.06958312  0.37073241  0.52029085  1
  O  O248  1  0.07896845  0.36833753  0.84721188  1
  O  O249  1  0.08082080  0.87245069  0.17801055  1
  O  O250  1  0.08008508  0.86955368  0.51632350  1
  O  O251  1  0.08282259  0.86831555  0.84769088  1
  O  O252  1  0.58653369  0.35215715  0.16760450  1
  O  O253  1  0.58349697  0.36746096  0.51419046  1
  O  O254  1  0.57728167  0.36987647  0.84715223  1
  O  O255  1  0.58575730  0.86928384  0.18874682  1
  O  O256  1  0.58314433  0.86967733  0.51650663  1
  O  O257  1  0.58940264  0.87062690  0.85380100  1
  O  O258  1  0.13870729  0.42552514  0.32509500  1
  O  O259  1  0.12526855  0.42582868  0.65587291  1
  O  O260  1  0.12977317  0.41882487  0.98321243  1
  O  O261  1  0.13589922  0.92624088  0.31358326  1
  O  O262  1  0.12793344  0.92432262  0.65151704  1
  O  O263  1  0.13261178  0.91943949  0.98393801  1
  O  O264  1  0.62342838  0.40906367  0.30257473  1
  O  O265  1  0.63751304  0.41454105  0.65083984  1
  O  O266  1  0.62966563  0.42334159  0.98199769  1
  O  O267  1  0.63434689  0.91732010  0.32434028  1
  O  O268  1  0.63679783  0.91284561  0.65279516  1
  O  O269  1  0.63903963  0.90952938  0.98962282  1
  O  O270  1  0.04399632  0.20880398  0.11036494  1
  O  O271  1  0.03137882  0.20696603  0.44033610  1
  O  O272  1  0.02267116  0.19609259  0.76988045  1
  O  O273  1  0.03210154  0.69580285  0.09626946  1
  O  O274  1  0.04423979  0.70098153  0.44218761  1
  O  O275  1  0.03641907  0.70154010  0.77085884  1
  O  O276  1  0.52130782  0.19193146  0.10504561  1
  O  O277  1  0.53068537  0.19832959  0.43586469  1
  O  O278  1  0.53127766  0.19770314  0.76464685  1
  O  O279  1  0.53633086  0.68954755  0.10118528  1
  O  O280  1  0.52169055  0.70799647  0.43698212  1
  O  O281  1  0.53391201  0.69128136  0.76754129  1
  O  O282  1  0.29960074  0.46138294  0.05911023  1
  O  O283  1  0.30358420  0.47639479  0.39584464  1
  O  O284  1  0.30627861  0.46657055  0.73659227  1
  O  O285  1  0.29450803  0.97590817  0.06111855  1
  O  O286  1  0.29413646  0.97076329  0.39233023  1
  O  O287  1  0.29163504  0.97839752  0.72774775  1
  O  O288  1  0.79522898  0.47321092  0.06125671  1
  O  O289  1  0.80345427  0.46330021  0.39456359  1
  O  O290  1  0.80367025  0.47176521  0.72887033  1
  O  O291  1  0.81706906  0.95965359  0.06806749  1
  O  O292  1  0.80274522  0.96656181  0.40104873  1
  O  O293  1  0.80291500  0.96603889  0.73046492  1
  O  O294  1  0.47685730  0.28625109  0.22604561  1
  O  O295  1  0.47741466  0.29613219  0.55890954  1
  O  O296  1  0.45974538  0.30311175  0.88946729  1
  O  O297  1  0.46869919  0.80154759  0.23524474  1
  O  O298  1  0.46985955  0.80824124  0.56224671  1
  O  O299  1  0.46868498  0.80436862  0.89809205  1
  O  O300  1  0.95993863  0.29797179  0.22880066  1
  O  O301  1  0.95688309  0.29516004  0.56130741  1
  O  O302  1  0.97001417  0.30179088  0.89724438  1
  O  O303  1  0.96574511  0.80150567  0.23097436  1
  O  O304  1  0.96873740  0.79795561  0.56165728  1
  O  O305  1  0.97385174  0.80036484  0.89719830  1
  O  O306  1  0.20346545  0.04019702  0.27309235  1
  O  O307  1  0.19316453  0.02763065  0.59923388  1
  O  O308  1  0.19304752  0.03336053  0.93549063  1
  O  O309  1  0.20292818  0.53491907  0.27530383  1
  O  O310  1  0.19793432  0.53905201  0.60133347  1
  O  O311  1  0.19964498  0.52753456  0.93656002  1
  O  O312  1  0.70375573  0.02695043  0.28130054  1
  O  O313  1  0.70076372  0.02789396  0.60747835  1
  O  O314  1  0.70683181  0.02478599  0.93408942  1
  O  O315  1  0.69731601  0.53064569  0.26360696  1
  O  O316  1  0.69887220  0.53156675  0.60519181  1
  O  O317  1  0.69715203  0.53338805  0.93174710  1
  O  O318  1  0.08706110  0.09236341  0.03772413  1
  O  O319  1  0.09084954  0.09930948  0.37743657  1
  O  O320  1  0.07490005  0.08390241  0.70191649  1
  O  O321  1  0.09234381  0.58754977  0.03382037  1
  O  O322  1  0.10796035  0.59363662  0.38004554  1
  O  O323  1  0.10001989  0.59487034  0.71145994  1
  O  O324  1  0.55863801  0.06651410  0.04460367  1
  O  O325  1  0.58767013  0.08634067  0.37415906  1
  O  O326  1  0.58175005  0.08334580  0.69976668  1
  O  O327  1  0.58620564  0.58683265  0.01991972  1
  O  O328  1  0.55991162  0.58726939  0.36848447  1
  O  O329  1  0.58739996  0.58628355  0.69290932  1
  O  O330  1  0.41098793  0.40133045  0.12143611  1
  O  O331  1  0.41803215  0.41817543  0.44981262  1
  O  O332  1  0.41606288  0.41045661  0.79904538  1
  O  O333  1  0.41387695  0.93550399  0.13094114  1
  O  O334  1  0.40273712  0.91560511  0.46114739  1
  O  O335  1  0.41206634  0.94123976  0.79832537  1
  O  O336  1  0.90621980  0.41869348  0.12543364  1
  O  O337  1  0.91154384  0.41101909  0.46537078  1
  O  O338  1  0.91396326  0.41643589  0.79700205  1
  O  O339  1  0.91625088  0.90055336  0.13876662  1
  O  O340  1  0.90998277  0.90483707  0.46472309  1
  O  O341  1  0.91784032  0.91636040  0.79666375  1
  O  O342  1  0.43956046  0.40897186  0.28918400  1
  O  O343  1  0.45111290  0.42031025  0.63288338  1
  O  O344  1  0.41338257  0.40808187  0.96954401  1
  O  O345  1  0.41192021  0.91355591  0.29232042  1
  O  O346  1  0.41339082  0.92180476  0.62413801  1
  O  O347  1  0.41176518  0.91534941  0.95905872  1
  O  O348  1  0.90091838  0.40680696  0.29280967  1
  O  O349  1  0.90845890  0.40875665  0.63124964  1
  O  O350  1  0.91656120  0.41576404  0.95906615  1
  O  O351  1  0.90694939  0.90518365  0.30202364  1
  O  O352  1  0.91569733  0.90962445  0.62982759  1
  O  O353  1  0.91861343  0.91039414  0.96497959  1
  O  O354  1  0.09065134  0.09385776  0.20888453  1
  O  O355  1  0.07925387  0.07984547  0.53725034  1
  O  O356  1  0.07914980  0.08518070  0.87052605  1
  O  O357  1  0.10051870  0.59839409  0.20960315  1
  O  O358  1  0.09029421  0.58443295  0.52204303  1
  O  O359  1  0.08857101  0.57802779  0.86448929  1
  O  O360  1  0.58780348  0.07590889  0.21401021  1
  O  O361  1  0.59009767  0.08333021  0.54111745  1
  O  O362  1  0.58843301  0.06764414  0.86900061  1
  O  O363  1  0.59101531  0.59600713  0.21120988  1
  O  O364  1  0.58582462  0.58756170  0.54040715  1
  O  O365  1  0.58859329  0.59132147  0.86510267  1
  O  O366  1  0.14046382  0.22445159  0.05140069  1
  O  O367  1  0.13690695  0.23341589  0.39427074  1
  O  O368  1  0.13241151  0.21775235  0.72825692  1
  O  O369  1  0.14127579  0.72267936  0.05466847  1
  O  O370  1  0.13820028  0.72739128  0.38515129  1
  O  O371  1  0.14632393  0.72999896  0.73065216  1
  O  O372  1  0.62630672  0.18781791  0.05083432  1
  O  O373  1  0.63901935  0.21924193  0.39108414  1
  O  O374  1  0.64010292  0.21568490  0.72014056  1
  O  O375  1  0.64126675  0.72339711  0.05891813  1
  O  O376  1  0.63455120  0.71433423  0.39500236  1
  O  O377  1  0.64072039  0.72234873  0.72498064  1
  O  O378  1  0.27694893  0.36134376  0.11055868  1
  O  O379  1  0.28923946  0.37320726  0.44845990  1
  O  O380  1  0.28160922  0.36179201  0.78408928  1
  O  O381  1  0.28486551  0.86847176  0.10882321  1
  O  O382  1  0.26723572  0.86537774  0.43823826  1
  O  O383  1  0.28412926  0.86847838  0.77276163  1
  O  O384  1  0.77424167  0.35994468  0.10056492  1
  O  O385  1  0.77670828  0.35613602  0.43791532  1
  O  O386  1  0.77923183  0.36392425  0.77252105  1
  O  O387  1  0.77867632  0.85457319  0.11049585  1
  O  O388  1  0.77470461  0.85831179  0.44359845  1
  O  O389  1  0.78553540  0.85775253  0.77634198  1
  O  O390  1  0.36765665  0.28465532  0.27417198  1
  O  O391  1  0.36787025  0.29962044  0.60757950  1
  O  O392  1  0.35523442  0.27352540  0.93558179  1
  O  O393  1  0.35843337  0.78274109  0.27954574  1
  O  O394  1  0.36224584  0.78905244  0.60785859  1
  O  O395  1  0.36487595  0.78293166  0.94722166  1
  O  O396  1  0.86358301  0.27144033  0.28367504  1
  O  O397  1  0.85575865  0.27581013  0.61415055  1
  O  O398  1  0.85917218  0.28415735  0.93941264  1
  O  O399  1  0.86037935  0.76851243  0.27401245  1
  O  O400  1  0.86221746  0.77530053  0.60779651  1
  O  O401  1  0.86472377  0.77525122  0.93887824  1
  O  O402  1  0.22283885  0.14711535  0.22700047  1
  O  O403  1  0.20811729  0.13787444  0.55362100  1
  O  O404  1  0.21162620  0.13988762  0.88716109  1
  O  O405  1  0.23621439  0.63852704  0.23048485  1
  O  O406  1  0.22369360  0.64929463  0.56097805  1
  O  O407  1  0.22254712  0.63798145  0.89514216  1
  O  O408  1  0.71940832  0.12748268  0.22696034  1
  O  O409  1  0.72394886  0.13569619  0.56328497  1
  O  O410  1  0.71689916  0.13097264  0.88446917  1
  O  O411  1  0.72520040  0.64139092  0.22461850  1
  O  O412  1  0.71961641  0.63572380  0.55724281  1
  O  O413  1  0.72530073  0.63959183  0.88836680  1
  O  O414  1  0.48912162  0.31568639  0.02014379  1
  O  O415  1  0.49938799  0.32478330  0.36110796  1
  O  O416  1  0.50079700  0.32548836  0.69397256  1
  O  O417  1  0.49539784  0.84625170  0.03351667  1
  O  O418  1  0.48746105  0.84051445  0.36872242  1
  O  O419  1  0.49277506  0.84692637  0.69632697  1
  O  O420  1  0.98914313  0.33628120  0.03075968  1
  O  O421  1  0.99169092  0.34109297  0.36487551  1
  O  O422  1  0.98887225  0.33075924  0.69678780  1
  O  O423  1  0.99391434  0.82839381  0.03043507  1
  O  O424  1  0.98988240  0.82441404  0.36207875  1
  O  O425  1  0.99338478  0.83017878  0.69564620  1
  O  O426  1  0.16629270  0.01533219  0.13885597  1
  O  O427  1  0.15858863  0.00609075  0.46580364  1
  O  O428  1  0.15662150  0.00905983  0.80074165  1
  O  O429  1  0.17471148  0.51041460  0.14244696  1
  O  O430  1  0.18711720  0.51687671  0.47187769  1
  O  O431  1  0.17528710  0.50632191  0.80396425  1
  O  O432  1  0.66340961  -0.00633197  0.14618138  1
  O  O433  1  0.67101478  0.00562091  0.47460448  1
  O  O434  1  0.66993148  -0.00063762  0.79906960  1
  O  O435  1  0.65967844  0.51708732  0.13114573  1
  O  O436  1  0.66026525  0.50463440  0.47028788  1
  O  O437  1  0.66771488  0.51100386  0.79887670  1
  O  O438  1  0.00713838  0.17272887  0.30722033  1
  O  O439  1  0.00267730  0.16698111  0.63655712  1
  O  O440  1  0.00576336  0.17014902  0.97374857  1
  O  O441  1  0.00897763  0.65317147  0.30656077  1
  O  O442  1  0.01943546  0.66855782  0.63833347  1
  O  O443  1  0.01329231  0.66225377  0.96303741  1
  O  O444  1  0.50915776  0.16199556  0.30250602  1
  O  O445  1  0.50863638  0.16178103  0.63030879  1
  O  O446  1  0.49170261  0.14336008  0.96905228  1
  O  O447  1  0.50392402  0.67834919  0.30375483  1
  O  O448  1  0.50921386  0.67324903  0.63664391  1
  O  O449  1  0.50971808  0.67770320  0.97033861  1
  O  O450  1  0.34397152  0.49119031  0.19432883  1
  O  O451  1  0.35733404  0.50320587  0.53147273  1
  O  O452  1  0.34306526  0.49053654  0.87146192  1
  O  O453  1  0.32732100  1.00112946  0.19591781  1
  O  O454  1  0.32408173  0.99617848  0.52530383  1
  O  O455  1  0.31995341  0.99957531  0.86134419  1
  O  O456  1  0.82425546  0.49033578  0.19330437  1
  O  O457  1  0.82743456  0.48707143  0.52695949  1
  O  O458  1  0.83333010  0.49413400  0.86195542  1
  O  O459  1  0.83439705  0.98428024  0.19864760  1
  O  O460  1  0.83498797  0.98758555  0.53334306  1
  O  O461  1  0.83815636  0.98929473  0.86516912  1
