# generated using pymatgen
data_Na31Fe20(SO4)36
_symmetry_space_group_name_H-M   'P 1'
_cell_length_a   18.07263174
_cell_length_b   18.07508401
_cell_length_c   19.70865586
_cell_angle_alpha   107.61566718
_cell_angle_beta   107.58229769
_cell_angle_gamma   90.71507929
_symmetry_Int_Tables_number   1
_chemical_formula_structural   Na31Fe20(SO4)36
_chemical_formula_sum   'Na62 Fe40 S72 O288'
_cell_volume   5811.18851832
_cell_formula_units_Z   2
loop_
 _symmetry_equiv_pos_site_id
 _symmetry_equiv_pos_as_xyz
  1  'x, y, z'
loop_
 _atom_site_type_symbol
 _atom_site_label
 _atom_site_symmetry_multiplicity
 _atom_site_fract_x
 _atom_site_fract_y
 _atom_site_fract_z
 _atom_site_occupancy
  Na  Na0  1  0.14961837  0.36954104  0.10279768  1
  Na  Na1  1  0.13725497  0.35544063  0.40899958  1
  Na  Na2  1  0.13983707  0.36836702  0.75570977  1
  Na  Na3  1  0.13471469  0.87180568  0.08965126  1
  Na  Na4  1  0.12799084  0.88342615  0.42471414  1
  Na  Na5  1  0.12752230  0.88070371  0.74413650  1
  Na  Na6  1  0.64001670  0.36480449  0.08445997  1
  Na  Na7  1  0.65516057  0.34719467  0.41288970  1
  Na  Na8  1  0.63594288  0.36089946  0.74514484  1
  Na  Na9  1  0.63145401  0.86318431  0.08325949  1
  Na  Na10  1  0.63605311  0.85822416  0.42345709  1
  Na  Na11  1  0.62509327  0.85709133  0.73623806  1
  Na  Na12  1  0.36527345  0.14735205  0.25820041  1
  Na  Na13  1  0.35399764  0.12969977  0.58312713  1
  Na  Na14  1  0.36616119  0.12716187  0.90883197  1
  Na  Na15  1  0.34586369  0.62306399  0.23979563  1
  Na  Na16  1  0.36732875  0.64562071  0.58357526  1
  Na  Na17  1  0.36110633  0.63342992  0.91585515  1
  Na  Na18  1  0.87896935  0.16475696  0.28634304  1
  Na  Na19  1  0.87290692  0.12747257  0.57983929  1
  Na  Na20  1  0.87457754  0.13926374  0.93002921  1
  Na  Na21  1  0.87883276  0.63737971  0.25227084  1
  Na  Na22  1  0.85642178  0.63682492  0.57346028  1
  Na  Na23  1  0.87081108  0.62944481  0.91498497  1
  Na  Na24  1  0.49034658  0.50830275  0.74748379  1
  Na  Na25  1  0.49552825  0.01487573  0.06710671  1
  Na  Na26  1  0.98917024  0.50043270  0.76012271  1
  Na  Na27  1  0.48923595  -0.00092119  0.42097172  1
  Na  Na28  1  0.44876425  0.00342020  0.75498649  1
  Na  Na29  1  0.47604132  0.50936922  0.08611250  1
  Na  Na30  1  0.47436868  0.52562943  0.41458628  1
  Na  Na31  1  1.00940122  0.49339423  0.41160760  1
  Na  Na32  1  0.98500717  0.00445150  0.11699347  1
  Na  Na33  1  0.01608812  0.99924595  0.89767650  1
  Na  Na34  1  0.50859654  0.48569519  0.91934880  1
  Na  Na35  1  0.48508292  0.99519762  0.59518247  1
  Na  Na36  1  0.49409211  0.51347874  0.57798014  1
  Na  Na37  1  0.00501049  0.45212581  0.56898765  1
  Na  Na38  1  0.05181535  0.48917559  1.05078983  1
  Na  Na39  1  0.01002422  0.49026407  0.22481933  1
  Na  Na40  1  0.49491328  0.49905404  0.25437448  1
  Na  Na41  1  0.50703495  0.99554233  0.24787250  1
  Na  Na42  1  0.76800610  0.25838436  0.00274222  1
  Na  Na43  1  0.75434340  0.74872433  -0.00508491  1
  Na  Na44  1  0.24629207  0.24893648  0.00774370  1
  Na  Na45  1  0.74459804  0.74203323  0.34205127  1
  Na  Na46  1  0.76168088  0.25489312  0.64762659  1
  Na  Na47  1  0.74742518  0.75219278  0.64699132  1
  Na  Na48  1  0.25740643  0.77543375  0.65914590  1
  Na  Na49  1  0.23177455  0.74325926  0.33417898  1
  Na  Na50  1  0.23355598  0.22441541  0.67155373  1
  Na  Na51  1  0.23889071  0.73961933  0.00559405  1
  Na  Na52  1  0.23723553  0.23261809  0.83755947  1
  Na  Na53  1  0.75253135  0.75390712  0.82356307  1
  Na  Na54  1  0.21656651  0.72342013  0.16606876  1
  Na  Na55  1  0.75399102  0.24274165  0.18319931  1
  Na  Na56  1  0.25512497  0.25215439  0.49455654  1
  Na  Na57  1  0.76497754  0.25894322  0.82968961  1
  Na  Na58  1  0.75031067  0.75196331  0.16784802  1
  Na  Na59  1  0.25764695  0.76534257  0.49471978  1
  Na  Na60  1  0.24817641  0.75241476  0.82914845  1
  Na  Na61  1  0.25043396  0.25229857  0.18364861  1
  Fe  Fe62  1  0.46751216  0.30831944  0.44854631  1
  Fe  Fe63  1  0.96336906  0.80397860  0.78327656  1
  Fe  Fe64  1  0.96398600  0.80944846  0.45602761  1
  Fe  Fe65  1  0.96863124  0.80223198  0.12688819  1
  Fe  Fe66  1  0.46488490  0.80002809  0.45654325  1
  Fe  Fe67  1  0.46210920  0.80730072  0.11994206  1
  Fe  Fe68  1  0.96593967  0.31220439  0.78686235  1
  Fe  Fe69  1  0.47131495  0.30495675  0.11917906  1
  Fe  Fe70  1  0.46704492  0.80529704  0.78715766  1
  Fe  Fe71  1  0.46739384  0.30729851  0.78310966  1
  Fe  Fe72  1  0.69236013  0.53633524  0.38336524  1
  Fe  Fe73  1  0.69229299  0.53756392  0.04884764  1
  Fe  Fe74  1  0.69217749  0.03517653  0.71674879  1
  Fe  Fe75  1  0.18713496  0.04139868  0.37725517  1
  Fe  Fe76  1  0.19375360  0.03754617  0.04829675  1
  Fe  Fe77  1  0.69363499  0.03204898  0.05018866  1
  Fe  Fe78  1  0.19054992  0.53449311  0.70906928  1
  Fe  Fe79  1  0.19979247  0.53029998  0.37580953  1
  Fe  Fe80  1  0.69003762  0.53151273  0.71046391  1
  Fe  Fe81  1  0.69283948  0.03580175  0.38784718  1
  Fe  Fe82  1  0.53947009  0.19406960  0.88282161  1
  Fe  Fe83  1  0.03566788  0.69187447  0.54625764  1
  Fe  Fe84  1  0.03124055  0.20636989  0.21113794  1
  Fe  Fe85  1  0.53411807  0.69130765  0.88286985  1
  Fe  Fe86  1  0.53576179  0.19180005  0.54793591  1
  Fe  Fe87  1  0.03384396  0.69140241  0.87750821  1
  Fe  Fe88  1  0.03468888  0.19269343  0.87409249  1
  Fe  Fe89  1  0.54193835  0.19393450  0.22190030  1
  Fe  Fe90  1  0.53130316  0.69376009  0.21804064  1
  Fe  Fe91  1  0.02675383  0.19940133  0.53424559  1
  Fe  Fe92  1  0.81519651  0.46547010  0.95725205  1
  Fe  Fe93  1  0.80832116  0.96374896  0.62079407  1
  Fe  Fe94  1  0.30586608  0.96710034  0.28421292  1
  Fe  Fe95  1  0.30479947  0.96580281  0.95100964  1
  Fe  Fe96  1  0.80466663  0.46219235  0.60646753  1
  Fe  Fe97  1  0.30778059  0.46271082  0.61486645  1
  Fe  Fe98  1  0.29997374  0.46727164  0.95312713  1
  Fe  Fe99  1  0.81261229  0.46478466  0.28484747  1
  Fe  Fe100  1  0.80437566  0.96188546  0.95369184  1
  Fe  Fe101  1  0.81127763  0.96617753  0.29452715  1
  S  S102  1  0.36563509  0.14000069  0.08487793  1
  S  S103  1  0.36392090  0.13934061  0.41519770  1
  S  S104  1  0.36570520  0.14425163  0.75129119  1
  S  S105  1  0.35817699  0.64164756  0.08185353  1
  S  S106  1  0.35706307  0.63994670  0.41743244  1
  S  S107  1  0.36016193  0.63781172  0.74919924  1
  S  S108  1  0.86192334  0.13343630  0.08522218  1
  S  S109  1  0.85241613  0.14325213  0.41836927  1
  S  S110  1  0.85743051  0.13944581  0.75142834  1
  S  S111  1  0.85388040  0.64108038  0.07937924  1
  S  S112  1  0.85998838  0.64039663  0.41537467  1
  S  S113  1  0.85644507  0.63686327  0.74737459  1
  S  S114  1  0.14042824  0.36395774  0.25177770  1
  S  S115  1  0.14407497  0.35940673  0.58217478  1
  S  S116  1  0.14137225  0.35812841  0.91740603  1
  S  S117  1  0.14075785  0.86666922  0.24716127  1
  S  S118  1  0.13606030  0.85868049  0.58289548  1
  S  S119  1  0.13838460  0.86057041  0.91577771  1
  S  S120  1  0.64480200  0.36016764  0.24905720  1
  S  S121  1  0.64150330  0.35635825  0.58225926  1
  S  S122  1  0.64204678  0.36084157  0.91659114  1
  S  S123  1  0.63594803  0.86244545  0.25206082  1
  S  S124  1  0.63594890  0.86499237  0.58602119  1
  S  S125  1  0.64034496  0.85665272  0.91811552  1
  S  S126  1  0.07154319  0.16950483  0.04188562  1
  S  S127  1  0.06792035  0.17490610  0.37424402  1
  S  S128  1  0.06523294  0.17778797  0.70693635  1
  S  S129  1  0.06606613  0.67596235  0.03811004  1
  S  S130  1  0.07117213  0.66158920  0.37618649  1
  S  S131  1  0.06303079  0.66414431  0.70550400  1
  S  S132  1  0.57308197  0.17083133  0.04618482  1
  S  S133  1  0.56552576  0.16168131  0.37505995  1
  S  S134  1  0.57068982  0.17152525  0.71107652  1
  S  S135  1  0.56395586  0.66807959  0.04268748  1
  S  S136  1  0.56254363  0.66671791  0.37210481  1
  S  S137  1  0.56346626  0.66348198  0.71037069  1
  S  S138  1  0.34432293  0.43175249  0.12491798  1
  S  S139  1  0.33429237  0.43569309  0.46075674  1
  S  S140  1  0.33326874  0.43263815  0.79031679  1
  S  S141  1  0.33221637  0.93458049  0.12263903  1
  S  S142  1  0.33254313  0.93465062  0.45551597  1
  S  S143  1  0.33502219  0.92644737  0.79685941  1
  S  S144  1  0.82719853  0.43845567  0.12027810  1
  S  S145  1  0.83544479  0.44313975  0.45509807  1
  S  S146  1  0.82578369  0.43203304  0.78658153  1
  S  S147  1  0.82365741  0.92470137  0.12492836  1
  S  S148  1  0.82340041  0.92784754  0.45662286  1
  S  S149  1  0.82755037  0.92990517  0.79175871  1
  S  S150  1  0.44730022  0.33243745  0.29301133  1
  S  S151  1  0.43717571  0.33165383  0.62265333  1
  S  S152  1  0.43671594  0.33169402  0.95630348  1
  S  S153  1  0.42732205  0.82755780  0.28913142  1
  S  S154  1  0.43405035  0.83230127  0.62572737  1
  S  S155  1  0.43112303  0.82700013  0.95796654  1
  S  S156  1  0.93848586  0.33896044  0.28953700  1
  S  S157  1  0.93720644  0.33369467  0.62749529  1
  S  S158  1  0.93931617  0.33204287  0.95680976  1
  S  S159  1  0.92650645  0.82553638  0.29078396  1
  S  S160  1  0.92704903  0.82609472  0.62486574  1
  S  S161  1  0.93065968  0.82764527  0.95674677  1
  S  S162  1  0.17207649  0.07800945  0.20909997  1
  S  S163  1  0.16926454  0.08780800  0.53693674  1
  S  S164  1  0.17441599  0.06826701  0.87837680  1
  S  S165  1  0.16507484  0.56050319  0.20729128  1
  S  S166  1  0.17640232  0.56970001  0.54453452  1
  S  S167  1  0.17121842  0.56806755  0.87141082  1
  S  S168  1  0.66533059  0.06455009  0.20824688  1
  S  S169  1  0.66457693  0.06526890  0.54414762  1
  S  S170  1  0.67292925  0.06811188  0.87969047  1
  S  S171  1  0.66354825  0.56733943  0.20690864  1
  S  S172  1  0.66354074  0.55614480  0.53903378  1
  S  S173  1  0.66450575  0.56259633  0.87340744  1
  O  O174  1  0.37492354  0.21720645  0.07346609  1
  O  O175  1  0.37573226  0.21706285  0.40635877  1
  O  O176  1  0.37672851  0.22338841  0.74084711  1
  O  O177  1  0.37191184  0.71931311  0.07075316  1
  O  O178  1  0.36113380  0.72326603  0.41651249  1
  O  O179  1  0.37026292  0.71564934  0.74002331  1
  O  O180  1  0.86683304  0.20591815  0.06831949  1
  O  O181  1  0.85416203  0.21653836  0.40388930  1
  O  O182  1  0.86131196  0.21961252  0.74481290  1
  O  O183  1  0.86622809  0.72018596  0.07183720  1
  O  O184  1  0.87133251  0.71935323  0.40801578  1
  O  O185  1  0.86470122  0.71879318  0.74570915  1
  O  O186  1  0.28641635  0.13238138  0.09235871  1
  O  O187  1  0.28471452  0.13037476  0.42090651  1
  O  O188  1  0.28998174  0.13883992  0.76273264  1
  O  O189  1  0.28155257  0.63653907  0.09082582  1
  O  O190  1  0.27536104  0.62821834  0.42432591  1
  O  O191  1  0.28085576  0.62914839  0.75622005  1
  O  O192  1  0.78505521  0.12215233  0.09781438  1
  O  O193  1  0.78040595  0.12473777  0.43548159  1
  O  O194  1  0.78070414  0.12768834  0.76427087  1
  O  O195  1  0.77040949  0.63635515  0.08140382  1
  O  O196  1  0.78145219  0.63319581  0.42437862  1
  O  O197  1  0.77882517  0.62699102  0.75850593  1
  O  O198  1  0.12538359  0.28555537  0.26134453  1
  O  O199  1  0.12725785  0.27916880  0.58579953  1
  O  O200  1  0.13368340  0.27303881  0.91372512  1
  O  O201  1  0.13766906  0.78719688  0.25072608  1
  O  O202  1  0.12387756  0.77912179  0.59445099  1
  O  O203  1  0.12929735  0.77972016  0.91908838  1
  O  O204  1  0.63805042  0.28095412  0.25663101  1
  O  O205  1  0.63060745  0.27882437  0.59344913  1
  O  O206  1  0.63438746  0.28303651  0.92756284  1
  O  O207  1  0.62667975  0.78315786  0.25954207  1
  O  O208  1  0.62938238  0.79208877  0.60208837  1
  O  O209  1  0.63037723  0.77899268  0.92956844  1
  O  O210  1  0.21594467  0.36753837  0.23965376  1
  O  O211  1  0.22738640  0.36509688  0.58310878  1
  O  O212  1  0.21935522  0.36778964  0.90526446  1
  O  O213  1  0.21486447  0.88157891  0.22972452  1
  O  O214  1  0.21167876  0.86061297  0.56965872  1
  O  O215  1  0.21657185  0.86994261  0.90664278  1
  O  O216  1  0.72298099  0.37197777  0.23993087  1
  O  O217  1  0.72247823  0.36407591  0.57931612  1
  O  O218  1  0.72130141  0.37009441  0.90955156  1
  O  O219  1  0.71357243  0.87169354  0.24239527  1
  O  O220  1  0.71468246  0.87749435  0.57841017  1
  O  O221  1  0.72161888  0.86332488  0.91335129  1
  O  O222  1  0.42425870  0.13329384  0.15382583  1
  O  O223  1  0.42174956  0.13120884  0.48467065  1
  O  O224  1  0.42749765  0.13915834  0.82179214  1
  O  O225  1  0.41962284  0.63222259  0.14848995  1
  O  O226  1  0.41417560  0.62871082  0.48340557  1
  O  O227  1  0.41824226  0.63016465  0.81865174  1
  O  O228  1  0.92509117  0.13054587  0.15411762  1
  O  O229  1  0.91910328  0.14284338  0.48782000  1
  O  O230  1  0.91949424  0.13165428  0.81780888  1
  O  O231  1  0.90741678  0.62941987  0.14520445  1
  O  O232  1  0.92008462  0.63026095  0.48173448  1
  O  O233  1  0.91785919  0.62413062  0.81182299  1
  O  O234  1  0.37530916  0.07849580  0.01853537  1
  O  O235  1  0.37440181  0.07831627  0.34862949  1
  O  O236  1  0.37668272  0.08433808  0.68695780  1
  O  O237  1  0.36655999  0.58107227  0.01374751  1
  O  O238  1  0.36492579  0.58708481  0.34792950  1
  O  O239  1  0.37083722  0.57704348  0.68337602  1
  O  O240  1  0.87076492  0.06717791  0.02081465  1
  O  O241  1  0.86118256  0.07909255  0.35299850  1
  O  O242  1  0.86163784  0.08219637  0.68108661  1
  O  O243  1  0.85822758  0.58327505  0.00798263  1
  O  O244  1  0.86531210  0.58208847  0.34542685  1
  O  O245  1  0.86163666  0.58200736  0.67644853  1
  O  O246  1  0.07788503  0.37881398  0.19195832  1
  O  O247  1  0.09202372  0.37404684  0.51596567  1
  O  O248  1  0.08128093  0.37223956  0.85305993  1
  O  O249  1  0.07561902  0.87771563  0.18391928  1
  O  O250  1  0.07427033  0.86045586  0.51203384  1
  O  O251  1  0.07736701  0.87203144  0.85009718  1
  O  O252  1  0.58563228  0.36684597  0.18004706  1
  O  O253  1  0.58565852  0.36157834  0.51175569  1
  O  O254  1  0.58342974  0.36666754  0.84683933  1
  O  O255  1  0.57510584  0.87000279  0.18387830  1
  O  O256  1  0.57679470  0.86751572  0.51482349  1
  O  O257  1  0.58559011  0.86060798  0.84701344  1
  O  O258  1  0.14194913  0.42256825  0.32729200  1
  O  O259  1  0.13508066  0.41684113  0.65179368  1
  O  O260  1  0.13917262  0.40835265  0.98964979  1
  O  O261  1  0.13957339  0.92349076  0.31931242  1
  O  O262  1  0.13038940  0.91935881  0.64785946  1
  O  O263  1  0.13256802  0.91738869  0.98599094  1
  O  O264  1  0.63489704  0.41866827  0.31617826  1
  O  O265  1  0.62942889  0.41673482  0.64808907  1
  O  O266  1  0.62949332  0.42108047  0.98183263  1
  O  O267  1  0.62649444  0.92167708  0.31936716  1
  O  O268  1  0.62324470  0.93018050  0.64954865  1
  O  O269  1  0.63047940  0.91749340  0.98382041  1
  O  O270  1  0.03734715  0.19212822  0.10316966  1
  O  O271  1  0.02433737  0.19827439  0.42997794  1
  O  O272  1  0.02109909  0.21087308  0.76347180  1
  O  O273  1  0.02778100  0.70630015  0.09609847  1
  O  O274  1  0.03618894  0.69131383  0.43849037  1
  O  O275  1  0.02582474  0.69598889  0.76651851  1
  O  O276  1  0.53604165  0.20038787  0.10699897  1
  O  O277  1  0.53310270  0.19694577  0.43805469  1
  O  O278  1  0.53807808  0.20484183  0.77423401  1
  O  O279  1  0.53099146  0.69960549  0.10541342  1
  O  O280  1  0.52911993  0.69899980  0.43271309  1
  O  O281  1  0.53321219  0.69702660  0.77644371  1
  O  O282  1  0.31978220  0.46091157  0.05966775  1
  O  O283  1  0.30074377  0.47179683  0.40164112  1
  O  O284  1  0.30405966  0.47008449  0.73043510  1
  O  O285  1  0.30111069  0.97096103  0.06181227  1
  O  O286  1  0.30387687  0.96773676  0.39130058  1
  O  O287  1  0.31468958  0.95634114  0.73427352  1
  O  O288  1  0.79028103  0.47468319  0.05828618  1
  O  O289  1  0.79452819  0.47542075  0.39181496  1
  O  O290  1  0.79644839  0.46860227  0.72578458  1
  O  O291  1  0.79298114  0.96086445  0.06340339  1
  O  O292  1  0.79071938  0.96501893  0.39590588  1
  O  O293  1  0.79886919  0.96640686  0.73100725  1
  O  O294  1  0.47984391  0.29464788  0.22910588  1
  O  O295  1  0.47269028  0.30179208  0.56109885  1
  O  O296  1  0.47332106  0.30303993  0.89504213  1
  O  O297  1  0.46380965  0.79665759  0.22750543  1
  O  O298  1  0.46612595  0.80124790  0.56368533  1
  O  O299  1  0.46882610  0.79750695  0.89785940  1
  O  O300  1  0.96303568  0.29751820  0.22310395  1
  O  O301  1  0.97419303  0.30515853  0.56769454  1
  O  O302  1  0.96749500  0.29571539  0.88965511  1
  O  O303  1  0.96020213  0.80224004  0.22927117  1
  O  O304  1  0.96076925  0.79397469  0.56254553  1
  O  O305  1  0.96791113  0.79923769  0.89567070  1
  O  O306  1  0.20135250  0.04283754  0.27080610  1
  O  O307  1  0.19608263  0.06829683  0.60528207  1
  O  O308  1  0.20274577  0.03330835  0.94302497  1
  O  O309  1  0.18955115  0.53461617  0.27667672  1
  O  O310  1  0.20427233  0.52944599  0.60384790  1
  O  O311  1  0.20028372  0.53219301  0.93052731  1
  O  O312  1  0.69339815  0.03172269  0.27127183  1
  O  O313  1  0.69913845  0.03499231  0.60821565  1
  O  O314  1  0.70085354  0.02910529  0.93950004  1
  O  O315  1  0.69530362  0.53427782  0.26924213  1
  O  O316  1  0.70193603  0.52224941  0.60210922  1
  O  O317  1  0.69527784  0.52841312  0.93499806  1
  O  O318  1  0.08706514  0.08494468  0.02679386  1
  O  O319  1  0.08312062  0.09232518  0.36001183  1
  O  O320  1  0.07968270  0.09985865  0.70600359  1
  O  O321  1  0.09204000  0.60022419  0.03780112  1
  O  O322  1  0.10078640  0.58371139  0.38166337  1
  O  O323  1  0.07715276  0.58116653  0.70004130  1
  O  O324  1  0.58909401  0.08877251  0.04149398  1
  O  O325  1  0.57901235  0.07851153  0.37299084  1
  O  O326  1  0.58479360  0.08904949  0.70552783  1
  O  O327  1  0.57999617  0.58535060  0.03716448  1
  O  O328  1  0.58269883  0.58515632  0.37076540  1
  O  O329  1  0.58332327  0.58174347  0.70987721  1
  O  O330  1  0.42795357  0.41028374  0.13126249  1
  O  O331  1  0.41520929  0.41652276  0.45919688  1
  O  O332  1  0.41743498  0.41864701  0.79632284  1
  O  O333  1  0.41516790  0.91926194  0.12759054  1
  O  O334  1  0.41263119  0.90923821  0.45688099  1
  O  O335  1  0.41859484  0.90692125  0.81204356  1
  O  O336  1  0.90602587  0.42522628  0.12010987  1
  O  O337  1  0.91662691  0.43740970  0.45560035  1
  O  O338  1  0.90756101  0.41518385  0.79130748  1
  O  O339  1  0.90352531  0.90483044  0.12566513  1
  O  O340  1  0.90206469  0.90801319  0.45766277  1
  O  O341  1  0.90886901  0.91025589  0.79801380  1
  O  O342  1  0.44344702  0.41549068  0.30156480  1
  O  O343  1  0.42018525  0.41429858  0.62846494  1
  O  O344  1  0.42060943  0.41442353  0.96196844  1
  O  O345  1  0.41587098  0.91164970  0.29504501  1
  O  O346  1  0.42573598  0.91589744  0.63874845  1
  O  O347  1  0.41285722  0.90843816  0.96590724  1
  O  O348  1  0.91819149  0.41921662  0.28396704  1
  O  O349  1  0.91324117  0.41358470  0.62608735  1
  O  O350  1  0.91330383  0.40979246  0.95211603  1
  O  O351  1  0.90535065  0.90653620  0.30213733  1
  O  O352  1  0.90682624  0.90565970  0.62828736  1
  O  O353  1  0.91053593  0.90852556  0.96126473  1
  O  O354  1  0.09189906  0.10039532  0.20388646  1
  O  O355  1  0.08633724  0.10926883  0.52319464  1
  O  O356  1  0.09464500  0.09163820  0.87715529  1
  O  O357  1  0.08098460  0.56849473  0.18687867  1
  O  O358  1  0.09289907  0.58201874  0.53548248  1
  O  O359  1  0.08891422  0.58604486  0.86289837  1
  O  O360  1  0.58123880  0.08096625  0.20083166  1
  O  O361  1  0.58144418  0.08030866  0.54005889  1
  O  O362  1  0.59265831  0.08878052  0.87490169  1
  O  O363  1  0.57996679  0.58173680  0.20055298  1
  O  O364  1  0.58106934  0.56101764  0.53348457  1
  O  O365  1  0.58119750  0.57841970  0.86936629  1
  O  O366  1  0.14496921  0.22069914  0.06115927  1
  O  O367  1  0.14064789  0.22719564  0.39945913  1
  O  O368  1  0.13739526  0.23342024  0.73059711  1
  O  O369  1  0.13371326  0.73396950  0.05201504  1
  O  O370  1  0.13773216  0.71800915  0.38855116  1
  O  O371  1  0.13591891  0.71384016  0.72354298  1
  O  O372  1  0.64588367  0.22129112  0.06368650  1
  O  O373  1  0.63613939  0.20757415  0.38321999  1
  O  O374  1  0.64316817  0.22037441  0.72464393  1
  O  O375  1  0.63489470  0.71852214  0.05573432  1
  O  O376  1  0.63147511  0.71614777  0.37879276  1
  O  O377  1  0.63445707  0.71347402  0.72226958  1
  O  O378  1  0.29280923  0.36140150  0.11244548  1
  O  O379  1  0.28519323  0.36675489  0.45361404  1
  O  O380  1  0.28439056  0.35972869  0.77346648  1
  O  O381  1  0.28255455  0.86243258  0.10629255  1
  O  O382  1  0.27674956  0.86676052  0.44134782  1
  O  O383  1  0.28193906  0.85622691  0.78451637  1
  O  O384  1  0.77605469  0.36602989  0.10394077  1
  O  O385  1  0.79142544  0.37090033  0.44625975  1
  O  O386  1  0.77482663  0.35882136  0.76823183  1
  O  O387  1  0.77027167  0.85341526  0.10778998  1
  O  O388  1  0.76935695  0.85862781  0.44134642  1
  O  O389  1  0.77384963  0.85891551  0.77422670  1
  O  O390  1  0.37200888  0.28794195  0.27741586  1
  O  O391  1  0.36680774  0.28044329  0.60802491  1
  O  O392  1  0.36520811  0.28070158  0.94049762  1
  O  O393  1  0.35326932  0.78003725  0.27145201  1
  O  O394  1  0.35898554  0.78463150  0.60952179  1
  O  O395  1  0.35978342  0.77442277  0.94051385  1
  O  O396  1  0.86786388  0.29385082  0.28591312  1
  O  O397  1  0.87117443  0.27946061  0.61786185  1
  O  O398  1  0.87013691  0.27932662  0.94719037  1
  O  O399  1  0.85540709  0.77105176  0.27370422  1
  O  O400  1  0.85867583  0.77314011  0.61439583  1
  O  O401  1  0.85962653  0.77304928  0.93743749  1
  O  O402  1  0.22733150  0.14453308  0.22093521  1
  O  O403  1  0.22111889  0.15575518  0.54128124  1
  O  O404  1  0.22991335  0.13917064  0.89885305  1
  O  O405  1  0.21395045  0.63654250  0.22824649  1
  O  O406  1  0.22674977  0.64305573  0.56647716  1
  O  O407  1  0.22210572  0.64070469  0.88676680  1
  O  O408  1  0.71489408  0.13443738  0.21943397  1
  O  O409  1  0.71217646  0.13618503  0.55379401  1
  O  O410  1  0.72783378  0.13810740  0.89773616  1
  O  O411  1  0.71130832  0.64043248  0.22016043  1
  O  O412  1  0.70841087  0.63140186  0.55521271  1
  O  O413  1  0.71297783  0.63506228  0.88655705  1
  O  O414  1  0.49694775  0.33235796  0.02774745  1
  O  O415  1  0.50510995  0.32414960  0.36279861  1
  O  O416  1  0.49740997  0.33598366  0.69577797  1
  O  O417  1  0.49087151  0.82762549  0.03015859  1
  O  O418  1  0.48616470  0.82619605  0.36027204  1
  O  O419  1  0.49089388  0.82417567  0.69675673  1
  O  O420  1  1.00389183  0.34451671  0.02574112  1
  O  O421  1  1.00336002  0.35358250  0.35979862  1
  O  O422  1  0.99789394  0.34910495  0.70347119  1
  O  O423  1  0.98835644  0.83167644  0.02995208  1
  O  O424  1  0.98671805  0.82243088  0.36072047  1
  O  O425  1  0.98972725  0.83045658  0.69728373  1
  O  O426  1  0.16646929  0.01426959  0.13669867  1
  O  O427  1  0.16794650  0.02070346  0.46856942  1
  O  O428  1  0.17184690  0.00914852  0.80934116  1
  O  O429  1  0.18153715  0.50136641  0.14561640  1
  O  O430  1  0.18148173  0.51243690  0.47353566  1
  O  O431  1  0.16965977  0.50947247  0.79760278  1
  O  O432  1  0.66034907  0.00213321  0.13573312  1
  O  O433  1  0.65970307  0.00259251  0.47237883  1
  O  O434  1  0.66998142  0.00885346  0.80693691  1
  O  O435  1  0.66162083  0.50765756  0.13445787  1
  O  O436  1  0.66914086  0.49919171  0.46791815  1
  O  O437  1  0.66123897  0.50289258  0.80074478  1
  O  O438  1  0.01335647  0.18296138  0.30266801  1
  O  O439  1  0.01291195  0.18220784  0.63214920  1
  O  O440  1  0.01315025  0.17344414  0.97104045  1
  O  O441  1  0.01034937  0.64506931  0.30392720  1
  O  O442  1  0.00515417  0.66376133  0.63326799  1
  O  O443  1  0.00678986  0.66920477  0.96227207  1
  O  O444  1  0.50322129  0.15479066  0.30194992  1
  O  O445  1  0.50972479  0.17068746  0.63976888  1
  O  O446  1  0.51471296  0.17063139  0.97429758  1
  O  O447  1  0.50010142  0.65609728  0.29727836  1
  O  O448  1  0.50109541  0.65475667  0.64044310  1
  O  O449  1  0.50361421  0.66433112  0.96996437  1
  O  O450  1  0.35291527  0.49408070  0.19508198  1
  O  O451  1  0.34687642  0.49712273  0.53666079  1
  O  O452  1  0.33530244  0.49036844  0.86388040  1
  O  O453  1  0.33531053  0.99385242  0.19558027  1
  O  O454  1  0.34315963  0.99681076  0.52659693  1
  O  O455  1  0.33471335  0.98913902  0.86809017  1
  O  O456  1  0.82509084  0.49679201  0.19216071  1
  O  O457  1  0.83652847  0.50315050  0.52854643  1
  O  O458  1  0.82506916  0.48929361  0.85861883  1
  O  O459  1  0.82655770  0.98361665  0.19682907  1
  O  O460  1  0.82715894  0.98855975  0.52915259  1
  O  O461  1  0.83025999  0.98928005  0.86431520  1
