# generated using pymatgen
data_Na31Fe20(SO4)36
_symmetry_space_group_name_H-M   'P 1'
_cell_length_a   18.08861660
_cell_length_b   18.08569600
_cell_length_c   19.71801610
_cell_angle_alpha   107.57667979
_cell_angle_beta   107.61624658
_cell_angle_gamma   90.71701289
_symmetry_Int_Tables_number   1
_chemical_formula_structural   Na31Fe20(SO4)36
_chemical_formula_sum   'Na62 Fe40 S72 O288'
_cell_volume   5822.66528116
_cell_formula_units_Z   2
loop_
 _symmetry_equiv_pos_site_id
 _symmetry_equiv_pos_as_xyz
  1  'x, y, z'
loop_
 _atom_site_type_symbol
 _atom_site_label
 _atom_site_symmetry_multiplicity
 _atom_site_fract_x
 _atom_site_fract_y
 _atom_site_fract_z
 _atom_site_occupancy
  Na  Na0  1  0.13929091  0.36392534  0.08665223  1
  Na  Na1  1  0.12800134  0.37356276  0.41606816  1
  Na  Na2  1  0.13407044  0.37296703  0.74911890  1
  Na  Na3  1  0.13631303  0.86096764  0.07801717  1
  Na  Na4  1  0.13949529  0.87008761  0.42493017  1
  Na  Na5  1  0.13531541  0.86572297  0.75065063  1
  Na  Na6  1  0.63973724  0.36239683  0.08471105  1
  Na  Na7  1  0.63503095  0.36799697  0.42129283  1
  Na  Na8  1  0.62541720  0.37307252  0.74695612  1
  Na  Na9  1  0.62483007  0.86013819  0.06786811  1
  Na  Na10  1  0.63446895  0.86308881  0.41301194  1
  Na  Na11  1  0.63444140  0.85228252  0.75109570  1
  Na  Na12  1  0.37040950  0.14585673  0.26163543  1
  Na  Na13  1  0.36028226  0.13206254  0.57951644  1
  Na  Na14  1  0.36573016  0.13020379  0.91573522  1
  Na  Na15  1  0.36132386  0.63959950  0.25621425  1
  Na  Na16  1  0.37660530  0.65041552  0.59862514  1
  Na  Na17  1  0.37448855  0.62961319  0.90998443  1
  Na  Na18  1  0.86670027  0.13113447  0.24928913  1
  Na  Na19  1  0.86496983  0.13300387  0.57935609  1
  Na  Na20  1  0.86349317  0.13082599  0.91200126  1
  Na  Na21  1  0.85587368  0.63427530  0.24616085  1
  Na  Na22  1  0.87336371  0.61989077  0.58680619  1
  Na  Na23  1  0.85939035  0.66405168  0.92417355  1
  Na  Na24  1  0.49762771  0.56446501  0.76789833  1
  Na  Na25  1  0.48984520  0.01067176  0.08513835  1
  Na  Na26  1  0.98759702  0.51663689  0.07904646  1
  Na  Na27  1  1.00224699  0.51275169  0.70401025  1
  Na  Na28  1  0.44015158  -0.00460816  0.72256543  1
  Na  Na29  1  0.99533473  0.00703993  0.09606487  1
  Na  Na30  1  0.51737753  0.46819362  0.51716994  1
  Na  Na31  1  0.53874536  0.48547935  0.01377558  1
  Na  Na32  1  0.99280680  0.00622635  0.74653768  1
  Na  Na33  1  -0.00020372  0.49337028  0.27324712  1
  Na  Na34  1  0.49967707  0.92572439  0.89052088  1
  Na  Na35  1  0.50554976  0.49577241  0.25188419  1
  Na  Na36  1  0.00634913  0.98062209  0.27095916  1
  Na  Na37  1  0.50752048  0.98243944  0.26537514  1
  Na  Na38  1  -0.02237745  0.54911147  0.88289780  1
  Na  Na39  1  0.49827762  0.99931411  0.56459206  1
  Na  Na40  1  0.01939981  0.99428511  0.56497919  1
  Na  Na41  1  0.01002979  0.98196427  0.91817032  1
  Na  Na42  1  0.24798603  0.74471524  0.67278807  1
  Na  Na43  1  0.72624190  0.72694776  0.00460074  1
  Na  Na44  1  0.75065559  0.73980047  0.67416004  1
  Na  Na45  1  0.75906156  0.26577600  0.65919259  1
  Na  Na46  1  0.75241524  0.25216907  0.33184456  1
  Na  Na47  1  0.24366162  0.24328569  0.01102646  1
  Na  Na48  1  0.26677575  0.26622991  0.32268073  1
  Na  Na49  1  0.24041925  0.73962663  -0.00007671  1
  Na  Na50  1  0.25709703  0.25706239  0.66261734  1
  Na  Na51  1  0.75748162  0.25494964  -0.00589125  1
  Na  Na52  1  0.75034005  0.25439787  0.82557019  1
  Na  Na53  1  0.25871387  0.26121000  0.49130722  1
  Na  Na54  1  0.75566505  0.75217076  0.49294523  1
  Na  Na55  1  0.25247743  0.25639539  0.83028216  1
  Na  Na56  1  0.73019998  0.73032926  0.17534637  1
  Na  Na57  1  0.23953586  0.74176808  0.17952800  1
  Na  Na58  1  0.76191476  0.26320378  0.49607861  1
  Na  Na59  1  0.23292073  0.72463050  0.83314344  1
  Na  Na60  1  0.26209616  0.76642043  0.49598258  1
  Na  Na61  1  0.75059757  0.24892862  0.16380386  1
  Fe  Fe62  1  0.96732759  0.80129792  0.78753610  1
  Fe  Fe63  1  0.96765937  0.31058901  0.45756500  1
  Fe  Fe64  1  0.46662499  0.31026036  0.79038322  1
  Fe  Fe65  1  0.96680690  0.31042679  0.78660994  1
  Fe  Fe66  1  0.46457982  0.80646399  0.45069583  1
  Fe  Fe67  1  0.96768686  0.30519445  0.12064411  1
  Fe  Fe68  1  0.46247731  0.80568370  0.11855784  1
  Fe  Fe69  1  0.96062062  0.80491999  0.45109942  1
  Fe  Fe70  1  0.46194602  0.30977333  0.12178827  1
  Fe  Fe71  1  0.96656762  0.80803955  0.11579434  1
  Fe  Fe72  1  0.70157730  0.52927116  0.70526711  1
  Fe  Fe73  1  0.18645415  0.53547821  0.04505100  1
  Fe  Fe74  1  0.69501453  0.53335478  0.37962046  1
  Fe  Fe75  1  0.69162376  0.03326332  0.04322048  1
  Fe  Fe76  1  0.68969106  0.03396104  0.71120122  1
  Fe  Fe77  1  0.19652429  0.03425399  0.38541650  1
  Fe  Fe78  1  0.19475224  0.03783618  0.05311064  1
  Fe  Fe79  1  0.19352613  0.54014946  0.38285501  1
  Fe  Fe80  1  0.69573108  0.03585555  0.38349793  1
  Fe  Fe81  1  0.19456281  0.03140710  0.71118630  1
  Fe  Fe82  1  0.03827481  0.19110831  0.54599884  1
  Fe  Fe83  1  0.03800229  0.19425129  0.21836089  1
  Fe  Fe84  1  0.53265909  0.18862342  0.87875526  1
  Fe  Fe85  1  0.03547496  0.68534257  0.54574042  1
  Fe  Fe86  1  0.53735238  0.68792530  0.54475590  1
  Fe  Fe87  1  0.52676661  0.20248521  0.54424198  1
  Fe  Fe88  1  0.03390873  0.19347305  0.88228772  1
  Fe  Fe89  1  0.53665017  0.68732918  0.21279958  1
  Fe  Fe90  1  0.53362615  0.19666831  0.21743091  1
  Fe  Fe91  1  0.03572878  0.69628775  0.21901567  1
  Fe  Fe92  1  0.80682880  0.96298018  0.28600552  1
  Fe  Fe93  1  0.30449812  0.96680233  0.95185885  1
  Fe  Fe94  1  0.31121251  0.96320417  0.29113361  1
  Fe  Fe95  1  0.80560261  0.96744186  0.61674694  1
  Fe  Fe96  1  0.80710720  0.46581986  0.28787698  1
  Fe  Fe97  1  0.30114580  0.47195083  0.62722945  1
  Fe  Fe98  1  0.30709770  0.46871267  0.95487310  1
  Fe  Fe99  1  0.80811084  0.96491668  0.95027436  1
  Fe  Fe100  1  0.31220819  0.46390775  0.29164985  1
  Fe  Fe101  1  0.80370790  0.46754505  0.95565448  1
  S  S102  1  0.35977604  0.14057236  0.08557962  1
  S  S103  1  0.35765559  0.14038928  0.41600849  1
  S  S104  1  0.35721148  0.14476356  0.75248944  1
  S  S105  1  0.35713185  0.64097234  0.08742599  1
  S  S106  1  0.35772424  0.64097618  0.41536198  1
  S  S107  1  0.35609315  0.64458540  0.74437478  1
  S  S108  1  0.86111434  0.13821404  0.08291255  1
  S  S109  1  0.86137556  0.13869488  0.41685392  1
  S  S110  1  0.86035110  0.14123754  0.74937188  1
  S  S111  1  0.86243626  0.64294600  0.08354507  1
  S  S112  1  0.86024675  0.63969225  0.41520600  1
  S  S113  1  0.86447244  0.63787348  0.75342335  1
  S  S114  1  0.13921883  0.36188811  0.25119014  1
  S  S115  1  0.13991118  0.35844438  0.58406352  1
  S  S116  1  0.14102142  0.35709125  0.91929539  1
  S  S117  1  0.13874566  0.86253077  0.25122089  1
  S  S118  1  0.13315583  0.85903792  0.58165197  1
  S  S119  1  0.13969473  0.86529903  0.91850409  1
  S  S120  1  0.64002326  0.35811325  0.24708754  1
  S  S121  1  0.64345939  0.35566071  0.58573181  1
  S  S122  1  0.64145489  0.35094495  0.91809524  1
  S  S123  1  0.63895305  0.86206956  0.25001437  1
  S  S124  1  0.64311574  0.85947403  0.57902155  1
  S  S125  1  0.64657903  0.85907270  0.91793364  1
  S  S126  1  0.06525922  0.16679694  0.04173850  1
  S  S127  1  0.06761077  0.16838074  0.37513022  1
  S  S128  1  0.06591118  0.16563439  0.70856754  1
  S  S129  1  0.06467685  0.67242350  0.04665914  1
  S  S130  1  0.06651610  0.67395032  0.37769053  1
  S  S131  1  0.06871021  0.67777972  0.71011301  1
  S  S132  1  0.56584271  0.16787138  0.04386486  1
  S  S133  1  0.57382391  0.16975043  0.37625343  1
  S  S134  1  0.56379972  0.16801141  0.70661653  1
  S  S135  1  0.56517438  0.67585556  0.05084892  1
  S  S136  1  0.56800884  0.66920949  0.37570877  1
  S  S137  1  0.57877158  0.66105179  0.69888254  1
  S  S138  1  0.32757020  0.43397151  0.12448783  1
  S  S139  1  0.31988179  0.43033294  0.45581970  1
  S  S140  1  0.32798191  0.42995153  0.79207553  1
  S  S141  1  0.32969047  0.93513262  0.12745999  1
  S  S142  1  0.33172617  0.93454155  0.45731632  1
  S  S143  1  0.32557195  0.93578426  0.78864114  1
  S  S144  1  0.83794638  0.43068271  0.12748537  1
  S  S145  1  0.82922691  0.42947879  0.45340229  1
  S  S146  1  0.82969072  0.43161940  0.79324391  1
  S  S147  1  0.83228945  0.93324359  0.12525975  1
  S  S148  1  0.82958158  0.93247395  0.45742301  1
  S  S149  1  0.83272034  0.93539090  0.78814875  1
  S  S150  1  0.43965992  0.33685498  0.29380614  1
  S  S151  1  0.42398875  0.32943740  0.62606450  1
  S  S152  1  0.43092187  0.32689144  0.95843502  1
  S  S153  1  0.43326099  0.82840659  0.28861812  1
  S  S154  1  0.44663931  0.83335249  0.61722380  1
  S  S155  1  0.42267074  0.83348648  0.96158468  1
  S  S156  1  0.93113174  0.32465017  0.28881840  1
  S  S157  1  0.93726380  0.32472977  0.62262798  1
  S  S158  1  0.93159654  0.32753680  0.95750084  1
  S  S159  1  0.92930802  0.82777661  0.28825389  1
  S  S160  1  0.92871823  0.83283537  0.62543493  1
  S  S161  1  0.93708131  0.84614148  0.96410187  1
  S  S162  1  0.17124899  0.06874713  0.21283865  1
  S  S163  1  0.16748430  0.06867130  0.54298572  1
  S  S164  1  0.16723897  0.06910648  0.87592467  1
  S  S165  1  0.16524155  0.56656466  0.20780689  1
  S  S166  1  0.17403737  0.56761608  0.54214412  1
  S  S167  1  0.16904882  0.56399506  0.88090831  1
  S  S168  1  0.67018340  0.06815155  0.20803435  1
  S  S169  1  0.66973612  0.07316504  0.54526706  1
  S  S170  1  0.67183078  0.06970366  0.87387837  1
  S  S171  1  0.66502855  0.55817349  0.20721526  1
  S  S172  1  0.67604943  0.56447277  0.54013887  1
  S  S173  1  0.67591679  0.56161818  0.87283153  1
  O  O174  1  0.36923645  0.21899151  0.07690068  1
  O  O175  1  0.36139313  0.21599092  0.40409050  1
  O  O176  1  0.36654370  0.22762921  0.75309937  1
  O  O177  1  0.36345874  0.72089014  0.08072428  1
  O  O178  1  0.37032375  0.71750821  0.40449172  1
  O  O179  1  0.37290312  0.71145776  0.72170557  1
  O  O180  1  0.86969575  0.21812257  0.07665709  1
  O  O181  1  0.86952021  0.21816725  0.40931971  1
  O  O182  1  0.86918352  0.22097651  0.74333924  1
  O  O183  1  0.87683803  0.71911090  0.07017177  1
  O  O184  1  0.86851739  0.71859814  0.40691613  1
  O  O185  1  0.87049174  0.71955985  0.74867228  1
  O  O186  1  0.28014023  0.13136013  0.09103686  1
  O  O187  1  0.28120789  0.12810274  0.42999679  1
  O  O188  1  0.27892988  0.13435440  0.76184554  1
  O  O189  1  0.27751141  0.62991479  0.09459452  1
  O  O190  1  0.27787817  0.63659881  0.42276906  1
  O  O191  1  0.27579966  0.63993341  0.74671779  1
  O  O192  1  0.78278656  0.12895687  0.09242192  1
  O  O193  1  0.78311201  0.13085711  0.42767769  1
  O  O194  1  0.78205963  0.13099950  0.75781455  1
  O  O195  1  0.78426245  0.63841763  0.08969945  1
  O  O196  1  0.78072004  0.62980315  0.42150774  1
  O  O197  1  0.77782513  0.62270687  0.74257676  1
  O  O198  1  0.13042417  0.28443177  0.26258727  1
  O  O199  1  0.13520679  0.27684147  0.58916771  1
  O  O200  1  0.12976618  0.27800814  0.92818426  1
  O  O201  1  0.13072723  0.78428837  0.25934533  1
  O  O202  1  0.12114950  0.78098047  0.59073212  1
  O  O203  1  0.13377030  0.79047540  0.93108947  1
  O  O204  1  0.63277286  0.27825834  0.25418246  1
  O  O205  1  0.62175850  0.28282770  0.60145455  1
  O  O206  1  0.62988173  0.26996251  0.92357468  1
  O  O207  1  0.63001329  0.78354195  0.25728521  1
  O  O208  1  0.63768401  0.77853191  0.58174284  1
  O  O209  1  0.64218323  0.79008444  0.94037168  1
  O  O210  1  0.22008796  0.37299517  0.24966249  1
  O  O211  1  0.22201650  0.37087132  0.58037598  1
  O  O212  1  0.22153704  0.36505662  0.91519213  1
  O  O213  1  0.21619268  0.87237770  0.24076220  1
  O  O214  1  0.20803625  0.86708414  0.57006460  1
  O  O215  1  0.21620350  0.87669039  0.90601265  1
  O  O216  1  0.71824367  0.36643530  0.23699294  1
  O  O217  1  0.72322459  0.35186831  0.58247192  1
  O  O218  1  0.72378314  0.35828243  0.91703430  1
  O  O219  1  0.71705499  0.87156173  0.24023143  1
  O  O220  1  0.72027823  0.87264040  0.56764780  1
  O  O221  1  0.72623392  0.87506826  0.91303827  1
  O  O222  1  0.41825638  0.13228742  0.15408814  1
  O  O223  1  0.41977457  0.13516009  0.48383054  1
  O  O224  1  0.41708274  0.13291146  0.81949745  1
  O  O225  1  0.41540367  0.63411360  0.15621282  1
  O  O226  1  0.41497070  0.63097016  0.48274745  1
  O  O227  1  0.41252251  0.63947252  0.81363513  1
  O  O228  1  0.92169689  0.12816196  0.14917251  1
  O  O229  1  0.92103686  0.12949947  0.48319703  1
  O  O230  1  0.92036901  0.13176168  0.81677475  1
  O  O231  1  0.92137341  0.63694825  0.15372070  1
  O  O232  1  0.91763741  0.63303776  0.48434656  1
  O  O233  1  0.90970372  0.63445789  0.82756374  1
  O  O234  1  0.37004065  0.08114503  0.01857231  1
  O  O235  1  0.36419676  0.07839052  0.34862703  1
  O  O236  1  0.36474038  0.09078902  0.68366239  1
  O  O237  1  0.36653930  0.58361896  0.01949618  1
  O  O238  1  0.36222611  0.57934060  0.34659128  1
  O  O239  1  0.36567208  0.57185151  0.68027104  1
  O  O240  1  0.86768252  0.08102649  0.01353495  1
  O  O241  1  0.86497135  0.08022717  0.34677177  1
  O  O242  1  0.86949976  0.08314772  0.68133782  1
  O  O243  1  0.87350332  0.57965192  0.01906709  1
  O  O244  1  0.86981660  0.58096079  0.34756632  1
  O  O245  1  0.88701402  0.58329451  0.69320500  1
  O  O246  1  0.08343513  0.36280590  0.17827218  1
  O  O247  1  0.08501729  0.36004886  0.51078474  1
  O  O248  1  0.08466335  0.36109860  0.84838071  1
  O  O249  1  0.07832926  0.87217066  0.18410599  1
  O  O250  1  0.06958989  0.86926166  0.51532569  1
  O  O251  1  0.07796481  0.87396548  0.85153817  1
  O  O252  1  0.57986881  0.36585205  0.17961867  1
  O  O253  1  0.58856845  0.36469905  0.51784791  1
  O  O254  1  0.58731742  0.35582885  0.84614474  1
  O  O255  1  0.57842510  0.87492958  0.18514353  1
  O  O256  1  0.58139765  0.87190472  0.51457882  1
  O  O257  1  0.58838290  0.85740803  0.84734232  1
  O  O258  1  0.12222478  0.42314891  0.31301202  1
  O  O259  1  0.12584715  0.41431170  0.64757729  1
  O  O260  1  0.13003643  0.41599471  0.98547350  1
  O  O261  1  0.12963955  0.92197030  0.31911177  1
  O  O262  1  0.12506497  0.91936442  0.65005850  1
  O  O263  1  0.13228335  0.92890103  0.98591028  1
  O  O264  1  0.63209435  0.41627014  0.31504469  1
  O  O265  1  0.63987048  0.42123939  0.65346071  1
  O  O266  1  0.62996933  0.40791129  0.98331305  1
  O  O267  1  0.63321127  0.92161930  0.31992350  1
  O  O268  1  0.63972893  0.91543510  0.65061929  1
  O  O269  1  0.63165770  0.92712431  0.98030251  1
  O  O270  1  0.03121365  0.19864104  0.10430144  1
  O  O271  1  0.02976047  0.19794338  0.43461151  1
  O  O272  1  0.02935250  0.19704441  0.76932790  1
  O  O273  1  0.03746492  0.70619649  0.11444280  1
  O  O274  1  0.02824410  0.69971924  0.43756719  1
  O  O275  1  0.03166683  0.70877797  0.76961875  1
  O  O276  1  0.52922984  0.19879469  0.10447407  1
  O  O277  1  0.54274633  0.19265540  0.43880256  1
  O  O278  1  0.52635777  0.19489228  0.76736674  1
  O  O279  1  0.52692777  0.70871413  0.11338834  1
  O  O280  1  0.53013096  0.69707908  0.43548929  1
  O  O281  1  0.55106305  0.67852852  0.76261039  1
  O  O282  1  0.29847552  0.47003772  0.06339253  1
  O  O283  1  0.29092501  0.47367934  0.39875041  1
  O  O284  1  0.30421485  0.46410047  0.73014277  1
  O  O285  1  0.29975675  0.97227270  0.06691457  1
  O  O286  1  0.29469662  0.96411411  0.39055016  1
  O  O287  1  0.29253135  0.97481108  0.73111764  1
  O  O288  1  0.81634383  0.46497672  0.06683855  1
  O  O289  1  0.79697375  0.46382446  0.38914400  1
  O  O290  1  0.79946156  0.46843794  0.73422391  1
  O  O291  1  0.80381155  0.97128025  0.06557752  1
  O  O292  1  0.79940910  0.96872235  0.39588372  1
  O  O293  1  0.80219479  0.97331797  0.72802679  1
  O  O294  1  0.47158481  0.30056805  0.22805084  1
  O  O295  1  0.46016926  0.30424315  0.56657520  1
  O  O296  1  0.47076674  0.29917188  0.89995061  1
  O  O297  1  0.47082980  0.79939991  0.22858083  1
  O  O298  1  0.47796529  0.78901712  0.55280979  1
  O  O299  1  0.45276991  0.81083123  0.89927597  1
  O  O300  1  0.96777059  0.29388188  0.22741399  1
  O  O301  1  0.97452698  0.29013171  0.56160803  1
  O  O302  1  0.96830549  0.30022241  0.89633602  1
  O  O303  1  0.96966192  0.80255444  0.22954712  1
  O  O304  1  0.96035982  0.80134353  0.56201200  1
  O  O305  1  0.96700274  0.82024628  0.90057926  1
  O  O306  1  0.19837771  0.03240590  0.27338047  1
  O  O307  1  0.18689967  0.03516764  0.60459973  1
  O  O308  1  0.19976441  0.03712076  0.93944453  1
  O  O309  1  0.19567989  0.53070551  0.26860232  1
  O  O310  1  0.20379646  0.52502255  0.59729675  1
  O  O311  1  0.20515779  0.52675739  0.94391848  1
  O  O312  1  0.70061760  0.03346638  0.26996989  1
  O  O313  1  0.70137671  0.03521782  0.60599904  1
  O  O314  1  0.70497860  0.03665143  0.93685208  1
  O  O315  1  0.70184820  0.52717871  0.27291789  1
  O  O316  1  0.69867978  0.52308781  0.59657494  1
  O  O317  1  0.70395836  0.51265616  0.92248546  1
  O  O318  1  0.08142755  0.08449162  0.03818925  1
  O  O319  1  0.08816523  0.08778251  0.37102310  1
  O  O320  1  0.08220558  0.08346624  0.70545692  1
  O  O321  1  0.08055967  0.58966876  0.04238787  1
  O  O322  1  0.08769066  0.59322749  0.37123009  1
  O  O323  1  0.09129739  0.60076269  0.70906726  1
  O  O324  1  0.58328779  0.08663174  0.04079597  1
  O  O325  1  0.59222297  0.08639690  0.36114791  1
  O  O326  1  0.58106614  0.08512141  0.69810850  1
  O  O327  1  0.59569758  0.60418650  0.06092935  1
  O  O328  1  0.58778790  0.58807430  0.36939676  1
  O  O329  1  0.60292579  0.57828808  0.68251498  1
  O  O330  1  0.40987846  0.41652958  0.13122991  1
  O  O331  1  0.39667823  0.40893441  0.45507248  1
  O  O332  1  0.40878966  0.40866111  0.80356564  1
  O  O333  1  0.41283564  0.92067715  0.13485527  1
  O  O334  1  0.40829399  0.90800599  0.45058211  1
  O  O335  1  0.40527767  0.92172995  0.78787901  1
  O  O336  1  0.92262345  0.41474244  0.14268369  1
  O  O337  1  0.90483311  0.40107212  0.44772189  1
  O  O338  1  0.90986136  0.41009335  0.79308115  1
  O  O339  1  0.91656415  0.91978038  0.13369338  1
  O  O340  1  0.91085409  0.91432256  0.46263964  1
  O  O341  1  0.91556363  0.92077889  0.79363508  1
  O  O342  1  0.41598455  0.41468648  0.28709148  1
  O  O343  1  0.39698809  0.40838366  0.63108827  1
  O  O344  1  0.41081010  0.40748233  0.96272761  1
  O  O345  1  0.41639319  0.91027231  0.29251279  1
  O  O346  1  0.43924967  0.91287738  0.61126100  1
  O  O347  1  0.40753293  0.91936894  0.97663433  1
  O  O348  1  0.91213102  0.40486290  0.29113099  1
  O  O349  1  0.92075475  0.40306738  0.62383156  1
  O  O350  1  0.91138740  0.40819161  0.96545342  1
  O  O351  1  0.91098614  0.90967554  0.29344450  1
  O  O352  1  0.91316989  0.91620612  0.63063798  1
  O  O353  1  0.92284861  0.93172032  0.97496160  1
  O  O354  1  0.08906859  0.08807146  0.20687625  1
  O  O355  1  0.08356504  0.08559175  0.52823546  1
  O  O356  1  0.08372565  0.08319082  0.87070768  1
  O  O357  1  0.08298605  0.58407475  0.20357962  1
  O  O358  1  0.09594215  0.58926963  0.54371051  1
  O  O359  1  0.09725156  0.59336417  0.89197509  1
  O  O360  1  0.58844846  0.08685038  0.20272139  1
  O  O361  1  0.59018111  0.09233415  0.54372669  1
  O  O362  1  0.59109319  0.08700138  0.87046527  1
  O  O363  1  0.58734730  0.58243835  0.21363327  1
  O  O364  1  0.59439964  0.58508247  0.53012724  1
  O  O365  1  0.59655651  0.57603711  0.87059371  1
  O  O366  1  0.13566147  0.21652607  0.05393626  1
  O  O367  1  0.13654325  0.22167603  0.38880112  1
  O  O368  1  0.13732502  0.21638202  0.72385287  1
  O  O369  1  0.13792261  0.72078232  0.06022450  1
  O  O370  1  0.13450493  0.72912306  0.39416340  1
  O  O371  1  0.13732955  0.73378866  0.72439838  1
  O  O372  1  0.63821217  0.21887254  0.06002342  1
  O  O373  1  0.64439989  0.22184244  0.38940858  1
  O  O374  1  0.63574062  0.21984427  0.72560996  1
  O  O375  1  0.63187893  0.73545716  0.06790459  1
  O  O376  1  0.63726533  0.72337765  0.39235742  1
  O  O377  1  0.64378567  0.71690569  0.70739482  1
  O  O378  1  0.27613705  0.36229151  0.10743472  1
  O  O379  1  0.26229644  0.36060988  0.43345491  1
  O  O380  1  0.27198265  0.36025673  0.77479127  1
  O  O381  1  0.27931752  0.86251687  0.10969895  1
  O  O382  1  0.27801379  0.86947408  0.45062238  1
  O  O383  1  0.27515055  0.86423844  0.77418649  1
  O  O384  1  0.78656577  0.35781682  0.10944020  1
  O  O385  1  0.77246379  0.36082577  0.43792986  1
  O  O386  1  0.77684303  0.36102262  0.77929870  1
  O  O387  1  0.78319854  0.86095585  0.10874253  1
  O  O388  1  0.77741681  0.86327398  0.44359311  1
  O  O389  1  0.78243854  0.86412316  0.77171072  1
  O  O390  1  0.37091476  0.28454533  0.28213828  1
  O  O391  1  0.35598384  0.27220719  0.61094784  1
  O  O392  1  0.36111052  0.27243211  0.94108386  1
  O  O393  1  0.36144160  0.77792902  0.27170381  1
  O  O394  1  0.36994135  0.79062685  0.60190516  1
  O  O395  1  0.35130277  0.78446027  0.95113560  1
  O  O396  1  0.85968601  0.27186522  0.27160961  1
  O  O397  1  0.86664203  0.27072063  0.60601690  1
  O  O398  1  0.86189475  0.27213388  0.93945117  1
  O  O399  1  0.85849286  0.77494525  0.26856759  1
  O  O400  1  0.85665042  0.78423586  0.61292572  1
  O  O401  1  0.86643074  0.79952410  0.95541465  1
  O  O402  1  0.22342945  0.13832089  0.22695376  1
  O  O403  1  0.21972706  0.13984042  0.56016900  1
  O  O404  1  0.21546686  0.14203382  0.89011928  1
  O  O405  1  0.21603331  0.63697886  0.22142376  1
  O  O406  1  0.22835876  0.63730980  0.55798979  1
  O  O407  1  0.22815513  0.62956713  0.89417578  1
  O  O408  1  0.72236685  0.13924839  0.22299566  1
  O  O409  1  0.72382940  0.14291479  0.56108382  1
  O  O410  1  0.72380112  0.14048821  0.88733659  1
  O  O411  1  0.71751142  0.62576205  0.21667177  1
  O  O412  1  0.73129227  0.63443382  0.55989850  1
  O  O413  1  0.73021296  0.63341075  0.89840697  1
  O  O414  1  0.48963718  0.33062745  0.03196029  1
  O  O415  1  0.50228505  0.34823600  0.36387970  1
  O  O416  1  0.48432079  0.33515473  0.69989428  1
  O  O417  1  0.48517450  0.83508137  0.03387054  1
  O  O418  1  0.49218744  0.82959998  0.36073399  1
  O  O419  1  0.50300964  0.83515001  0.68846947  1
  O  O420  1  0.99151093  0.32807089  0.02921514  1
  O  O421  1  0.99030757  0.32554846  0.35995103  1
  O  O422  1  0.99569585  0.32466545  0.69558600  1
  O  O423  1  1.00021983  0.84793462  0.03556809  1
  O  O424  1  0.98707132  0.82972618  0.36120700  1
  O  O425  1  0.98942516  0.83676916  0.69763349  1
  O  O426  1  0.16553983  0.00806372  0.13942148  1
  O  O427  1  0.17180070  0.00836637  0.47349724  1
  O  O428  1  0.16484721  0.00934207  0.80413581  1
  O  O429  1  0.16021338  0.50639158  0.13412873  1
  O  O430  1  0.16467199  0.51124267  0.46546826  1
  O  O431  1  0.15475617  0.50311425  0.80876375  1
  O  O432  1  0.66739603  0.00830821  0.13582366  1
  O  O433  1  0.66729224  0.01342334  0.47285654  1
  O  O434  1  0.66960530  0.00925747  0.80209636  1
  O  O435  1  0.65251605  0.49400670  0.13740203  1
  O  O436  1  0.67473720  0.50652903  0.46676523  1
  O  O437  1  0.67618285  0.51269451  0.79429703  1
  O  O438  1  0.00669039  0.16261609  0.30146318  1
  O  O439  1  0.00777027  0.16047989  0.63454940  1
  O  O440  1  0.00384689  0.16246392  0.96925488  1
  O  O441  1  0.00565420  0.66883434  0.30447379  1
  O  O442  1  0.00840226  0.67375177  0.63585327  1
  O  O443  1  0.00154689  0.67231254  0.97992075  1
  O  O444  1  0.51138704  0.17143560  0.30587493  1
  O  O445  1  0.50509424  0.16836183  0.63490042  1
  O  O446  1  0.50792572  0.16595783  0.97104103  1
  O  O447  1  0.50768944  0.66635854  0.30294673  1
  O  O448  1  0.51269558  0.65742084  0.62822460  1
  O  O449  1  0.50537062  0.66551095  0.97939757  1
  O  O450  1  0.32818231  0.49281622  0.19655856  1
  O  O451  1  0.32188907  0.48439850  0.53104667  1
  O  O452  1  0.32657399  0.49009353  0.86286849  1
  O  O453  1  0.32994279  0.99319656  0.19990963  1
  O  O454  1  0.34710206  1.00096642  0.52598907  1
  O  O455  1  0.33063167  0.99270738  0.86494636  1
  O  O456  1  0.83385639  0.48938224  0.19837805  1
  O  O457  1  0.83896814  0.48944196  0.52399481  1
  O  O458  1  0.84034066  0.48954729  0.86878586  1
  O  O459  1  0.83335993  0.99207653  0.19825749  1
  O  O460  1  0.83337490  0.99478902  0.52940844  1
  O  O461  1  0.83518661  0.99423180  0.86146571  1
