# generated using pymatgen
data_Na31Fe20(SO4)36
_symmetry_space_group_name_H-M   'P 1'
_cell_length_a   18.08792402
_cell_length_b   18.07769030
_cell_length_c   19.71047070
_cell_angle_alpha   107.58252651
_cell_angle_beta   107.56959765
_cell_angle_gamma   90.77206985
_symmetry_Int_Tables_number   1
_chemical_formula_structural   Na31Fe20(SO4)36
_chemical_formula_sum   'Na62 Fe40 S72 O288'
_cell_volume   5818.40661497
_cell_formula_units_Z   2
loop_
 _symmetry_equiv_pos_site_id
 _symmetry_equiv_pos_as_xyz
  1  'x, y, z'
loop_
 _atom_site_type_symbol
 _atom_site_label
 _atom_site_symmetry_multiplicity
 _atom_site_fract_x
 _atom_site_fract_y
 _atom_site_fract_z
 _atom_site_occupancy
  Na  Na0  1  0.12924708  0.35977047  0.07056559  1
  Na  Na1  1  0.13895332  0.37200270  0.42009979  1
  Na  Na2  1  0.12422425  0.35744904  0.74182765  1
  Na  Na3  1  0.14663596  0.86374917  0.08554624  1
  Na  Na4  1  0.13440313  0.86454476  0.41456347  1
  Na  Na5  1  0.13309934  0.87388643  0.75604560  1
  Na  Na6  1  0.64953584  0.37433158  0.10036788  1
  Na  Na7  1  0.62308818  0.37822354  0.40898133  1
  Na  Na8  1  0.62984534  0.37141280  0.75312342  1
  Na  Na9  1  0.62971459  0.85880275  0.07919762  1
  Na  Na10  1  0.63577204  0.86382618  0.42045727  1
  Na  Na11  1  0.63403254  0.85869282  0.74703845  1
  Na  Na12  1  0.36409106  0.13070943  0.25234898  1
  Na  Na13  1  0.36030283  0.13776313  0.57978592  1
  Na  Na14  1  0.36982127  0.13712938  0.92104107  1
  Na  Na15  1  0.37237514  0.62588514  0.24996629  1
  Na  Na16  1  0.35987627  0.63100655  0.57498901  1
  Na  Na17  1  0.37759705  0.66658697  0.94577370  1
  Na  Na18  1  0.86546317  0.13568328  0.24971924  1
  Na  Na19  1  0.86871894  0.13915606  0.59366119  1
  Na  Na20  1  0.87032583  0.14503458  0.92401660  1
  Na  Na21  1  0.86312241  0.63379866  0.25345370  1
  Na  Na22  1  0.84003403  0.62972742  0.55538278  1
  Na  Na23  1  0.87354980  0.62930871  0.91517952  1
  Na  Na24  1  0.45668550  0.00504211  0.39750519  1
  Na  Na25  1  0.99123474  0.50986135  0.08238114  1
  Na  Na26  1  1.00339311  0.00646425  0.06433268  1
  Na  Na27  1  0.48263091  0.54546108  0.82273406  1
  Na  Na28  1  0.48962485  0.01175438  0.75200876  1
  Na  Na29  1  0.49023405  0.01033887  0.08772499  1
  Na  Na30  1  0.99194097  0.06113561  0.78820797  1
  Na  Na31  1  0.95345722  0.50986477  0.40073336  1
  Na  Na32  1  0.50146539  0.51651664  0.07272929  1
  Na  Na33  1  0.49633572  0.93873633  0.22520254  1
  Na  Na34  1  0.50982465  0.49379557  0.58169583  1
  Na  Na35  1  0.03112560  0.48640602  0.26146503  1
  Na  Na36  1  0.51278414  0.98781129  0.57981515  1
  Na  Na37  1  0.00003415  0.49236187  0.60400235  1
  Na  Na38  1  0.00707523  0.99924272  0.56548112  1
  Na  Na39  1  -0.00015370  0.42955666  0.87526522  1
  Na  Na40  1  0.01403383  0.98874108  0.25822506  1
  Na  Na41  1  0.51356385  0.97952564  0.91748245  1
  Na  Na42  1  0.24326075  0.24433837  0.34669324  1
  Na  Na43  1  0.76060553  0.26151311  0.66179597  1
  Na  Na44  1  0.25608295  0.75206338  0.32334933  1
  Na  Na45  1  0.76372199  0.27477661  0.32151722  1
  Na  Na46  1  0.73388904  0.73663770  0.00413083  1
  Na  Na47  1  0.73705580  0.72614705  0.35207065  1
  Na  Na48  1  0.75622817  0.75506488  0.65466778  1
  Na  Na49  1  0.23994060  0.23934092  0.00641643  1
  Na  Na50  1  0.25704498  0.25796258  0.65637108  1
  Na  Na51  1  0.24039840  0.74340432  0.67357097  1
  Na  Na52  1  0.74206703  0.74217791  0.83912828  1
  Na  Na53  1  0.24109980  0.24474594  0.17337089  1
  Na  Na54  1  0.75095073  0.24658537  0.83650323  1
  Na  Na55  1  0.23836333  0.73619357  0.50054841  1
  Na  Na56  1  0.74416500  0.74151720  0.17505313  1
  Na  Na57  1  0.27597804  0.76902084  0.15108572  1
  Na  Na58  1  0.75612843  0.26092601  0.49013312  1
  Na  Na59  1  0.76474150  0.26459677  0.14902514  1
  Na  Na60  1  0.24644539  0.74569646  0.84943988  1
  Na  Na61  1  0.23687679  0.24278271  0.83705785  1
  Fe  Fe62  1  0.96566180  0.30708828  0.11645149  1
  Fe  Fe63  1  0.96884256  0.30357392  0.45212838  1
  Fe  Fe64  1  0.46374719  0.80350251  0.45050604  1
  Fe  Fe65  1  0.96353656  0.81191145  0.78587658  1
  Fe  Fe66  1  0.46955172  0.79986128  0.78545219  1
  Fe  Fe67  1  0.46483708  0.31431364  0.79193239  1
  Fe  Fe68  1  0.46529514  0.31508952  0.12765002  1
  Fe  Fe69  1  0.46392791  0.30695078  0.45438101  1
  Fe  Fe70  1  0.96723482  0.80582067  0.11750658  1
  Fe  Fe71  1  0.96348955  0.81002032  0.45151813  1
  Fe  Fe72  1  0.19585237  0.03448878  0.71388887  1
  Fe  Fe73  1  0.19157726  0.53653998  0.71527237  1
  Fe  Fe74  1  0.19153620  0.53451419  0.04620325  1
  Fe  Fe75  1  0.69556020  0.53261503  0.04702637  1
  Fe  Fe76  1  0.69179857  0.53866278  0.71488113  1
  Fe  Fe77  1  0.20080904  0.03071095  0.37816561  1
  Fe  Fe78  1  0.19053947  0.03616585  0.04443330  1
  Fe  Fe79  1  0.69012993  0.03534750  0.38072930  1
  Fe  Fe80  1  0.68891362  0.03180569  0.71509722  1
  Fe  Fe81  1  0.69464921  0.03518836  0.05015792  1
  Fe  Fe82  1  0.03370145  0.69259066  0.54549097  1
  Fe  Fe83  1  0.03539134  0.69238244  0.21652169  1
  Fe  Fe84  1  0.03775193  0.69094262  0.87977508  1
  Fe  Fe85  1  0.53983326  0.67743731  0.53396963  1
  Fe  Fe86  1  0.03432060  0.18962026  0.54542711  1
  Fe  Fe87  1  0.53639900  0.19510886  0.88645160  1
  Fe  Fe88  1  0.53285160  0.19316330  0.54958551  1
  Fe  Fe89  1  0.53439720  0.69552076  0.21042848  1
  Fe  Fe90  1  0.53388640  0.19474104  0.21862427  1
  Fe  Fe91  1  0.03747533  0.18903234  0.21368114  1
  Fe  Fe92  1  0.30851198  0.46738326  0.95540793  1
  Fe  Fe93  1  0.80928403  0.46112344  0.95060053  1
  Fe  Fe94  1  0.80687196  0.96716723  0.95137516  1
  Fe  Fe95  1  0.30892454  0.96467694  0.95269217  1
  Fe  Fe96  1  0.81099170  0.96309894  0.28832035  1
  Fe  Fe97  1  0.30603409  0.46706211  0.62011076  1
  Fe  Fe98  1  0.81023224  0.46621780  0.62146801  1
  Fe  Fe99  1  0.30111122  0.47040312  0.29249028  1
  Fe  Fe100  1  0.80625525  0.96228905  0.61872056  1
  Fe  Fe101  1  0.30685847  0.96426129  0.61774677  1
  S  S102  1  0.36240390  0.14401316  0.08493933  1
  S  S103  1  0.35946320  0.14272188  0.41912717  1
  S  S104  1  0.36202636  0.14248939  0.75168227  1
  S  S105  1  0.36173828  0.63771477  0.08655223  1
  S  S106  1  0.35682883  0.64246006  0.41744129  1
  S  S107  1  0.35302577  0.64455257  0.75002756  1
  S  S108  1  0.86213503  0.13785929  0.08477561  1
  S  S109  1  0.85762965  0.13899337  0.41341164  1
  S  S110  1  0.84696988  0.13968755  0.74640979  1
  S  S111  1  0.86209509  0.64142520  0.08169219  1
  S  S112  1  0.86083043  0.64559994  0.41729194  1
  S  S113  1  0.86070846  0.64421440  0.74970045  1
  S  S114  1  0.14110576  0.35563022  0.24946183  1
  S  S115  1  0.13976190  0.35959079  0.58589548  1
  S  S116  1  0.14750533  0.35823190  0.91459081  1
  S  S117  1  0.14211452  0.85609628  0.24870248  1
  S  S118  1  0.14060632  0.86012759  0.58278351  1
  S  S119  1  0.13716513  0.86076212  0.91540408  1
  S  S120  1  0.64129300  0.35427874  0.24909407  1
  S  S121  1  0.63871137  0.35880748  0.58371479  1
  S  S122  1  0.64156457  0.35707102  0.91826939  1
  S  S123  1  0.64535147  0.85837621  0.25216691  1
  S  S124  1  0.63688906  0.85890484  0.58374025  1
  S  S125  1  0.64386104  0.86123182  0.91488868  1
  S  S126  1  0.06496705  0.16902875  0.04137716  1
  S  S127  1  0.07023055  0.16688901  0.37466077  1
  S  S128  1  0.06633773  0.15613739  0.70189281  1
  S  S129  1  0.06976749  0.67125788  0.04464750  1
  S  S130  1  0.06091491  0.66962463  0.37606366  1
  S  S131  1  0.06761821  0.67661578  0.71144965  1
  S  S132  1  0.56743883  0.16500790  0.04392623  1
  S  S133  1  0.56514972  0.16772786  0.37812382  1
  S  S134  1  0.56326832  0.16814186  0.71045595  1
  S  S135  1  0.56856081  0.66790049  0.04335343  1
  S  S136  1  0.56966876  0.67271147  0.37643585  1
  S  S137  1  0.56581496  0.66912334  0.70436272  1
  S  S138  1  0.32372699  0.42925757  0.12461702  1
  S  S139  1  0.33265043  0.43226660  0.46107268  1
  S  S140  1  0.32732036  0.43457602  0.79072597  1
  S  S141  1  0.32989854  0.94370616  0.12057955  1
  S  S142  1  0.33243623  0.93375241  0.45933596  1
  S  S143  1  0.33370097  0.93572687  0.78958074  1
  S  S144  1  0.83786802  0.43991691  0.12613145  1
  S  S145  1  0.84372921  0.43122145  0.46296076  1
  S  S146  1  0.82213473  0.43094790  0.78333104  1
  S  S147  1  0.83063337  0.93080502  0.12386496  1
  S  S148  1  0.82754718  0.93440072  0.45673718  1
  S  S149  1  0.82607565  0.93192197  0.78861033  1
  S  S150  1  0.42398435  0.32636888  0.29055091  1
  S  S151  1  0.43264478  0.33144970  0.62809746  1
  S  S152  1  0.43183198  0.32933862  0.95926388  1
  S  S153  1  0.43662656  0.82540219  0.28954905  1
  S  S154  1  0.43115700  0.83117964  0.62401812  1
  S  S155  1  0.43815184  0.84505892  0.95702070  1
  S  S156  1  0.94091599  0.32819470  0.28748344  1
  S  S157  1  0.93236060  0.32374853  0.62100956  1
  S  S158  1  0.93434521  0.33332142  0.95695284  1
  S  S159  1  0.93515292  0.83238867  0.28988886  1
  S  S160  1  0.93276206  0.83290173  0.62473625  1
  S  S161  1  0.93172658  0.83073329  0.95647477  1
  S  S162  1  0.16454904  0.06346571  0.20667095  1
  S  S163  1  0.17354145  0.06579023  0.54140330  1
  S  S164  1  0.17802762  0.06974856  0.87986789  1
  S  S165  1  0.16503542  0.56330787  0.20662226  1
  S  S166  1  0.16615048  0.56474435  0.54379194  1
  S  S167  1  0.17545454  0.57172243  0.87715186  1
  S  S168  1  0.67004745  0.06735141  0.21152009  1
  S  S169  1  0.66359961  0.06527495  0.54120120  1
  S  S170  1  0.66674471  0.06681911  0.87434632  1
  S  S171  1  0.66921765  0.57350804  0.20877036  1
  S  S172  1  0.67041597  0.56056661  0.54425819  1
  S  S173  1  0.67906393  0.56870962  0.88057665  1
  O  O174  1  0.37420976  0.22246742  0.07643201  1
  O  O175  1  0.36840105  0.22447601  0.41688728  1
  O  O176  1  0.37115153  0.22183225  0.74491657  1
  O  O177  1  0.36600810  0.71307885  0.07505599  1
  O  O178  1  0.36614484  0.72175071  0.40761193  1
  O  O179  1  0.36622186  0.72160240  0.73873416  1
  O  O180  1  0.87058818  0.21729493  0.07890088  1
  O  O181  1  0.86814106  0.21695173  0.40301110  1
  O  O182  1  0.85639967  0.21398112  0.73355065  1
  O  O183  1  0.87093020  0.72053229  0.07325478  1
  O  O184  1  0.87260663  0.72674767  0.41102381  1
  O  O185  1  0.86950915  0.72357648  0.74165941  1
  O  O186  1  0.28198423  0.13759411  0.09034009  1
  O  O187  1  0.28016301  0.13143228  0.42494927  1
  O  O188  1  0.28323497  0.13224072  0.75915366  1
  O  O189  1  0.28567595  0.62282768  0.09863303  1
  O  O190  1  0.28349106  0.63392365  0.43207865  1
  O  O191  1  0.26915062  0.63917214  0.74836972  1
  O  O192  1  0.78338568  0.12769004  0.09367546  1
  O  O193  1  0.77876448  0.13222802  0.42270917  1
  O  O194  1  0.76370833  0.12801527  0.74715953  1
  O  O195  1  0.78165137  0.63251508  0.08634591  1
  O  O196  1  0.78627899  0.63894489  0.42996497  1
  O  O197  1  0.78244978  0.63603744  0.75963570  1
  O  O198  1  0.13599304  0.27313277  0.25230942  1
  O  O199  1  0.12886596  0.28186099  0.59650653  1
  O  O200  1  0.14469654  0.28486726  0.93111662  1
  O  O201  1  0.12770766  0.77949515  0.26136584  1
  O  O202  1  0.13108549  0.77941855  0.58712625  1
  O  O203  1  0.12919267  0.78143180  0.92248694  1
  O  O204  1  0.62626028  0.27524386  0.26003195  1
  O  O205  1  0.62873393  0.28013116  0.59303345  1
  O  O206  1  0.63048621  0.27735804  0.92336940  1
  O  O207  1  0.63412975  0.77741498  0.25775098  1
  O  O208  1  0.62533518  0.78002299  0.59031716  1
  O  O209  1  0.63838035  0.78419712  0.92310488  1
  O  O210  1  0.22120801  0.36869266  0.24518373  1
  O  O211  1  0.22167405  0.37005329  0.58673886  1
  O  O212  1  0.22875463  0.37319748  0.91040394  1
  O  O213  1  0.21793011  0.85928027  0.23776662  1
  O  O214  1  0.21734178  0.86747956  0.56968873  1
  O  O215  1  0.21458874  0.87082547  0.90438251  1
  O  O216  1  0.71464140  0.35113382  0.23078152  1
  O  O217  1  0.71925536  0.36700098  0.57909796  1
  O  O218  1  0.71825641  0.36507336  0.90581238  1
  O  O219  1  0.72724655  0.86696743  0.25005448  1
  O  O220  1  0.71640444  0.86913411  0.57858295  1
  O  O221  1  0.72187938  0.87485576  0.90471036  1
  O  O222  1  0.41923956  0.13512391  0.15401857  1
  O  O223  1  0.41803207  0.13355496  0.48825280  1
  O  O224  1  0.42128747  0.13292041  0.81942205  1
  O  O225  1  0.42460962  0.63276243  0.15570344  1
  O  O226  1  0.42177020  0.63542785  0.48277073  1
  O  O227  1  0.40361248  0.64029443  0.82180368  1
  O  O228  1  0.92103326  0.12664090  0.15104316  1
  O  O229  1  0.91669759  0.13103650  0.48090659  1
  O  O230  1  0.89933107  0.13426985  0.81717503  1
  O  O231  1  0.91915269  0.63498750  0.15150902  1
  O  O232  1  0.92415700  0.63658796  0.48498825  1
  O  O233  1  0.92048763  0.63784948  0.81819727  1
  O  O234  1  0.37257364  0.08409372  0.01866174  1
  O  O235  1  0.37075060  0.08749013  0.35262682  1
  O  O236  1  0.37097783  0.08346490  0.68384784  1
  O  O237  1  0.37342105  0.57480140  0.02164066  1
  O  O238  1  0.36042519  0.58419792  0.34683660  1
  O  O239  1  0.36492285  0.58268855  0.68519213  1
  O  O240  1  0.86930801  0.07934133  0.01551870  1
  O  O241  1  0.86292421  0.07922853  0.34445725  1
  O  O242  1  0.85944226  0.07570055  0.68166128  1
  O  O243  1  0.87389196  0.58223718  0.01597844  1
  O  O244  1  0.86945238  0.58887708  0.35007784  1
  O  O245  1  0.86728034  0.58508862  0.68157602  1
  O  O246  1  0.08390338  0.36246223  0.17899745  1
  O  O247  1  0.08557591  0.36242924  0.51358757  1
  O  O248  1  0.09185311  0.35734038  0.84292799  1
  O  O249  1  0.07988062  0.86552235  0.18207407  1
  O  O250  1  0.07888137  0.87413819  0.51938294  1
  O  O251  1  0.07707844  0.86901922  0.84790981  1
  O  O252  1  0.57797915  0.36008826  0.18083152  1
  O  O253  1  0.58152855  0.36418040  0.51332641  1
  O  O254  1  0.58055714  0.36771948  0.85217811  1
  O  O255  1  0.59041308  0.86823985  0.18491375  1
  O  O256  1  0.57840262  0.87067310  0.51714581  1
  O  O257  1  0.58374652  0.86977590  0.84710144  1
  O  O258  1  0.12735624  0.40991990  0.31491027  1
  O  O259  1  0.12407078  0.42090929  0.64916436  1
  O  O260  1  0.13240368  0.42277938  0.97708064  1
  O  O261  1  0.13583942  0.91799629  0.31699263  1
  O  O262  1  0.13913453  0.91608890  0.65473058  1
  O  O263  1  0.12958451  0.91906948  0.98377430  1
  O  O264  1  0.64256152  0.41509274  0.31658130  1
  O  O265  1  0.62659574  0.41894984  0.64881795  1
  O  O266  1  0.63804054  0.41505204  0.98852705  1
  O  O267  1  0.63552543  0.91560471  0.32079672  1
  O  O268  1  0.62689213  0.91790934  0.65210978  1
  O  O269  1  0.63564979  0.92248340  0.98259668  1
  O  O270  1  0.03069594  0.19896302  0.10527526  1
  O  O271  1  0.03345858  0.19551366  0.43599541  1
  O  O272  1  0.03057412  0.17062036  0.76025542  1
  O  O273  1  0.03076182  0.70004345  0.10450227  1
  O  O274  1  0.03152107  0.71200724  0.44037476  1
  O  O275  1  0.03027341  0.70508166  0.77179860  1
  O  O276  1  0.53115209  0.19172212  0.10436122  1
  O  O277  1  0.52817803  0.19780503  0.43916882  1
  O  O278  1  0.52825380  0.19825156  0.77197988  1
  O  O279  1  0.53531026  0.69272377  0.10737358  1
  O  O280  1  0.52572386  0.70460494  0.43352249  1
  O  O281  1  0.52701339  0.69678256  0.76189638  1
  O  O282  1  0.29286610  0.46511727  0.06324105  1
  O  O283  1  0.31260682  0.46780609  0.40130292  1
  O  O284  1  0.29750996  0.47419212  0.73184928  1
  O  O285  1  0.28931586  0.97624179  0.05589503  1
  O  O286  1  0.30539089  0.97121120  0.40077110  1
  O  O287  1  0.30170329  0.97074888  0.72699117  1
  O  O288  1  0.80377441  0.47047060  0.05952828  1
  O  O289  1  0.82730231  0.46340993  0.40197045  1
  O  O290  1  0.79024924  0.47433321  0.72704747  1
  O  O291  1  0.80054570  0.96676558  0.06245010  1
  O  O292  1  0.79901210  0.97357066  0.39742106  1
  O  O293  1  0.79271330  0.96752782  0.72720348  1
  O  O294  1  0.46333445  0.29738582  0.23118081  1
  O  O295  1  0.47057638  0.30069083  0.56790282  1
  O  O296  1  0.46934831  0.29967371  0.89831854  1
  O  O297  1  0.47808312  0.79324899  0.23293731  1
  O  O298  1  0.46583228  0.80471644  0.56268202  1
  O  O299  1  0.46701938  0.82123130  0.89149261  1
  O  O300  1  0.97659909  0.29067178  0.22642461  1
  O  O301  1  0.96649670  0.29282723  0.55642393  1
  O  O302  1  0.96920775  0.31487303  0.89781091  1
  O  O303  1  0.97097191  0.80013296  0.22861040  1
  O  O304  1  0.97101433  0.80265610  0.56520727  1
  O  O305  1  0.96769227  0.80171714  0.89552797  1
  O  O306  1  0.18976424  0.02970775  0.26772225  1
  O  O307  1  0.20309584  0.02792114  0.60229605  1
  O  O308  1  0.21210619  0.03104419  0.93924725  1
  O  O309  1  0.19303050  0.52544877  0.26471108  1
  O  O310  1  0.19870359  0.53006141  0.60755854  1
  O  O311  1  0.20620868  0.53625284  0.93889727  1
  O  O312  1  0.69758720  0.02854893  0.27109582  1
  O  O313  1  0.69096464  0.02613260  0.60001956  1
  O  O314  1  0.70070807  0.03596131  0.93860249  1
  O  O315  1  0.68826805  0.54259557  0.26981223  1
  O  O316  1  0.70448128  0.52889107  0.61014496  1
  O  O317  1  0.71060030  0.52662043  0.93779789  1
  O  O318  1  0.08947930  0.08951101  0.04292568  1
  O  O319  1  0.09369293  0.08752529  0.37182449  1
  O  O320  1  0.08914846  0.07304255  0.68511035  1
  O  O321  1  0.08423640  0.58876739  0.03854981  1
  O  O322  1  0.06467491  0.58813332  0.37368818  1
  O  O323  1  0.08789616  0.59594911  0.70716620  1
  O  O324  1  0.58295988  0.08092602  0.03534704  1
  O  O325  1  0.58114816  0.08543730  0.37272100  1
  O  O326  1  0.57779679  0.08443070  0.70433130  1
  O  O327  1  0.59194993  0.58693504  0.03680675  1
  O  O328  1  0.58536828  0.59514320  0.37558665  1
  O  O329  1  0.58502993  0.58723033  0.70017300  1
  O  O330  1  0.40472072  0.41279089  0.12741236  1
  O  O331  1  0.41509705  0.41120982  0.47516307  1
  O  O332  1  0.40905056  0.41783170  0.79332811  1
  O  O333  1  0.40857560  0.93031953  0.11457500  1
  O  O334  1  0.41490482  0.91572931  0.46464888  1
  O  O335  1  0.41575308  0.92053975  0.79299726  1
  O  O336  1  0.91936300  0.41920623  0.12728843  1
  O  O337  1  0.92796357  0.41118924  0.47989374  1
  O  O338  1  0.89516046  0.40485599  0.77470221  1
  O  O339  1  0.91300760  0.91445885  0.12984695  1
  O  O340  1  0.90888349  0.91573534  0.46072775  1
  O  O341  1  0.90691093  0.91607081  0.79133960  1
  O  O342  1  0.39907451  0.40316984  0.29092784  1
  O  O343  1  0.41437181  0.41221164  0.63122388  1
  O  O344  1  0.41443790  0.41076947  0.96432588  1
  O  O345  1  0.41853088  0.90372034  0.28655763  1
  O  O346  1  0.41712840  0.91590776  0.63433411  1
  O  O347  1  0.41833550  0.92946053  0.96460677  1
  O  O348  1  0.93422231  0.40960646  0.29055838  1
  O  O349  1  0.91188580  0.40467967  0.62400220  1
  O  O350  1  0.91508388  0.41799909  0.97128429  1
  O  O351  1  0.91802699  0.91353204  0.29087957  1
  O  O352  1  0.91348855  0.91345928  0.62584206  1
  O  O353  1  0.91163661  0.91182194  0.96129277  1
  O  O354  1  0.07975989  0.07894800  0.19557581  1
  O  O355  1  0.09165972  0.08194685  0.53497566  1
  O  O356  1  0.10203040  0.09046945  0.88351541  1
  O  O357  1  0.08219602  0.58193468  0.20311960  1
  O  O358  1  0.08639248  0.58640572  0.54520538  1
  O  O359  1  0.09613800  0.59273036  0.87629246  1
  O  O360  1  0.58832715  0.08587253  0.20559839  1
  O  O361  1  0.58027357  0.08058614  0.53475474  1
  O  O362  1  0.58440179  0.08325707  0.87195074  1
  O  O363  1  0.58583640  0.59735035  0.19269062  1
  O  O364  1  0.58717910  0.57334005  0.54094691  1
  O  O365  1  0.60477571  0.59461724  0.88533992  1
  O  O366  1  0.13630595  0.22232494  0.05880693  1
  O  O367  1  0.13593482  0.22310292  0.38692218  1
  O  O368  1  0.13592271  0.21175870  0.71951604  1
  O  O369  1  0.14183159  0.72212871  0.06353628  1
  O  O370  1  0.13643411  0.71296295  0.38792332  1
  O  O371  1  0.13815989  0.73123753  0.72973365  1
  O  O372  1  0.63887943  0.21471685  0.05890105  1
  O  O373  1  0.63639996  0.21927222  0.39472134  1
  O  O374  1  0.63468607  0.21817788  0.72507636  1
  O  O375  1  0.63981660  0.72311556  0.06292846  1
  O  O376  1  0.63736822  0.73082259  0.39734226  1
  O  O377  1  0.63859599  0.72078323  0.72272989  1
  O  O378  1  0.27272489  0.35698555  0.10843952  1
  O  O379  1  0.27750601  0.36352577  0.44451888  1
  O  O380  1  0.27619706  0.36169818  0.77110754  1
  O  O381  1  0.28235808  0.87061555  0.10662069  1
  O  O382  1  0.28093356  0.86244155  0.44412978  1
  O  O383  1  0.28294566  0.86436573  0.77458710  1
  O  O384  1  0.78728576  0.36915626  0.11287877  1
  O  O385  1  0.78963142  0.36046296  0.44638266  1
  O  O386  1  0.76298794  0.36530006  0.76860942  1
  O  O387  1  0.77928012  0.85934239  0.10821289  1
  O  O388  1  0.77476708  0.86458913  0.44009846  1
  O  O389  1  0.77545468  0.85952755  0.77268525  1
  O  O390  1  0.35728126  0.26809797  0.27531021  1
  O  O391  1  0.36307071  0.27863514  0.61330637  1
  O  O392  1  0.36065638  0.27637947  0.94083583  1
  O  O393  1  0.36586365  0.77186395  0.27231173  1
  O  O394  1  0.35808546  0.78217434  0.60795164  1
  O  O395  1  0.36656396  0.79506411  0.94272729  1
  O  O396  1  0.86541307  0.28068575  0.26862786  1
  O  O397  1  0.85894590  0.27161113  0.60079953  1
  O  O398  1  0.86313211  0.28153250  0.94138525  1
  O  O399  1  0.86418815  0.78154505  0.27539825  1
  O  O400  1  0.86317520  0.78056800  0.61082272  1
  O  O401  1  0.86215431  0.77758809  0.94228656  1
  O  O402  1  0.21480184  0.13636159  0.22329951  1
  O  O403  1  0.22493029  0.13782282  0.56063135  1
  O  O404  1  0.23365967  0.13856341  0.89457547  1
  O  O405  1  0.21551617  0.63484553  0.22136433  1
  O  O406  1  0.21879570  0.63715684  0.56157256  1
  O  O407  1  0.22958582  0.63942998  0.88932846  1
  O  O408  1  0.72365501  0.13740049  0.22869115  1
  O  O409  1  0.71398904  0.13774024  0.55889039  1
  O  O410  1  0.71553081  0.13584724  0.88201377  1
  O  O411  1  0.72336012  0.64353589  0.22208285  1
  O  O412  1  0.71525769  0.63680155  0.56260746  1
  O  O413  1  0.73744713  0.63583382  0.89654206  1
  O  O414  1  0.49049419  0.33068742  0.03134380  1
  O  O415  1  0.48452982  0.33175767  0.36377429  1
  O  O416  1  0.49261631  0.33437928  0.70108926  1
  O  O417  1  0.50011092  0.84877969  0.02566207  1
  O  O418  1  0.49213000  0.83386530  0.36624339  1
  O  O419  1  0.49024027  0.83013302  0.69575022  1
  O  O420  1  0.99289736  0.33310113  0.03049480  1
  O  O421  1  0.99481233  0.32466441  0.36077046  1
  O  O422  1  0.99093418  0.32367821  0.68971050  1
  O  O423  1  0.99253813  0.83622328  0.02968532  1
  O  O424  1  0.99417286  0.83746627  0.36324699  1
  O  O425  1  0.99254781  0.83896356  0.69858012  1
  O  O426  1  0.16407578  0.00521430  0.13415173  1
  O  O427  1  0.17503163  0.00724502  0.47000163  1
  O  O428  1  0.17257391  0.01118093  0.80523195  1
  O  O429  1  0.15771923  0.50572586  0.13071382  1
  O  O430  1  0.16172728  0.50607785  0.47353534  1
  O  O431  1  0.16809001  0.50999339  0.80383397  1
  O  O432  1  0.66731097  0.00800354  0.13830130  1
  O  O433  1  0.66383010  0.00777223  0.46850454  1
  O  O434  1  0.65882569  0.00260590  0.80233988  1
  O  O435  1  0.66733913  0.51252305  0.13560412  1
  O  O436  1  0.67403475  0.50269759  0.47675187  1
  O  O437  1  0.67022316  0.51117033  0.80466149  1
  O  O438  1  0.00757185  0.15817023  0.30135057  1
  O  O439  1  0.00737221  0.15528828  0.62776169  1
  O  O440  1  0.00535669  0.16240204  0.97107930  1
  O  O441  1  0.00310346  0.67320888  0.30430012  1
  O  O442  1  0.00897655  0.67352970  0.63901201  1
  O  O443  1  0.01185226  0.67230957  0.97247287  1
  O  O444  1  0.50610444  0.16660786  0.30605822  1
  O  O445  1  0.50400741  0.16536608  0.63754002  1
  O  O446  1  0.50778943  0.16376716  0.97129396  1
  O  O447  1  0.51382416  0.67364249  0.30073805  1
  O  O448  1  0.51035659  0.66517353  0.62909102  1
  O  O449  1  0.50898662  0.66664036  0.97416815  1
  O  O450  1  0.32445290  0.48782288  0.19656986  1
  O  O451  1  0.33296346  0.49308387  0.53337713  1
  O  O452  1  0.33106492  0.49140756  0.86404228  1
  O  O453  1  0.33498373  1.00269925  0.19172218  1
  O  O454  1  0.33800427  0.99218604  0.53446610  1
  O  O455  1  0.33546569  0.99560011  0.86115914  1
  O  O456  1  0.84387885  0.50271635  0.19462519  1
  O  O457  1  0.84244427  0.49113849  0.53549106  1
  O  O458  1  0.83432619  0.48796733  0.86039266  1
  O  O459  1  0.83203378  0.99050984  0.19592777  1
  O  O460  1  0.83177762  0.99376532  0.53023509  1
  O  O461  1  0.82744088  0.99141948  0.86056020  1
