# generated using pymatgen
data_Na31Fe20(SO4)36
_symmetry_space_group_name_H-M   'P 1'
_cell_length_a   18.06656109
_cell_length_b   18.07145782
_cell_length_c   19.70314545
_cell_angle_alpha   107.57341782
_cell_angle_beta   107.56772588
_cell_angle_gamma   90.74730166
_symmetry_Int_Tables_number   1
_chemical_formula_structural   Na31Fe20(SO4)36
_chemical_formula_sum   'Na62 Fe40 S72 O288'
_cell_volume   5808.09198093
_cell_formula_units_Z   2
loop_
 _symmetry_equiv_pos_site_id
 _symmetry_equiv_pos_as_xyz
  1  'x, y, z'
loop_
 _atom_site_type_symbol
 _atom_site_label
 _atom_site_symmetry_multiplicity
 _atom_site_fract_x
 _atom_site_fract_y
 _atom_site_fract_z
 _atom_site_occupancy
  Na  Na0  1  0.13396023  0.36623190  0.08601083  1
  Na  Na1  1  0.13480150  0.35416255  0.40045923  1
  Na  Na2  1  0.13318397  0.36701012  0.74507572  1
  Na  Na3  1  0.12884426  0.86775805  0.08105958  1
  Na  Na4  1  0.13037129  0.86877067  0.41917160  1
  Na  Na5  1  0.13924634  0.86500806  0.75281508  1
  Na  Na6  1  0.63747710  0.36650851  0.07969556  1
  Na  Na7  1  0.63381076  0.36352000  0.42421376  1
  Na  Na8  1  0.63954793  0.36120321  0.75318445  1
  Na  Na9  1  0.63797109  0.86439163  0.08808622  1
  Na  Na10  1  0.63099354  0.87129231  0.41582611  1
  Na  Na11  1  0.63895892  0.86472651  0.74444346  1
  Na  Na12  1  0.36927866  0.15889107  0.27539139  1
  Na  Na13  1  0.35956379  0.12474977  0.57541849  1
  Na  Na14  1  0.37004670  0.14062862  0.91903326  1
  Na  Na15  1  0.36377791  0.63590008  0.24894411  1
  Na  Na16  1  0.36651360  0.64149981  0.58566406  1
  Na  Na17  1  0.36009002  0.63483028  0.90945118  1
  Na  Na18  1  0.88399523  0.12805658  0.25341776  1
  Na  Na19  1  0.86977215  0.12580906  0.58205483  1
  Na  Na20  1  0.86035796  0.12705185  0.90718558  1
  Na  Na21  1  0.85354951  0.63442478  0.23659314  1
  Na  Na22  1  0.85886807  0.63382592  0.58214288  1
  Na  Na23  1  0.86113955  0.63671884  0.91597747  1
  Na  Na24  1  0.48740023  0.50810103  0.74686758  1
  Na  Na25  1  0.98077818  0.50932572  0.44499400  1
  Na  Na26  1  0.49839969  0.49436611  0.41723490  1
  Na  Na27  1  0.95822287  0.51324897  0.69675087  1
  Na  Na28  1  0.97680617  0.50685223  0.08628271  1
  Na  Na29  1  0.97909002  -0.00110201  0.76069651  1
  Na  Na30  1  0.99331867  0.04294616  0.10221799  1
  Na  Na31  1  0.48532315  0.03762392  0.75057995  1
  Na  Na32  1  0.51007482  0.50130678  0.08283141  1
  Na  Na33  1  0.00299836  0.49802702  0.90762668  1
  Na  Na34  1  0.00503250  0.47902536  0.26040404  1
  Na  Na35  1  0.52426380  0.98553075  0.58318664  1
  Na  Na36  1  0.51146154  0.45520344  0.57432145  1
  Na  Na37  1  0.01759636  0.95821452  0.53602903  1
  Na  Na38  1  0.55295798  0.49070265  0.92675629  1
  Na  Na39  1  0.51186632  0.48989822  0.24916079  1
  Na  Na40  1  0.50419668  0.99068219  0.24984526  1
  Na  Na41  1  0.49864826  1.00660790  0.92584297  1
  Na  Na42  1  0.24837439  0.75583842  0.67625998  1
  Na  Na43  1  0.25459328  0.24849439  0.66201828  1
  Na  Na44  1  0.75173145  0.25098280  0.33744454  1
  Na  Na45  1  0.25042091  0.75568305  0.33373556  1
  Na  Na46  1  0.24290611  0.24381949  0.00814679  1
  Na  Na47  1  0.74635316  0.24537399  0.66988023  1
  Na  Na48  1  0.25850855  0.76052654  -0.01509403  1
  Na  Na49  1  0.73162744  0.23368223  0.00145514  1
  Na  Na50  1  0.74053694  0.73267216  0.01977207  1
  Na  Na51  1  0.76515877  0.76120689  0.32296184  1
  Na  Na52  1  0.25609940  0.76440187  0.50398682  1
  Na  Na53  1  0.74952129  0.74776963  0.50539494  1
  Na  Na54  1  0.75561777  0.75765672  0.82262363  1
  Na  Na55  1  0.26838771  0.25897311  0.47763813  1
  Na  Na56  1  0.25173320  0.75451757  0.15861002  1
  Na  Na57  1  0.75883196  0.25605613  0.50506012  1
  Na  Na58  1  0.23268126  0.24038593  0.19080303  1
  Na  Na59  1  0.25744448  0.25305265  0.83109578  1
  Na  Na60  1  0.72306124  0.22060854  0.83592695  1
  Na  Na61  1  0.74900077  0.24674286  0.17074996  1
  Fe  Fe62  1  0.46878601  0.30480423  0.78987699  1
  Fe  Fe63  1  0.96674775  0.30038705  0.12100084  1
  Fe  Fe64  1  0.46715817  0.80535730  0.45343066  1
  Fe  Fe65  1  0.96956181  0.30680299  0.45539156  1
  Fe  Fe66  1  0.46468306  0.80501698  0.11543724  1
  Fe  Fe67  1  0.46357027  0.30566388  0.11595593  1
  Fe  Fe68  1  0.96590280  0.30546514  0.78237191  1
  Fe  Fe69  1  0.96146284  0.81558955  0.12471230  1
  Fe  Fe70  1  0.96469851  0.81138678  0.78914289  1
  Fe  Fe71  1  0.46701558  0.80664469  0.78544167  1
  Fe  Fe72  1  0.18422563  0.54031902  0.70934161  1
  Fe  Fe73  1  0.69210511  0.03762210  0.37954381  1
  Fe  Fe74  1  0.70061798  0.52843482  0.70994158  1
  Fe  Fe75  1  0.68935131  0.03364814  0.04572088  1
  Fe  Fe76  1  0.18836881  0.03551948  0.37764075  1
  Fe  Fe77  1  0.19130035  0.53503426  0.04604638  1
  Fe  Fe78  1  0.20325522  0.02978647  0.71019014  1
  Fe  Fe79  1  0.69488708  0.53162235  0.38660142  1
  Fe  Fe80  1  0.19311243  0.53889617  0.38160220  1
  Fe  Fe81  1  0.19118741  0.03469673  0.04834059  1
  Fe  Fe82  1  0.02685286  0.70553543  0.54617259  1
  Fe  Fe83  1  0.53439037  0.69072978  0.88206419  1
  Fe  Fe84  1  0.53676564  0.69064664  0.21428152  1
  Fe  Fe85  1  0.53206870  0.19245215  0.21434702  1
  Fe  Fe86  1  0.03900264  0.18488918  0.54274541  1
  Fe  Fe87  1  0.52882262  0.19600272  0.54083819  1
  Fe  Fe88  1  0.53860842  0.69176623  0.55130493  1
  Fe  Fe89  1  0.03772787  0.19131135  0.87776645  1
  Fe  Fe90  1  0.03388389  0.69548367  0.88075068  1
  Fe  Fe91  1  0.03236996  0.69726412  0.21651117  1
  Fe  Fe92  1  0.81140459  0.96269961  0.28835581  1
  Fe  Fe93  1  0.30567037  0.46748871  0.94975796  1
  Fe  Fe94  1  0.79668318  0.96959355  0.62130140  1
  Fe  Fe95  1  0.80536901  0.96390410  0.95094706  1
  Fe  Fe96  1  0.80411152  0.46706360  0.28663804  1
  Fe  Fe97  1  0.31115518  0.96324044  0.28943369  1
  Fe  Fe98  1  0.30499251  0.46750848  0.61388504  1
  Fe  Fe99  1  0.31120331  0.96461316  0.95487770  1
  Fe  Fe100  1  0.30764767  0.46662375  0.28432844  1
  Fe  Fe101  1  0.80176363  0.46706112  0.95290062  1
  S  S102  1  0.35752838  0.14132106  0.08604212  1
  S  S103  1  0.36031866  0.13628071  0.41582893  1
  S  S104  1  0.35863221  0.14617591  0.75141620  1
  S  S105  1  0.35739529  0.64060471  0.08250362  1
  S  S106  1  0.36033655  0.64135604  0.41663393  1
  S  S107  1  0.35896320  0.63879786  0.74839551  1
  S  S108  1  0.85444041  0.14146890  0.08014308  1
  S  S109  1  0.86009681  0.14017961  0.41567822  1
  S  S110  1  0.86121701  0.14024152  0.75137111  1
  S  S111  1  0.86353107  0.63916893  0.08184458  1
  S  S112  1  0.85663230  0.64050323  0.41751173  1
  S  S113  1  0.85988521  0.64629699  0.75474800  1
  S  S114  1  0.13885637  0.36508383  0.24746580  1
  S  S115  1  0.14397378  0.36153570  0.58186450  1
  S  S116  1  0.14046110  0.36040807  0.91620875  1
  S  S117  1  0.14101484  0.85874054  0.24864768  1
  S  S118  1  0.14722892  0.85619059  0.59287760  1
  S  S119  1  0.14172707  0.86087882  0.91781743  1
  S  S120  1  0.63815210  0.36044347  0.24952528  1
  S  S121  1  0.64267324  0.35395056  0.58756514  1
  S  S122  1  0.64462595  0.35597814  0.91422101  1
  S  S123  1  0.63765714  0.86083624  0.24961039  1
  S  S124  1  0.64036671  0.85555882  0.57912423  1
  S  S125  1  0.64157517  0.85380230  0.92060528  1
  S  S126  1  0.06806843  0.17112156  0.04193158  1
  S  S127  1  0.07104398  0.17388054  0.37970291  1
  S  S128  1  0.07478600  0.17086566  0.71033027  1
  S  S129  1  0.06738957  0.66689195  0.04084224  1
  S  S130  1  0.06884581  0.66854699  0.37498551  1
  S  S131  1  0.06460375  0.67380709  0.70934271  1
  S  S132  1  0.56437104  0.17267936  0.04627414  1
  S  S133  1  0.57038409  0.17232756  0.37714220  1
  S  S134  1  0.56017499  0.17049378  0.70215029  1
  S  S135  1  0.56018850  0.66588306  0.04215807  1
  S  S136  1  0.56461556  0.66489446  0.37468810  1
  S  S137  1  0.56501422  0.66189071  0.70804627  1
  S  S138  1  0.32994141  0.43635624  0.12192445  1
  S  S139  1  0.33175373  0.44270041  0.45675299  1
  S  S140  1  0.33181433  0.43530423  0.78997331  1
  S  S141  1  0.32978989  0.93072837  0.12406294  1
  S  S142  1  0.33260410  0.92890051  0.45846905  1
  S  S143  1  0.33800464  0.93787437  0.79740609  1
  S  S144  1  0.83317959  0.42867132  0.12408344  1
  S  S145  1  0.82851790  0.43153225  0.45982859  1
  S  S146  1  0.83323131  0.43303522  0.79108510  1
  S  S147  1  0.82768864  0.93505928  0.12199308  1
  S  S148  1  0.82059399  0.93236287  0.45349367  1
  S  S149  1  0.83037548  0.93164056  0.79279292  1
  S  S150  1  0.43620725  0.33974217  0.28878521  1
  S  S151  1  0.43079802  0.33032426  0.62433762  1
  S  S152  1  0.43302773  0.33894223  0.96051270  1
  S  S153  1  0.43299899  0.82548261  0.28691162  1
  S  S154  1  0.44414778  0.83242717  0.62707589  1
  S  S155  1  0.43438946  0.82766133  0.95695665  1
  S  S156  1  0.93146608  0.33775211  0.29531112  1
  S  S157  1  0.93730554  0.32042431  0.61975458  1
  S  S158  1  0.93091483  0.32650284  0.95541750  1
  S  S159  1  0.93406267  0.82954253  0.29093582  1
  S  S160  1  0.92969652  0.83444243  0.62738012  1
  S  S161  1  0.93225749  0.83078210  0.95942092  1
  S  S162  1  0.17575513  0.06385088  0.21142150  1
  S  S163  1  0.16790372  0.06242560  0.54063296  1
  S  S164  1  0.17602172  0.06829749  0.87609766  1
  S  S165  1  0.16825800  0.57126824  0.20758904  1
  S  S166  1  0.16903407  0.57508679  0.54371982  1
  S  S167  1  0.16685113  0.56741980  0.87463671  1
  S  S168  1  0.66998437  0.06939132  0.21038275  1
  S  S169  1  0.66814852  0.07340855  0.54019044  1
  S  S170  1  0.66082745  0.05281790  0.87539392  1
  S  S171  1  0.66537339  0.56273369  0.21140184  1
  S  S172  1  0.66471917  0.56483215  0.54180213  1
  S  S173  1  0.67121723  0.56757907  0.87360830  1
  O  O174  1  0.36741816  0.21872676  0.07373756  1
  O  O175  1  0.36204008  0.21205699  0.40433664  1
  O  O176  1  0.36529788  0.23117249  0.75392824  1
  O  O177  1  0.36339808  0.72142259  0.07783084  1
  O  O178  1  0.36960082  0.71934123  0.40625898  1
  O  O179  1  0.36931570  0.71739654  0.74010555  1
  O  O180  1  0.86542812  0.22091314  0.07279674  1
  O  O181  1  0.87194473  0.21972015  0.40866905  1
  O  O182  1  0.87405139  0.21861478  0.74195642  1
  O  O183  1  0.87847925  0.71587685  0.07021136  1
  O  O184  1  0.86054060  0.71779797  0.41046355  1
  O  O185  1  0.86738261  0.72999428  0.75935898  1
  O  O186  1  0.27615621  0.13360957  0.08950473  1
  O  O187  1  0.28557612  0.11948483  0.42994492  1
  O  O188  1  0.27517963  0.13409350  0.75139228  1
  O  O189  1  0.27929657  0.62923761  0.09246887  1
  O  O190  1  0.28163606  0.63537155  0.42609313  1
  O  O191  1  0.28036643  0.62839276  0.75543560  1
  O  O192  1  0.77191430  0.13505567  0.08246388  1
  O  O193  1  0.77988949  0.13534123  0.42292222  1
  O  O194  1  0.78798163  0.13508376  0.76699326  1
  O  O195  1  0.78756760  0.63389709  0.09165533  1
  O  O196  1  0.78113223  0.62496536  0.43192972  1
  O  O197  1  0.78240827  0.63090251  0.76408363  1
  O  O198  1  0.13489558  0.28864920  0.25650125  1
  O  O199  1  0.13678463  0.28413822  0.59262774  1
  O  O200  1  0.13244563  0.28111971  0.92384460  1
  O  O201  1  0.13105075  0.77956792  0.25715448  1
  O  O202  1  0.12541884  0.78110259  0.60561986  1
  O  O203  1  0.13078103  0.78165333  0.92601929  1
  O  O204  1  0.63076798  0.28139857  0.25757697  1
  O  O205  1  0.62182896  0.27481649  0.59554762  1
  O  O206  1  0.63913603  0.27532442  0.91504070  1
  O  O207  1  0.62897984  0.78272605  0.25993305  1
  O  O208  1  0.63466158  0.77362482  0.58077740  1
  O  O209  1  0.63099700  0.77597720  0.93139163  1
  O  O210  1  0.21537042  0.37996327  0.23447614  1
  O  O211  1  0.22225280  0.37151592  0.57150306  1
  O  O212  1  0.21856737  0.36978971  0.90649438  1
  O  O213  1  0.21986087  0.86467964  0.23883031  1
  O  O214  1  0.22933449  0.85690878  0.59718305  1
  O  O215  1  0.22270833  0.86987191  0.91456378  1
  O  O216  1  0.71654213  0.36986522  0.24003717  1
  O  O217  1  0.72308735  0.35440696  0.58700811  1
  O  O218  1  0.72108094  0.37075451  0.90101362  1
  O  O219  1  0.71654753  0.87112450  0.24340077  1
  O  O220  1  0.71867316  0.86902839  0.57035695  1
  O  O221  1  0.72192049  0.86217542  0.91590680  1
  O  O222  1  0.41283534  0.13867972  0.15802689  1
  O  O223  1  0.42361635  0.13485021  0.48611610  1
  O  O224  1  0.41263212  0.13498773  0.81896083  1
  O  O225  1  0.41794516  0.63006165  0.14832000  1
  O  O226  1  0.41935266  0.63328547  0.48409083  1
  O  O227  1  0.41849002  0.62979529  0.81611054  1
  O  O228  1  0.90951114  0.13243897  0.14785801  1
  O  O229  1  0.91714857  0.13004841  0.48307185  1
  O  O230  1  0.92671392  0.12840994  0.81455654  1
  O  O231  1  0.92562341  0.62816087  0.14839482  1
  O  O232  1  0.92047538  0.63128781  0.48350627  1
  O  O233  1  0.92150767  0.63242055  0.81987544  1
  O  O234  1  0.36886153  0.08031832  0.02123076  1
  O  O235  1  0.37195426  0.07491467  0.35090463  1
  O  O236  1  0.37038255  0.09559191  0.68291852  1
  O  O237  1  0.36315971  0.58497040  0.01202584  1
  O  O238  1  0.36681466  0.58146335  0.34800893  1
  O  O239  1  0.36921710  0.57947428  0.68083673  1
  O  O240  1  0.86410819  0.08267719  0.01233487  1
  O  O241  1  0.86461847  0.08136279  0.34639433  1
  O  O242  1  0.86357390  0.08058087  0.68065869  1
  O  O243  1  0.87163758  0.57711942  0.01398366  1
  O  O244  1  0.86255442  0.58005111  0.34843639  1
  O  O245  1  0.86658656  0.59567278  0.68394507  1
  O  O246  1  0.07634664  0.37325657  0.18037347  1
  O  O247  1  0.08373604  0.36950580  0.51489148  1
  O  O248  1  0.07997872  0.37017408  0.84992587  1
  O  O249  1  0.08207747  0.86553041  0.18033910  1
  O  O250  1  0.09612968  0.86086169  0.52088335  1
  O  O251  1  0.08509730  0.86738960  0.84836247  1
  O  O252  1  0.57838190  0.36990586  0.18237018  1
  O  O253  1  0.58740180  0.36507962  0.52057910  1
  O  O254  1  0.58249037  0.36838140  0.84805584  1
  O  O255  1  0.57847702  0.86672289  0.18016314  1
  O  O256  1  0.58096862  0.86366809  0.50941468  1
  O  O257  1  0.58492127  0.85745654  0.84954160  1
  O  O258  1  0.13019902  0.42658708  0.31494090  1
  O  O259  1  0.13900703  0.42199388  0.65105642  1
  O  O260  1  0.13368329  0.41843690  0.98559655  1
  O  O261  1  0.13565295  0.91743759  0.31717344  1
  O  O262  1  0.13441644  0.92048893  0.65652377  1
  O  O263  1  0.13224133  0.91978583  0.98518038  1
  O  O264  1  0.62962268  0.41913570  0.31758646  1
  O  O265  1  0.63348276  0.41411941  0.65584800  1
  O  O266  1  0.63789140  0.41231488  0.98299200  1
  O  O267  1  0.62490974  0.92150665  0.31463381  1
  O  O268  1  0.62923274  0.91148972  0.64487679  1
  O  O269  1  0.62987316  0.91449495  0.98589189  1
  O  O270  1  0.02718896  0.19938919  0.09802033  1
  O  O271  1  0.03472840  0.20495466  0.44337970  1
  O  O272  1  0.03594346  0.20206586  0.77021071  1
  O  O273  1  0.03713146  0.69760169  0.10479134  1
  O  O274  1  0.03675247  0.69030988  0.43721964  1
  O  O275  1  0.02780462  0.70474663  0.77084168  1
  O  O276  1  0.53099569  0.20309414  0.11111608  1
  O  O277  1  0.53663804  0.19382049  0.43937813  1
  O  O278  1  0.52314492  0.20349333  0.76063700  1
  O  O279  1  0.52400486  0.70256493  0.10348436  1
  O  O280  1  0.52780253  0.69577580  0.43491265  1
  O  O281  1  0.52919847  0.69284744  0.76999500  1
  O  O282  1  0.29890369  0.47119045  0.05973011  1
  O  O283  1  0.29374844  0.47517745  0.39293488  1
  O  O284  1  0.30392518  0.47018905  0.72803927  1
  O  O285  1  0.30135853  0.96966586  0.06503084  1
  O  O286  1  0.30096005  0.95559913  0.39039744  1
  O  O287  1  0.31201012  0.97785010  0.74100004  1
  O  O288  1  0.81229007  0.46326898  0.06319318  1
  O  O289  1  0.79518418  0.46158342  0.39280223  1
  O  O290  1  0.80768385  0.47285254  0.73419984  1
  O  O291  1  0.79678733  0.97428738  0.06269609  1
  O  O292  1  0.78997587  0.97315832  0.39404449  1
  O  O293  1  0.80784243  0.96575825  0.73149288  1
  O  O294  1  0.46715965  0.30307503  0.22390436  1
  O  O295  1  0.46698722  0.29903842  0.56440425  1
  O  O296  1  0.46942659  0.31726523  0.90150452  1
  O  O297  1  0.46835573  0.79270945  0.22515764  1
  O  O298  1  0.47779632  0.79358281  0.56404036  1
  O  O299  1  0.46854477  0.79548499  0.89405822  1
  O  O300  1  0.96345833  0.31449759  0.23271845  1
  O  O301  1  0.97777354  0.28763789  0.56146482  1
  O  O302  1  0.97028466  0.29898464  0.89593371  1
  O  O303  1  0.96669980  0.79745848  0.22443975  1
  O  O304  1  0.96740627  0.80910548  0.56845850  1
  O  O305  1  0.97478819  0.80546153  0.90248393  1
  O  O306  1  0.20852169  0.02566125  0.27192684  1
  O  O307  1  0.19107971  0.02391490  0.59866956  1
  O  O308  1  0.20253233  0.03241852  0.93816185  1
  O  O309  1  0.20130488  0.53958978  0.27105316  1
  O  O310  1  0.19913526  0.53648325  0.60373222  1
  O  O311  1  0.19696705  0.52836735  0.93436863  1
  O  O312  1  0.70167172  0.03201090  0.27033366  1
  O  O313  1  0.69425290  0.03408038  0.59747240  1
  O  O314  1  0.70088996  0.02004914  0.94013244  1
  O  O315  1  0.69716711  0.53163442  0.27698697  1
  O  O316  1  0.68815972  0.53061312  0.60295139  1
  O  O317  1  0.69825540  0.53187989  0.93382181  1
  O  O318  1  0.08876227  0.09129866  0.04205145  1
  O  O319  1  0.09274821  0.09492712  0.38016916  1
  O  O320  1  0.09763178  0.09294242  0.71121511  1
  O  O321  1  0.08170101  0.58258022  0.03269565  1
  O  O322  1  0.08703254  0.58455170  0.36066019  1
  O  O323  1  0.07724424  0.59020726  0.70437928  1
  O  O324  1  0.58797723  0.09316390  0.04453012  1
  O  O325  1  0.58647735  0.08896982  0.35973936  1
  O  O326  1  0.56664939  0.08746776  0.69341729  1
  O  O327  1  0.56972501  0.58474384  0.04043379  1
  O  O328  1  0.58030729  0.58212630  0.37035489  1
  O  O329  1  0.57926531  0.57890933  0.70169319  1
  O  O330  1  0.41270326  0.42072949  0.12827639  1
  O  O331  1  0.41373206  0.43552855  0.46056297  1
  O  O332  1  0.41480054  0.41983326  0.79941375  1
  O  O333  1  0.41026363  0.90919903  0.12700924  1
  O  O334  1  0.41279941  0.90449722  0.46059296  1
  O  O335  1  0.41927211  0.91544424  0.80173490  1
  O  O336  1  0.91735686  0.41152305  0.13711990  1
  O  O337  1  0.90756281  0.40760786  0.45809778  1
  O  O338  1  0.91552841  0.41298946  0.79663762  1
  O  O339  1  0.90936455  0.92008342  0.12505895  1
  O  O340  1  0.89871015  0.91384114  0.45456573  1
  O  O341  1  0.91397933  0.91446778  0.80514755  1
  O  O342  1  0.41749667  0.42148966  0.28680868  1
  O  O343  1  0.41389805  0.41294202  0.62555868  1
  O  O344  1  0.41324563  0.42210020  0.97236832  1
  O  O345  1  0.41688128  0.90646066  0.28912928  1
  O  O346  1  0.43970179  0.91456520  0.63279247  1
  O  O347  1  0.41610576  0.90826727  0.96018044  1
  O  O348  1  0.91519842  0.42260762  0.30878677  1
  O  O349  1  0.91356765  0.39563433  0.61524666  1
  O  O350  1  0.91439989  0.40911497  0.96221794  1
  O  O351  1  0.90580582  0.90535437  0.28554627  1
  O  O352  1  0.90600027  0.91478030  0.63246089  1
  O  O353  1  0.91288433  0.91204153  0.96723273  1
  O  O354  1  0.09714003  0.08157856  0.20924393  1
  O  O355  1  0.08401965  0.07880908  0.53081072  1
  O  O356  1  0.09331980  0.08499414  0.86552367  1
  O  O357  1  0.08577777  0.58670180  0.20137775  1
  O  O358  1  0.08936502  0.59595578  0.54115561  1
  O  O359  1  0.08553541  0.58482021  0.87205619  1
  O  O360  1  0.58945778  0.08802625  0.20919869  1
  O  O361  1  0.58872914  0.09891233  0.53960126  1
  O  O362  1  0.58125066  0.06613721  0.87848770  1
  O  O363  1  0.58257588  0.58194014  0.20937347  1
  O  O364  1  0.58098484  0.58310824  0.53095418  1
  O  O365  1  0.58612699  0.58110038  0.86485944  1
  O  O366  1  0.13977722  0.22531896  0.06092098  1
  O  O367  1  0.14181157  0.22786763  0.39856461  1
  O  O368  1  0.14252600  0.22791821  0.72594316  1
  O  O369  1  0.13972146  0.71496554  0.05228010  1
  O  O370  1  0.14053587  0.72034043  0.39030677  1
  O  O371  1  0.13861824  0.72095661  0.72733463  1
  O  O372  1  0.63427493  0.22782710  0.06278898  1
  O  O373  1  0.64221935  0.22478672  0.39543445  1
  O  O374  1  0.63667540  0.21650100  0.72099523  1
  O  O375  1  0.63272549  0.71408310  0.05719833  1
  O  O376  1  0.63659093  0.71449269  0.38960552  1
  O  O377  1  0.63648126  0.71220589  0.72335379  1
  O  O378  1  0.27965455  0.36454850  0.10646349  1
  O  O379  1  0.28575436  0.36949420  0.44383563  1
  O  O380  1  0.27947882  0.36399151  0.77386375  1
  O  O381  1  0.27506553  0.86006030  0.10526799  1
  O  O382  1  0.27889028  0.85926330  0.44676486  1
  O  O383  1  0.28402260  0.86880995  0.78281132  1
  O  O384  1  0.78050472  0.35758732  0.10758932  1
  O  O385  1  0.77534912  0.36146751  0.44674167  1
  O  O386  1  0.78082681  0.36179494  0.77375052  1
  O  O387  1  0.77696372  0.86241915  0.10325061  1
  O  O388  1  0.76502292  0.86190294  0.43308811  1
  O  O389  1  0.77787458  0.86171322  0.77819041  1
  O  O390  1  0.36437601  0.29235819  0.27792532  1
  O  O391  1  0.35798788  0.28092182  0.60910318  1
  O  O392  1  0.36249093  0.28579007  0.94489377  1
  O  O393  1  0.35986461  0.77516049  0.27058929  1
  O  O394  1  0.36896385  0.78599515  0.61053090  1
  O  O395  1  0.36475918  0.77563304  0.94437645  1
  O  O396  1  0.85949832  0.28679409  0.28014841  1
  O  O397  1  0.87068198  0.26331562  0.60631157  1
  O  O398  1  0.85968552  0.27370890  0.93664024  1
  O  O399  1  0.86830577  0.77261432  0.27846113  1
  O  O400  1  0.86260802  0.77793037  0.61316413  1
  O  O401  1  0.86184159  0.77560757  0.93739419  1
  O  O402  1  0.23076550  0.13237248  0.22642865  1
  O  O403  1  0.21858993  0.13568468  0.56021374  1
  O  O404  1  0.22783334  0.14144165  0.89599500  1
  O  O405  1  0.21829124  0.64286539  0.22000293  1
  O  O406  1  0.22423082  0.64460431  0.56075354  1
  O  O407  1  0.21915647  0.63826686  0.89239608  1
  O  O408  1  0.72237937  0.14069238  0.22580147  1
  O  O409  1  0.72399623  0.14195518  0.55511361  1
  O  O410  1  0.71017287  0.12712664  0.89244899  1
  O  O411  1  0.71487094  0.63375377  0.22427867  1
  O  O412  1  0.71681284  0.63359810  0.55419955  1
  O  O413  1  0.71904055  0.64204955  0.89155641  1
  O  O414  1  0.49277926  0.34003268  0.03357989  1
  O  O415  1  0.49840510  0.34988156  0.35949802  1
  O  O416  1  0.48839774  0.33816342  0.69939517  1
  O  O417  1  0.49586906  0.83073943  0.02861528  1
  O  O418  1  0.49120728  0.82568788  0.35857704  1
  O  O419  1  0.50018165  0.82575885  0.69857083  1
  O  O420  1  0.98904595  0.32813401  0.02874091  1
  O  O421  1  0.99250695  0.33658242  0.36581183  1
  O  O422  1  0.99642397  0.32950343  0.69544983  1
  O  O423  1  0.98916434  0.83014164  0.03254750  1
  O  O424  1  0.99809516  0.84098900  0.35996461  1
  O  O425  1  0.99015830  0.84245969  0.70277293  1
  O  O426  1  0.17331290  0.00405756  0.13748641  1
  O  O427  1  0.17026868  0.00607293  0.46833249  1
  O  O428  1  0.18018508  0.00992696  0.80616742  1
  O  O429  1  0.16665764  0.50968534  0.13617345  1
  O  O430  1  0.16459268  0.51520742  0.47071022  1
  O  O431  1  0.16422972  0.50979045  0.80113474  1
  O  O432  1  0.66614052  0.01059476  0.13716377  1
  O  O433  1  0.65848325  0.01547751  0.46443986  1
  O  O434  1  0.65891719  -0.00409137  0.80445554  1
  O  O435  1  0.65752804  0.50021239  0.14147536  1
  O  O436  1  0.66109610  0.50220134  0.46929491  1
  O  O437  1  0.67221658  0.51026164  0.80108411  1
  O  O438  1  0.01179767  0.17121839  0.31011325  1
  O  O439  1  0.01534929  0.16409637  0.63653402  1
  O  O440  1  0.01375434  0.16510422  0.96564596  1
  O  O441  1  0.00791047  0.66965020  0.30421719  1
  O  O442  1  0.00590235  0.67419160  0.63782032  1
  O  O443  1  0.00647159  0.66539401  0.96927687  1
  O  O444  1  0.50976994  0.17906253  0.30844078  1
  O  O445  1  0.50609131  0.17718011  0.62852868  1
  O  O446  1  0.50294289  0.16745110  0.97688540  1
  O  O447  1  0.50525528  0.66189413  0.30144091  1
  O  O448  1  0.50546179  0.66182755  0.63608987  1
  O  O449  1  0.50227884  0.66456931  0.96816659  1
  O  O450  1  0.33043384  0.49662402  0.19333452  1
  O  O451  1  0.32966692  0.50220305  0.52851558  1
  O  O452  1  0.32957648  0.49479327  0.86132112  1
  O  O453  1  0.33603929  0.98808887  0.19824873  1
  O  O454  1  0.33991482  0.99222725  0.52679779  1
  O  O455  1  0.34654599  0.99610172  0.87418393  1
  O  O456  1  0.83131033  0.48865371  0.19556454  1
  O  O457  1  0.83558879  0.49480314  0.52839585  1
  O  O458  1  0.83869528  0.49013991  0.86681519  1
  O  O459  1  0.82812916  0.99175575  0.19490876  1
  O  O460  1  0.82065024  0.98930251  0.52678698  1
  O  O461  1  0.82983383  0.99237408  0.86427238  1
