# generated using pymatgen
data_Na31Fe20(SO4)36
_symmetry_space_group_name_H-M   'P 1'
_cell_length_a   18.07600147
_cell_length_b   18.07754920
_cell_length_c   19.71589788
_cell_angle_alpha   107.58031729
_cell_angle_beta   107.55463609
_cell_angle_gamma   90.73202265
_symmetry_Int_Tables_number   1
_chemical_formula_structural   Na31Fe20(SO4)36
_chemical_formula_sum   'Na62 Fe40 S72 O288'
_cell_volume   5817.27041843
_cell_formula_units_Z   2
loop_
 _symmetry_equiv_pos_site_id
 _symmetry_equiv_pos_as_xyz
  1  'x, y, z'
loop_
 _atom_site_type_symbol
 _atom_site_label
 _atom_site_symmetry_multiplicity
 _atom_site_fract_x
 _atom_site_fract_y
 _atom_site_fract_z
 _atom_site_occupancy
  Na  Na0  1  0.13475700  0.36131817  0.07957653  1
  Na  Na1  1  0.12622958  0.36757912  0.41552671  1
  Na  Na2  1  0.13218121  0.34393293  0.72526690  1
  Na  Na3  1  0.15154877  0.85293045  0.08526535  1
  Na  Na4  1  0.12643067  0.86373336  0.41219500  1
  Na  Na5  1  0.14639142  0.86995527  0.76348394  1
  Na  Na6  1  0.63337978  0.38676816  0.08749774  1
  Na  Na7  1  0.62855821  0.37020864  0.41326666  1
  Na  Na8  1  0.64188226  0.36053304  0.75536226  1
  Na  Na9  1  0.64328363  0.87138655  0.09758854  1
  Na  Na10  1  0.63075883  0.86083931  0.40169633  1
  Na  Na11  1  0.63451779  0.86414475  0.75009487  1
  Na  Na12  1  0.36779605  0.13331883  0.25508378  1
  Na  Na13  1  0.34324149  0.12880825  0.57164039  1
  Na  Na14  1  0.36618460  0.12641634  0.91386754  1
  Na  Na15  1  0.37428232  0.63712798  0.25089700  1
  Na  Na16  1  0.36401296  0.63317994  0.57951632  1
  Na  Na17  1  0.36366529  0.64089401  0.92093874  1
  Na  Na18  1  0.86103653  0.12342735  0.24247675  1
  Na  Na19  1  0.87273110  0.13566687  0.58381088  1
  Na  Na20  1  0.86989317  0.14477955  0.92639003  1
  Na  Na21  1  0.87574346  0.62237598  0.24909508  1
  Na  Na22  1  0.86260235  0.63211491  0.57697785  1
  Na  Na23  1  0.86238190  0.63634253  0.91990063  1
  Na  Na24  1  1.01399418  0.45850767  0.14948008  1
  Na  Na25  1  0.48853021  0.50363873  0.74966484  1
  Na  Na26  1  0.98978175  0.01769306  0.74361902  1
  Na  Na27  1  0.97336868  0.02369464  0.41565383  1
  Na  Na28  1  0.46213028  0.01065871  0.06433681  1
  Na  Na29  1  0.48557266  0.00776714  0.76205537  1
  Na  Na30  1  0.98484303  0.01277622  0.08693176  1
  Na  Na31  1  0.51709629  0.58639740  0.14139745  1
  Na  Na32  1  0.99634772  0.50769872  0.74964687  1
  Na  Na33  1  0.50675755  1.00026316  0.56746182  1
  Na  Na34  1  0.50608730  0.49521464  0.56593913  1
  Na  Na35  1  0.01377689  0.49995777  0.55778520  1
  Na  Na36  1  0.50356953  0.97987623  0.26818656  1
  Na  Na37  1  0.01417483  0.95833552  0.56417810  1
  Na  Na38  1  0.03691510  0.98753028  0.26701485  1
  Na  Na39  1  -0.00510141  0.49276237  0.93252660  1
  Na  Na40  1  0.53122025  0.49196188  0.93839895  1
  Na  Na41  1  0.02151468  0.98856724  0.91466117  1
  Na  Na42  1  0.76521917  0.26655921  -0.01028991  1
  Na  Na43  1  0.25697867  0.75551954  0.66737331  1
  Na  Na44  1  0.77381056  0.76750500  0.33150487  1
  Na  Na45  1  0.23500302  0.23588213  0.34608755  1
  Na  Na46  1  0.74325776  0.24191198  0.67667512  1
  Na  Na47  1  0.75218742  0.24821897  0.32747697  1
  Na  Na48  1  0.25822573  0.75778438  0.32005198  1
  Na  Na49  1  0.25164265  0.25081219  0.00015905  1
  Na  Na50  1  0.75740051  0.75656604  0.66034474  1
  Na  Na51  1  0.74234749  0.73681005  0.00973957  1
  Na  Na52  1  0.75322728  0.25317637  0.49915651  1
  Na  Na53  1  0.76267785  0.75867701  0.48767199  1
  Na  Na54  1  0.74331959  0.74147617  0.83581075  1
  Na  Na55  1  0.75998173  0.25809180  0.15517009  1
  Na  Na56  1  0.21386738  0.22567984  0.51466076  1
  Na  Na57  1  0.24538402  0.24145584  0.17404600  1
  Na  Na58  1  0.25157160  0.75372701  0.49330353  1
  Na  Na59  1  0.24528410  0.74740394  0.84500434  1
  Na  Na60  1  0.25626354  0.25723582  0.82252545  1
  Na  Na61  1  0.74512301  0.74454550  0.17272319  1
  Fe  Fe62  1  0.96406614  0.30089882  0.45729923  1
  Fe  Fe63  1  0.46268027  0.81397395  0.79470753  1
  Fe  Fe64  1  0.46299982  0.30660525  0.78326560  1
  Fe  Fe65  1  0.46818568  0.80368086  0.44772203  1
  Fe  Fe66  1  0.46334999  0.80510498  0.12345812  1
  Fe  Fe67  1  0.46259275  0.30445742  0.44831422  1
  Fe  Fe68  1  0.96744636  0.30698001  0.78630468  1
  Fe  Fe69  1  0.96609542  0.80497257  0.78554701  1
  Fe  Fe70  1  0.46743678  0.31393353  0.12181146  1
  Fe  Fe71  1  0.96731869  0.80922666  0.12066801  1
  Fe  Fe72  1  0.68683705  0.03171976  0.04444244  1
  Fe  Fe73  1  0.20581818  0.02821176  0.04424807  1
  Fe  Fe74  1  0.19362895  0.53688172  0.71499794  1
  Fe  Fe75  1  0.19171002  0.03445059  0.71488428  1
  Fe  Fe76  1  0.69288303  0.53258518  0.71352189  1
  Fe  Fe77  1  0.19428320  0.54071578  0.04850522  1
  Fe  Fe78  1  0.19161735  0.53314999  0.37679709  1
  Fe  Fe79  1  0.68781286  0.53927591  0.37748907  1
  Fe  Fe80  1  0.69213150  0.03792979  0.71494979  1
  Fe  Fe81  1  0.69519167  0.03382196  0.37482854  1
  Fe  Fe82  1  0.03592429  0.69193022  0.88624369  1
  Fe  Fe83  1  0.53628557  0.69187379  0.88288018  1
  Fe  Fe84  1  0.03471534  0.69222434  0.21314004  1
  Fe  Fe85  1  0.03500414  0.19834086  0.88477669  1
  Fe  Fe86  1  0.53100262  0.18931614  0.54355179  1
  Fe  Fe87  1  0.53514710  0.69102268  0.54593246  1
  Fe  Fe88  1  0.53351278  0.19573934  0.21215152  1
  Fe  Fe89  1  0.03182452  0.69817155  0.53887487  1
  Fe  Fe90  1  0.03082643  0.19715885  0.21093015  1
  Fe  Fe91  1  0.53620538  0.19429216  0.88233915  1
  Fe  Fe92  1  0.30484691  0.46487596  0.61537707  1
  Fe  Fe93  1  0.80443756  0.46410232  0.61796879  1
  Fe  Fe94  1  0.80613321  0.96288634  0.94975080  1
  Fe  Fe95  1  0.80170088  0.46705139  0.96081565  1
  Fe  Fe96  1  0.31029838  0.46486266  0.28522427  1
  Fe  Fe97  1  0.30568537  0.96356062  0.61899141  1
  Fe  Fe98  1  0.81291410  0.46470774  0.28837331  1
  Fe  Fe99  1  0.31096557  0.47159399  0.95503945  1
  Fe  Fe100  1  0.30172440  0.96817942  0.29150855  1
  Fe  Fe101  1  0.80658009  0.96622644  0.61662836  1
  S  S102  1  0.36034194  0.14847433  0.08502524  1
  S  S103  1  0.35487318  0.14416087  0.42034088  1
  S  S104  1  0.36130754  0.14005606  0.75090821  1
  S  S105  1  0.35219788  0.64711891  0.08072115  1
  S  S106  1  0.35985250  0.63870941  0.41647140  1
  S  S107  1  0.36214888  0.63850163  0.75015893  1
  S  S108  1  0.85632027  0.13548685  0.08037419  1
  S  S109  1  0.85300167  0.14432267  0.41671096  1
  S  S110  1  0.85971043  0.14084240  0.75127524  1
  S  S111  1  0.86142617  0.64240208  0.07991489  1
  S  S112  1  0.86086335  0.63823350  0.42048064  1
  S  S113  1  0.86007407  0.63957699  0.74918646  1
  S  S114  1  0.14658959  0.35813380  0.25154860  1
  S  S115  1  0.13679729  0.36608620  0.58038443  1
  S  S116  1  0.14281732  0.36417101  0.91653199  1
  S  S117  1  0.14208948  0.85526836  0.24678617  1
  S  S118  1  0.14549093  0.85495711  0.58860142  1
  S  S119  1  0.13862876  0.85841229  0.91448675  1
  S  S120  1  0.64212758  0.36041708  0.25097968  1
  S  S121  1  0.63691591  0.35828254  0.58272728  1
  S  S122  1  0.63746499  0.35674265  0.91250319  1
  S  S123  1  0.63827813  0.86168940  0.24764902  1
  S  S124  1  0.64149265  0.86133703  0.58575018  1
  S  S125  1  0.64245621  0.85563945  0.91436608  1
  S  S126  1  0.07144756  0.16614467  0.04252741  1
  S  S127  1  0.05904691  0.16954288  0.37401498  1
  S  S128  1  0.06418600  0.16697460  0.71236805  1
  S  S129  1  0.06424047  0.66576007  0.03704750  1
  S  S130  1  0.07183698  0.66648148  0.37271930  1
  S  S131  1  0.06652047  0.66923217  0.70710662  1
  S  S132  1  0.56702983  0.17220405  0.04180044  1
  S  S133  1  0.56842694  0.17236780  0.37640689  1
  S  S134  1  0.56355875  0.16669980  0.70507919  1
  S  S135  1  0.56196276  0.67296261  0.04412339  1
  S  S136  1  0.56894870  0.67451734  0.38251924  1
  S  S137  1  0.56540477  0.66464194  0.70706212  1
  S  S138  1  0.32840658  0.43498002  0.12133495  1
  S  S139  1  0.32871443  0.43211141  0.45506629  1
  S  S140  1  0.33103344  0.43410310  0.79053064  1
  S  S141  1  0.33614102  0.93600072  0.13138954  1
  S  S142  1  0.33334282  0.92717517  0.45974397  1
  S  S143  1  0.33262249  0.93629208  0.79230239  1
  S  S144  1  0.82351946  0.42650050  0.12021951  1
  S  S145  1  0.82772128  0.42838785  0.45808209  1
  S  S146  1  0.83044594  0.43539846  0.79099346  1
  S  S147  1  0.83252169  0.93074615  0.11867204  1
  S  S148  1  0.82981774  0.93980025  0.45836652  1
  S  S149  1  0.83190249  0.93413915  0.78998727  1
  S  S150  1  0.43258546  0.32869709  0.28928696  1
  S  S151  1  0.42926243  0.32975648  0.62057335  1
  S  S152  1  0.43198207  0.33097253  0.95550481  1
  S  S153  1  0.42935635  0.83312138  0.29231236  1
  S  S154  1  0.43505315  0.82767311  0.62702198  1
  S  S155  1  0.43444948  0.82669930  0.95688509  1
  S  S156  1  0.92807500  0.32157072  0.29202368  1
  S  S157  1  0.93099098  0.33515601  0.62705467  1
  S  S158  1  0.93679857  0.33720647  0.95881643  1
  S  S159  1  0.94103982  0.83590784  0.28852217  1
  S  S160  1  0.93505308  0.83117968  0.62652448  1
  S  S161  1  0.93206354  0.82877802  0.95476679  1
  S  S162  1  0.17155109  0.06649564  0.20577668  1
  S  S163  1  0.16289261  0.05025538  0.54288982  1
  S  S164  1  0.16556610  0.06933061  0.87619163  1
  S  S165  1  0.17448784  0.56564850  0.20843714  1
  S  S166  1  0.17400751  0.57306789  0.54381933  1
  S  S167  1  0.16801410  0.56556560  0.87109444  1
  S  S168  1  0.65695538  0.07047281  0.20107008  1
  S  S169  1  0.67149132  0.06819019  0.54240437  1
  S  S170  1  0.67116084  0.06738324  0.87660423  1
  S  S171  1  0.68391155  0.57503718  0.22490593  1
  S  S172  1  0.67061270  0.56683910  0.54507540  1
  S  S173  1  0.66697501  0.56334347  0.87246606  1
  O  O174  1  0.36854531  0.23057766  0.08249450  1
  O  O175  1  0.36904231  0.22116112  0.40787403  1
  O  O176  1  0.37026399  0.22040850  0.74662828  1
  O  O177  1  0.36775048  0.72627257  0.07353610  1
  O  O178  1  0.36836759  0.71893659  0.41085046  1
  O  O179  1  0.37291972  0.71784631  0.74365461  1
  O  O180  1  0.85979668  0.21252635  0.07169782  1
  O  O181  1  0.86208496  0.23003731  0.42096319  1
  O  O182  1  0.87029505  0.21871963  0.74171808  1
  O  O183  1  0.87861186  0.71672504  0.06416452  1
  O  O184  1  0.86216170  0.71655093  0.41377641  1
  O  O185  1  0.86798544  0.71917914  0.74193863  1
  O  O186  1  0.27972713  0.13620747  0.08892771  1
  O  O187  1  0.28008046  0.14207910  0.43424680  1
  O  O188  1  0.28508241  0.13041194  0.76367119  1
  O  O189  1  0.27050071  0.63886596  0.08039334  1
  O  O190  1  0.28151254  0.62927460  0.42612587  1
  O  O191  1  0.28314219  0.63072820  0.75855642  1
  O  O192  1  0.77945633  0.11979080  0.09117911  1
  O  O193  1  0.77088635  0.13593296  0.42052954  1
  O  O194  1  0.77828973  0.13088510  0.75253137  1
  O  O195  1  0.78370061  0.64364402  0.08819981  1
  O  O196  1  0.78568107  0.62210361  0.43556820  1
  O  O197  1  0.78144579  0.63006688  0.75811012  1
  O  O198  1  0.13479903  0.27793188  0.25719597  1
  O  O199  1  0.13120067  0.28994021  0.59004319  1
  O  O200  1  0.13383749  0.28818913  0.93101717  1
  O  O201  1  0.13333351  0.77302497  0.24846879  1
  O  O202  1  0.13276397  0.77576042  0.59621111  1
  O  O203  1  0.12545466  0.77771106  0.91711357  1
  O  O204  1  0.62971624  0.28277353  0.26160239  1
  O  O205  1  0.62693431  0.27853641  0.58866406  1
  O  O206  1  0.63118739  0.27532818  0.91662718  1
  O  O207  1  0.63626674  0.78828158  0.26448850  1
  O  O208  1  0.63096454  0.78401546  0.59693362  1
  O  O209  1  0.63765811  0.77475665  0.91977873  1
  O  O210  1  0.22867600  0.36554803  0.24838109  1
  O  O211  1  0.21221476  0.37847712  0.56562530  1
  O  O212  1  0.22346460  0.37269027  0.91185643  1
  O  O213  1  0.22238352  0.86740860  0.24302289  1
  O  O214  1  0.22849899  0.86041205  0.58783994  1
  O  O215  1  0.21099008  0.86731245  0.89835429  1
  O  O216  1  0.72160762  0.36534179  0.24375890  1
  O  O217  1  0.71551374  0.36727427  0.57414471  1
  O  O218  1  0.71624922  0.36904935  0.90556582  1
  O  O219  1  0.70879556  0.87539957  0.22933923  1
  O  O220  1  0.72144178  0.86721637  0.57868420  1
  O  O221  1  0.71852663  0.86662628  0.90051541  1
  O  O222  1  0.41673873  0.14053680  0.15505023  1
  O  O223  1  0.41783909  0.13562888  0.48643584  1
  O  O224  1  0.42395182  0.12873859  0.81609763  1
  O  O225  1  0.40630595  0.63762686  0.14871131  1
  O  O226  1  0.41936248  0.63018235  0.48410385  1
  O  O227  1  0.42105439  0.62713334  0.81640264  1
  O  O228  1  0.91891395  0.12723118  0.14669004  1
  O  O229  1  0.90868908  0.13036576  0.48153095  1
  O  O230  1  0.91517847  0.13437618  0.82184027  1
  O  O231  1  0.92036160  0.63373174  0.14784236  1
  O  O232  1  0.92360273  0.63271293  0.48875480  1
  O  O233  1  0.92003730  0.63044764  0.81605486  1
  O  O234  1  0.37239736  0.09328471  0.01903669  1
  O  O235  1  0.35764757  0.08325734  0.35127305  1
  O  O236  1  0.36720555  0.08281529  0.68101620  1
  O  O237  1  0.36334916  0.58790234  0.01289941  1
  O  O238  1  0.36585707  0.58145052  0.34723397  1
  O  O239  1  0.36922871  0.57965049  0.68115248  1
  O  O240  1  0.86654072  0.07564914  0.01231605  1
  O  O241  1  0.86014835  0.09441022  0.34605189  1
  O  O242  1  0.87300539  0.08005903  0.68641005  1
  O  O243  1  0.86553243  0.57812236  0.01251349  1
  O  O244  1  0.87100211  0.57990980  0.35361898  1
  O  O245  1  0.86749892  0.58156898  0.68044043  1
  O  O246  1  0.09206130  0.36765550  0.18395674  1
  O  O247  1  0.07268073  0.37530034  0.51460967  1
  O  O248  1  0.08585005  0.36534182  0.84460225  1
  O  O249  1  0.08520995  0.86416303  0.17656675  1
  O  O250  1  0.09209708  0.86401394  0.52055634  1
  O  O251  1  0.07252258  0.87362517  0.85278016  1
  O  O252  1  0.58424721  0.36622602  0.18146384  1
  O  O253  1  0.57718074  0.36978822  0.51648483  1
  O  O254  1  0.57813713  0.36322766  0.84230812  1
  O  O255  1  0.56943605  0.86463648  0.18064469  1
  O  O256  1  0.58326472  0.87068324  0.51843480  1
  O  O257  1  0.58093227  0.86340613  0.84785979  1
  O  O258  1  0.13943035  0.41537087  0.32110968  1
  O  O259  1  0.13071245  0.42818118  0.64849234  1
  O  O260  1  0.13038484  0.42727001  0.97981498  1
  O  O261  1  0.12956127  0.91002234  0.31275096  1
  O  O262  1  0.13543066  0.91353017  0.65674736  1
  O  O263  1  0.13653581  0.91504506  0.98684202  1
  O  O264  1  0.63488310  0.42129454  0.31802202  1
  O  O265  1  0.63065502  0.41626121  0.65212859  1
  O  O266  1  0.62428709  0.41247279  0.97768622  1
  O  O267  1  0.62765028  0.92594412  0.31313988  1
  O  O268  1  0.63491786  0.92230008  0.65390346  1
  O  O269  1  0.63738586  0.91158450  0.98456065  1
  O  O270  1  0.03577263  0.18746557  0.10260193  1
  O  O271  1  0.01931287  0.20443521  0.43095910  1
  O  O272  1  0.03176589  0.19896898  0.77837179  1
  O  O273  1  0.03398358  0.69779746  0.10113941  1
  O  O274  1  0.03768512  0.69202670  0.43369404  1
  O  O275  1  0.02872839  0.69739192  0.76740960  1
  O  O276  1  0.52967251  0.20447460  0.10230856  1
  O  O277  1  0.52995248  0.20122249  0.43650656  1
  O  O278  1  0.52931416  0.19832215  0.76708593  1
  O  O279  1  0.52214531  0.70828968  0.10127097  1
  O  O280  1  0.53303541  0.70719329  0.44696975  1
  O  O281  1  0.53145790  0.69360259  0.76907049  1
  O  O282  1  0.29885729  0.47532761  0.06260101  1
  O  O283  1  0.30158460  0.47113550  0.39617232  1
  O  O284  1  0.30002756  0.46820051  0.72755029  1
  O  O285  1  0.31364503  0.97635292  0.07396083  1
  O  O286  1  0.30876728  0.96353203  0.40100770  1
  O  O287  1  0.30205786  0.97025255  0.72837959  1
  O  O288  1  0.79713933  0.46756953  0.06356816  1
  O  O289  1  0.80311596  0.46274259  0.39649468  1
  O  O290  1  0.80014258  0.47108407  0.72855003  1
  O  O291  1  0.79915627  0.95977922  0.05155201  1
  O  O292  1  0.79292091  0.97484868  0.39938964  1
  O  O293  1  0.80191223  0.97023579  0.72902492  1
  O  O294  1  0.47234056  0.30143255  0.23023871  1
  O  O295  1  0.46700896  0.30061919  0.56060989  1
  O  O296  1  0.46927796  0.29940940  0.89496804  1
  O  O297  1  0.46038835  0.81024563  0.22758600  1
  O  O298  1  0.47175295  0.79919042  0.56644900  1
  O  O299  1  0.47809228  0.79424702  0.89983759  1
  O  O300  1  0.96916653  0.29562503  0.23622278  1
  O  O301  1  0.96676857  0.31158869  0.56739689  1
  O  O302  1  0.97006767  0.30395008  0.89373039  1
  O  O303  1  0.97076825  0.79374720  0.22154170  1
  O  O304  1  0.97128738  0.80410828  0.56731796  1
  O  O305  1  0.96591779  0.79510524  0.89222530  1
  O  O306  1  0.19680972  0.02804888  0.26391811  1
  O  O307  1  0.20416435  0.02293377  0.61224555  1
  O  O308  1  0.19003039  0.03416811  0.93641146  1
  O  O309  1  0.20298520  0.52571193  0.26758190  1
  O  O310  1  0.20495178  0.53878642  0.60674632  1
  O  O311  1  0.20128583  0.53205233  0.93312560  1
  O  O312  1  0.67854952  0.04149773  0.26516168  1
  O  O313  1  0.70142983  0.03009612  0.60301877  1
  O  O314  1  0.69629594  0.02711664  0.93519266  1
  O  O315  1  0.71805601  0.53073682  0.28185247  1
  O  O316  1  0.70034043  0.52797575  0.60531571  1
  O  O317  1  0.69605255  0.52865318  0.93219906  1
  O  O318  1  0.08979963  0.08329063  0.02861191  1
  O  O319  1  0.07319303  0.09039599  0.37585010  1
  O  O320  1  0.08143124  0.08441738  0.70865906  1
  O  O321  1  0.08564550  0.58518874  0.03481457  1
  O  O322  1  0.09348720  0.58556690  0.36467149  1
  O  O323  1  0.08090236  0.58528848  0.69926031  1
  O  O324  1  0.58336661  0.09085499  0.03780906  1
  O  O325  1  0.58846264  0.09232592  0.37282256  1
  O  O326  1  0.58060289  0.08416825  0.70103918  1
  O  O327  1  0.57653994  0.59433309  0.04761562  1
  O  O328  1  0.59319645  0.59774867  0.38794588  1
  O  O329  1  0.58055483  0.58092616  0.69861496  1
  O  O330  1  0.40701657  0.41331100  0.12126398  1
  O  O331  1  0.40936284  0.41079389  0.45969577  1
  O  O332  1  0.41418803  0.41891938  0.79592973  1
  O  O333  1  0.41877406  0.91331751  0.13563758  1
  O  O334  1  0.41532020  0.90495880  0.46880160  1
  O  O335  1  0.41407613  0.91647771  0.79234642  1
  O  O336  1  0.89810020  0.39660771  0.12058848  1
  O  O337  1  0.90858138  0.40584616  0.46750663  1
  O  O338  1  0.91421018  0.42180818  0.79851390  1
  O  O339  1  0.91593852  0.91574251  0.12203585  1
  O  O340  1  0.91010974  0.92762000  0.45947800  1
  O  O341  1  0.91450506  0.91814291  0.79634765  1
  O  O342  1  0.40990844  0.40707270  0.29139274  1
  O  O343  1  0.41465363  0.41346098  0.62701635  1
  O  O344  1  0.41409084  0.41172987  0.95667826  1
  O  O345  1  0.40862134  0.91456306  0.30302652  1
  O  O346  1  0.41760117  0.90995527  0.63446906  1
  O  O347  1  0.42157801  0.90614233  0.95898562  1
  O  O348  1  0.90563734  0.40089374  0.29547969  1
  O  O349  1  0.91187111  0.41825595  0.63786003  1
  O  O350  1  0.90550355  0.41175115  0.95119018  1
  O  O351  1  0.93881070  0.91834199  0.29104910  1
  O  O352  1  0.91583662  0.91363274  0.63291413  1
  O  O353  1  0.91945916  0.91207246  0.95955415  1
  O  O354  1  0.08870137  0.08429339  0.19760784  1
  O  O355  1  0.08068524  0.05538028  0.54001632  1
  O  O356  1  0.08123647  0.08545101  0.86527758  1
  O  O357  1  0.09381883  0.58507251  0.20458390  1
  O  O358  1  0.09389850  0.59267016  0.54144225  1
  O  O359  1  0.08604211  0.58295133  0.86894349  1
  O  O360  1  0.57225225  0.08603305  0.18425067  1
  O  O361  1  0.59068335  0.08673839  0.54146427  1
  O  O362  1  0.58990431  0.08758412  0.86936714  1
  O  O363  1  0.61724239  0.60866517  0.24477017  1
  O  O364  1  0.58980182  0.58453090  0.54351381  1
  O  O365  1  0.58412707  0.58112848  0.86677154  1
  O  O366  1  0.14203212  0.22043216  0.06017322  1
  O  O367  1  0.13211404  0.22157872  0.39291227  1
  O  O368  1  0.13725771  0.21634526  0.72949616  1
  O  O369  1  0.12873380  0.71697657  0.03992568  1
  O  O370  1  0.14138904  0.72080747  0.38683585  1
  O  O371  1  0.14057927  0.71878989  0.72749648  1
  O  O372  1  0.63802570  0.22324672  0.05641603  1
  O  O373  1  0.63742766  0.22786398  0.39381399  1
  O  O374  1  0.63404112  0.21683676  0.71714855  1
  O  O375  1  0.63397659  0.72406209  0.05910732  1
  O  O376  1  0.63793998  0.73020791  0.39980400  1
  O  O377  1  0.63805551  0.71448395  0.72229066  1
  O  O378  1  0.27284982  0.36552693  0.10345831  1
  O  O379  1  0.27400910  0.36387130  0.43966717  1
  O  O380  1  0.28154999  0.36279096  0.77670150  1
  O  O381  1  0.28312790  0.86739893  0.11506932  1
  O  O382  1  0.27940942  0.85745667  0.44481462  1
  O  O383  1  0.28270361  0.86265376  0.77477933  1
  O  O384  1  0.76243947  0.36071684  0.10299906  1
  O  O385  1  0.77137365  0.36063618  0.44327922  1
  O  O386  1  0.78101885  0.36228313  0.77226455  1
  O  O387  1  0.78513393  0.85658422  0.10386044  1
  O  O388  1  0.78139561  0.86622667  0.44564176  1
  O  O389  1  0.78115594  0.86150113  0.77302743  1
  O  O390  1  0.36508403  0.27188424  0.27312419  1
  O  O391  1  0.35734871  0.28030909  0.60462103  1
  O  O392  1  0.36054657  0.27869628  0.93902338  1
  O  O393  1  0.36333258  0.77736749  0.28040139  1
  O  O394  1  0.36339001  0.77496040  0.60900476  1
  O  O395  1  0.36312211  0.77303834  0.93415803  1
  O  O396  1  0.85769934  0.26589739  0.27347358  1
  O  O397  1  0.86031259  0.28270354  0.61171180  1
  O  O398  1  0.87392737  0.27994520  0.95061637  1
  O  O399  1  0.86268762  0.79450251  0.27112460  1
  O  O400  1  0.86280522  0.77947963  0.61067122  1
  O  O401  1  0.85804832  0.78119304  0.93868083  1
  O  O402  1  0.22369646  0.13975311  0.22612594  1
  O  O403  1  0.20649064  0.12644867  0.55886949  1
  O  O404  1  0.21612295  0.14154978  0.89216790  1
  O  O405  1  0.22920398  0.63430127  0.22562581  1
  O  O406  1  0.22709634  0.64325085  0.55845320  1
  O  O407  1  0.21731360  0.63523241  0.88028211  1
  O  O408  1  0.70788370  0.14178266  0.21470869  1
  O  O409  1  0.72358610  0.14042795  0.56134011  1
  O  O410  1  0.72643999  0.13604871  0.89493193  1
  O  O411  1  0.74509841  0.63783474  0.23626177  1
  O  O412  1  0.72267601  0.63883627  0.56446691  1
  O  O413  1  0.71722675  0.63553681  0.88584981  1
  O  O414  1  0.49040060  0.33437163  0.02836340  1
  O  O415  1  0.49200840  0.33317598  0.36279761  1
  O  O416  1  0.48886968  0.33227016  0.69355622  1
  O  O417  1  0.48773917  0.82530375  0.03217408  1
  O  O418  1  0.49448057  0.83451933  0.36155459  1
  O  O419  1  0.49307717  0.82787594  0.69968764  1
  O  O420  1  1.00226632  0.35481867  0.02885066  1
  O  O421  1  0.98372728  0.32700556  0.36807342  1
  O  O422  1  0.99112059  0.33686168  0.69973425  1
  O  O423  1  0.99115216  0.82796272  0.02552577  1
  O  O424  1  0.99640702  0.82820370  0.35639754  1
  O  O425  1  0.99288512  0.83464690  0.70080259  1
  O  O426  1  0.17270682  0.01099760  0.13219068  1
  O  O427  1  0.17052705  -0.00898501  0.47704311  1
  O  O428  1  0.16677874  0.01020111  0.80436628  1
  O  O429  1  0.16964455  0.50615925  0.13478390  1
  O  O430  1  0.17151113  0.51206951  0.47269430  1
  O  O431  1  0.16049837  0.50342882  0.79795198  1
  O  O432  1  0.66195378  0.00777783  0.13264263  1
  O  O433  1  0.66831067  0.01108491  0.46960162  1
  O  O434  1  0.66825585  0.00797539  0.80315043  1
  O  O435  1  0.66180561  0.51739899  0.14999812  1
  O  O436  1  0.66956427  0.50964328  0.47292114  1
  O  O437  1  0.66190808  0.50489067  0.79768798  1
  O  O438  1  0.00637853  0.16521242  0.29716334  1
  O  O439  1  0.00390051  0.16745726  0.64473877  1
  O  O440  1  0.01166950  0.17061945  0.97164911  1
  O  O441  1  0.01131114  0.66373639  0.30034292  1
  O  O442  1  0.01005836  0.67007791  0.63484551  1
  O  O443  1  -0.00196653  0.65425414  0.96438011  1
  O  O444  1  0.50943469  0.16878402  0.30336828  1
  O  O445  1  0.50232219  0.16157891  0.63246222  1
  O  O446  1  0.50717842  0.17005076  0.96920177  1
  O  O447  1  0.50750466  0.66757247  0.31313681  1
  O  O448  1  0.50647133  0.66398602  0.63474283  1
  O  O449  1  0.50666054  0.66550357  0.96716515  1
  O  O450  1  0.33341167  0.49230385  0.19527367  1
  O  O451  1  0.33553134  0.49253911  0.52923803  1
  O  O452  1  0.33257953  0.49539217  0.86177738  1
  O  O453  1  0.34421824  0.99468299  0.20687108  1
  O  O454  1  0.33946365  0.98710475  0.53435090  1
  O  O455  1  0.33550973  0.99460691  0.86208623  1
  O  O456  1  0.83046416  0.48506816  0.19549593  1
  O  O457  1  0.83109523  0.49028049  0.53027036  1
  O  O458  1  0.82841779  0.49406547  0.86165992  1
  O  O459  1  0.83189829  0.99154377  0.18583344  1
  O  O460  1  0.83259334  0.99627789  0.53438106  1
  O  O461  1  0.83236369  0.99223890  0.86228853  1
