# generated using pymatgen
data_Na31Fe20(SO4)36
_symmetry_space_group_name_H-M   'P 1'
_cell_length_a   18.08030001
_cell_length_b   18.08299928
_cell_length_c   19.71604398
_cell_angle_alpha   107.59939977
_cell_angle_beta   107.58815320
_cell_angle_gamma   90.72875016
_symmetry_Int_Tables_number   1
_chemical_formula_structural   Na31Fe20(SO4)36
_chemical_formula_sum   'Na62 Fe40 S72 O288'
_cell_volume   5818.58230879
_cell_formula_units_Z   2
loop_
 _symmetry_equiv_pos_site_id
 _symmetry_equiv_pos_as_xyz
  1  'x, y, z'
loop_
 _atom_site_type_symbol
 _atom_site_label
 _atom_site_symmetry_multiplicity
 _atom_site_fract_x
 _atom_site_fract_y
 _atom_site_fract_z
 _atom_site_occupancy
  Na  Na0  1  0.13025021  0.36442975  0.07836796  1
  Na  Na1  1  0.13588272  0.36559401  0.41648006  1
  Na  Na2  1  0.13871405  0.35489451  0.75240412  1
  Na  Na3  1  0.13280798  0.86320734  0.08203776  1
  Na  Na4  1  0.13567096  0.85809028  0.42108821  1
  Na  Na5  1  0.13419049  0.87283771  0.74967622  1
  Na  Na6  1  0.62826301  0.36799576  0.07788177  1
  Na  Na7  1  0.60715352  0.38306126  0.41939875  1
  Na  Na8  1  0.64326421  0.37463523  0.76464933  1
  Na  Na9  1  0.63989160  0.86135135  0.08599726  1
  Na  Na10  1  0.64286820  0.85942868  0.41279117  1
  Na  Na11  1  0.63905417  0.86832305  0.74958003  1
  Na  Na12  1  0.37419986  0.13286689  0.25544514  1
  Na  Na13  1  0.36934562  0.13228979  0.58297097  1
  Na  Na14  1  0.35883827  0.14218748  0.90058510  1
  Na  Na15  1  0.38675987  0.63094047  0.25568603  1
  Na  Na16  1  0.37248879  0.63279750  0.58609672  1
  Na  Na17  1  0.36550296  0.63004952  0.91092899  1
  Na  Na18  1  0.86651426  0.13863319  0.25183897  1
  Na  Na19  1  0.86391156  0.12676958  0.58900617  1
  Na  Na20  1  0.84673311  0.12828663  0.89821238  1
  Na  Na21  1  0.86732166  0.66034534  0.27980196  1
  Na  Na22  1  0.86345395  0.63641899  0.58242251  1
  Na  Na23  1  0.85018147  0.62871102  0.90731046  1
  Na  Na24  1  0.49627305  -0.00925229  0.10718984  1
  Na  Na25  1  1.00756992  -0.02244342  0.43334598  1
  Na  Na26  1  0.98535680  0.50777600  0.75041752  1
  Na  Na27  1  0.49929439  0.04139123  0.75591109  1
  Na  Na28  1  0.99327690  0.51916509  0.41655727  1
  Na  Na29  1  0.98822475  0.00970581  0.07004263  1
  Na  Na30  1  0.49422790  0.54013538  0.10385441  1
  Na  Na31  1  0.93344688  0.50488622  0.06428827  1
  Na  Na32  1  0.50853002  0.01339169  0.39456134  1
  Na  Na33  1  0.49160824  1.01773368  0.91679394  1
  Na  Na34  1  0.56565182  0.99305053  0.60314268  1
  Na  Na35  1  0.01312556  0.96983211  0.60302620  1
  Na  Na36  1  -0.01910113  1.01945255  0.84474665  1
  Na  Na37  1  0.00802390  0.99244422  0.25322129  1
  Na  Na38  1  0.00932319  0.48731738  0.24208108  1
  Na  Na39  1  0.52203439  0.49642244  0.90285720  1
  Na  Na40  1  0.01257087  0.49495166  0.58378118  1
  Na  Na41  1  -0.00110828  0.48831570  0.91864642  1
  Na  Na42  1  0.24354090  0.22866330  0.68011018  1
  Na  Na43  1  0.26671986  0.26213990  0.32634998  1
  Na  Na44  1  0.74209186  0.24867290  0.34260188  1
  Na  Na45  1  0.75442680  0.75778370  -0.00758297  1
  Na  Na46  1  0.25784679  0.25729274  -0.01531224  1
  Na  Na47  1  0.74299661  0.23676995  0.67370939  1
  Na  Na48  1  0.75258034  0.75991416  0.66772849  1
  Na  Na49  1  0.24895490  0.74530342  0.33509046  1
  Na  Na50  1  0.25708827  0.75381068  -0.00780551  1
  Na  Na51  1  0.73029450  0.24154927  -0.00044785  1
  Na  Na52  1  0.26348993  0.25779227  0.49437550  1
  Na  Na53  1  0.25380000  0.75227954  0.16554901  1
  Na  Na54  1  0.74003321  0.24627964  0.84003363  1
  Na  Na55  1  0.26127106  0.76066424  0.81712382  1
  Na  Na56  1  0.77805031  0.77274337  0.48748535  1
  Na  Na57  1  0.74563615  0.24547850  0.50609286  1
  Na  Na58  1  0.24266300  0.74380342  0.52073510  1
  Na  Na59  1  0.25665241  0.25757213  0.15514247  1
  Na  Na60  1  0.73087957  0.73992689  0.18819924  1
  Na  Na61  1  0.74310046  0.24703777  0.16814794  1
  Fe  Fe62  1  0.47015359  0.80697764  0.45554770  1
  Fe  Fe63  1  0.46522611  0.31120446  0.11914510  1
  Fe  Fe64  1  0.96142515  0.80967644  0.11815022  1
  Fe  Fe65  1  0.96423203  0.80372556  0.78652428  1
  Fe  Fe66  1  0.96430380  0.30287384  0.78085197  1
  Fe  Fe67  1  0.46643172  0.80618025  0.78329875  1
  Fe  Fe68  1  0.47077756  0.80059276  0.12656094  1
  Fe  Fe69  1  0.46890876  0.30299712  0.79218994  1
  Fe  Fe70  1  0.96370646  0.30281820  0.11297864  1
  Fe  Fe71  1  0.96951116  0.30601672  0.45188558  1
  Fe  Fe72  1  0.68571429  0.53945691  0.37783928  1
  Fe  Fe73  1  0.19567510  0.03239382  0.38512700  1
  Fe  Fe74  1  0.69774297  0.03495417  0.38104330  1
  Fe  Fe75  1  0.68821544  0.03519382  0.04332118  1
  Fe  Fe76  1  0.19133665  0.03381396  0.04630751  1
  Fe  Fe77  1  0.19303032  0.53596709  0.38301866  1
  Fe  Fe78  1  0.69836215  0.53339691  0.04778217  1
  Fe  Fe79  1  0.18979240  0.53583773  0.04911592  1
  Fe  Fe80  1  0.19583609  0.53336650  0.71657730  1
  Fe  Fe81  1  0.68793260  0.53372398  0.71141423  1
  Fe  Fe82  1  0.03588690  0.19229462  0.21374713  1
  Fe  Fe83  1  0.53556848  0.68770988  0.87337432  1
  Fe  Fe84  1  0.53797866  0.68417677  0.54208443  1
  Fe  Fe85  1  0.03767340  0.19150107  0.87589306  1
  Fe  Fe86  1  0.53086906  0.20439639  0.54180178  1
  Fe  Fe87  1  0.02920102  0.69330314  0.21425105  1
  Fe  Fe88  1  0.03554435  0.69959739  0.54935546  1
  Fe  Fe89  1  0.03306302  0.69255182  0.88221921  1
  Fe  Fe90  1  0.53356650  0.19680826  0.21427658  1
  Fe  Fe91  1  0.03584310  0.19096925  0.55123446  1
  Fe  Fe92  1  0.80232158  0.95968185  0.94419691  1
  Fe  Fe93  1  0.80761008  0.46216851  0.61631458  1
  Fe  Fe94  1  0.30519056  0.96559560  0.94992051  1
  Fe  Fe95  1  0.30305408  0.97007953  0.62545114  1
  Fe  Fe96  1  0.81059140  0.96439636  0.28496669  1
  Fe  Fe97  1  0.30601528  0.96336692  0.28829519  1
  Fe  Fe98  1  0.80837706  0.46406773  0.28755285  1
  Fe  Fe99  1  0.31140538  0.46693035  0.29177211  1
  Fe  Fe100  1  0.30632580  0.46542738  0.95297811  1
  Fe  Fe101  1  0.31384761  0.46316842  0.62074950  1
  S  S102  1  0.35943195  0.13804821  0.08321569  1
  S  S103  1  0.35905847  0.13930244  0.41505444  1
  S  S104  1  0.36298204  0.14184589  0.75066723  1
  S  S105  1  0.35221412  0.64059937  0.08053411  1
  S  S106  1  0.35821062  0.64354204  0.41805412  1
  S  S107  1  0.35895971  0.63953327  0.74959222  1
  S  S108  1  0.85915005  0.14066809  0.08206813  1
  S  S109  1  0.86319146  0.14219242  0.41324615  1
  S  S110  1  0.86049690  0.13878970  0.75088271  1
  S  S111  1  0.85388473  0.64888048  0.08698123  1
  S  S112  1  0.86372102  0.63305441  0.42246778  1
  S  S113  1  0.86029545  0.63537946  0.74887484  1
  S  S114  1  0.13858928  0.35994858  0.24822388  1
  S  S115  1  0.14249828  0.35928396  0.58400589  1
  S  S116  1  0.13737723  0.36294125  0.91720024  1
  S  S117  1  0.13763681  0.85928512  0.24960832  1
  S  S118  1  0.14022558  0.85924787  0.58145855  1
  S  S119  1  0.14079931  0.85729086  0.91885933  1
  S  S120  1  0.64201445  0.36118422  0.25095784  1
  S  S121  1  0.64512417  0.36011400  0.58689986  1
  S  S122  1  0.63776286  0.36157307  0.91747135  1
  S  S123  1  0.63842509  0.86567146  0.24461668  1
  S  S124  1  0.64456685  0.85050936  0.57925857  1
  S  S125  1  0.63767919  0.85818937  0.92103203  1
  S  S126  1  0.06503136  0.16612362  0.04127813  1
  S  S127  1  0.07054386  0.16912476  0.37593220  1
  S  S128  1  0.06338461  0.16656829  0.70522455  1
  S  S129  1  0.06285956  0.66896474  0.04316292  1
  S  S130  1  0.06697781  0.66381542  0.37534027  1
  S  S131  1  0.06866835  0.66733042  0.71079276  1
  S  S132  1  0.56147214  0.17023793  0.04392545  1
  S  S133  1  0.57141434  0.17546620  0.37574313  1
  S  S134  1  0.56789927  0.17754598  0.70732451  1
  S  S135  1  0.56458750  0.66682204  0.03968844  1
  S  S136  1  0.56967708  0.67294309  0.37914567  1
  S  S137  1  0.57139659  0.67415830  0.70880489  1
  S  S138  1  0.32541584  0.43358428  0.12258987  1
  S  S139  1  0.32538113  0.43223570  0.45367787  1
  S  S140  1  0.32829544  0.42764216  0.78935458  1
  S  S141  1  0.32703912  0.92886338  0.12337885  1
  S  S142  1  0.32679032  0.92818421  0.45814158  1
  S  S143  1  0.33559115  0.93353344  0.79526198  1
  S  S144  1  0.83066275  0.43046007  0.12603039  1
  S  S145  1  0.83978652  0.42882514  0.45973849  1
  S  S146  1  0.83938561  0.43403828  0.79045544  1
  S  S147  1  0.83290643  0.93913618  0.12275897  1
  S  S148  1  0.83030104  0.94297184  0.45575623  1
  S  S149  1  0.83157358  0.92682274  0.79423270  1
  S  S150  1  0.42765892  0.32554892  0.28309287  1
  S  S151  1  0.43070218  0.32640238  0.62771774  1
  S  S152  1  0.42958285  0.33855808  0.96048544  1
  S  S153  1  0.42934422  0.83154113  0.29267838  1
  S  S154  1  0.43282859  0.83321112  0.62598377  1
  S  S155  1  0.43058205  0.82676730  0.95829786  1
  S  S156  1  0.93704337  0.33044289  0.28978985  1
  S  S157  1  0.93791306  0.33133258  0.62305085  1
  S  S158  1  0.93621579  0.32676067  0.95428525  1
  S  S159  1  0.93770789  0.83637271  0.28968558  1
  S  S160  1  0.93641946  0.82597749  0.62791574  1
  S  S161  1  0.93153461  0.82587741  0.95914127  1
  S  S162  1  0.16740490  0.06555854  0.20888840  1
  S  S163  1  0.16877345  0.06579519  0.54139906  1
  S  S164  1  0.17499591  0.06631038  0.87995523  1
  S  S165  1  0.16239844  0.56675990  0.20728365  1
  S  S166  1  0.16747720  0.56667883  0.54284467  1
  S  S167  1  0.16528581  0.56443926  0.87468664  1
  S  S168  1  0.67403139  0.07328024  0.20941416  1
  S  S169  1  0.66110563  0.07466251  0.53500853  1
  S  S170  1  0.66457485  0.05888113  0.87726858  1
  S  S171  1  0.67731322  0.56545911  0.21251448  1
  S  S172  1  0.67562923  0.56646995  0.54642429  1
  S  S173  1  0.66830455  0.57028350  0.87630131  1
  O  O174  1  0.36669388  0.21793821  0.07656513  1
  O  O175  1  0.36176141  0.21406940  0.40169356  1
  O  O176  1  0.37775682  0.22227536  0.74154509  1
  O  O177  1  0.36413702  0.72147596  0.07754019  1
  O  O178  1  0.36851233  0.72219453  0.40993715  1
  O  O179  1  0.36722764  0.71997473  0.74614885  1
  O  O180  1  0.86663421  0.21928441  0.07262328  1
  O  O181  1  0.87552076  0.21964687  0.40172234  1
  O  O182  1  0.87335732  0.21866654  0.74100896  1
  O  O183  1  0.86277283  0.73049318  0.08438186  1
  O  O184  1  0.86700740  0.70929878  0.41268026  1
  O  O185  1  0.86851510  0.71402813  0.74100851  1
  O  O186  1  0.28152280  0.12847991  0.09400877  1
  O  O187  1  0.28167030  0.12496231  0.42599170  1
  O  O188  1  0.28579332  0.13875676  0.75829303  1
  O  O189  1  0.27041851  0.63317416  0.08445750  1
  O  O190  1  0.27864127  0.63572031  0.42607131  1
  O  O191  1  0.28109720  0.62835594  0.76092367  1
  O  O192  1  0.78017212  0.13245615  0.09019467  1
  O  O193  1  0.78257820  0.13821501  0.41852928  1
  O  O194  1  0.79030949  0.14123282  0.77439178  1
  O  O195  1  0.77520436  0.63736124  0.09463944  1
  O  O196  1  0.78854261  0.61584275  0.43479068  1
  O  O197  1  0.78294772  0.62247508  0.75658611  1
  O  O198  1  0.13052788  0.28101774  0.25714380  1
  O  O199  1  0.13228269  0.28078850  0.59163251  1
  O  O200  1  0.13014647  0.28533175  0.92833976  1
  O  O201  1  0.12827895  0.78076298  0.25833674  1
  O  O202  1  0.13327993  0.77377811  0.57795443  1
  O  O203  1  0.13013409  0.77857552  0.92823009  1
  O  O204  1  0.63309339  0.28158679  0.25818706  1
  O  O205  1  0.63379719  0.27814207  0.59051610  1
  O  O206  1  0.62651909  0.28619638  0.92814789  1
  O  O207  1  0.63120049  0.78672133  0.24734688  1
  O  O208  1  0.62813142  0.76986318  0.58396783  1
  O  O209  1  0.62427964  0.78024090  0.93021434  1
  O  O210  1  0.21797437  0.36979323  0.24175233  1
  O  O211  1  0.22020440  0.36880659  0.57441028  1
  O  O212  1  0.21615129  0.37356437  0.91063993  1
  O  O213  1  0.21652020  0.86756454  0.24115389  1
  O  O214  1  0.22206326  0.87150147  0.57847745  1
  O  O215  1  0.22149295  0.86441437  0.91338187  1
  O  O216  1  0.72130377  0.36797646  0.24190344  1
  O  O217  1  0.72617980  0.36513370  0.57997629  1
  O  O218  1  0.70896262  0.37065798  0.89877064  1
  O  O219  1  0.71477590  0.87957463  0.23037633  1
  O  O220  1  0.71871537  0.85410902  0.56545002  1
  O  O221  1  0.71963643  0.86483270  0.92086797  1
  O  O222  1  0.42013500  0.12787763  0.14965994  1
  O  O223  1  0.42050820  0.13694824  0.48447497  1
  O  O224  1  0.42457768  0.13112647  0.81424254  1
  O  O225  1  0.40769041  0.62635465  0.14506537  1
  O  O226  1  0.41668528  0.63501748  0.48546627  1
  O  O227  1  0.41936242  0.62900393  0.81544499  1
  O  O228  1  0.91834705  0.13538446  0.15210940  1
  O  O229  1  0.91936202  0.13640589  0.48309860  1
  O  O230  1  0.92786095  0.13024213  0.81630447  1
  O  O231  1  0.91300007  0.63834844  0.15502123  1
  O  O232  1  0.92774036  0.62545916  0.48945208  1
  O  O233  1  0.92141648  0.62809420  0.81708206  1
  O  O234  1  0.36612129  0.07977980  0.01453179  1
  O  O235  1  0.36915752  0.07574611  0.34979573  1
  O  O236  1  0.36846519  0.08350073  0.67918859  1
  O  O237  1  0.35770978  0.58460987  0.00910264  1
  O  O238  1  0.36214371  0.58421037  0.34824041  1
  O  O239  1  0.36217540  0.58256631  0.67886467  1
  O  O240  1  0.87046995  0.08071132  0.01672991  1
  O  O241  1  0.87197366  0.08172499  0.34658237  1
  O  O242  1  0.85714646  0.07920612  0.68213450  1
  O  O243  1  0.86298874  0.59386117  0.01896575  1
  O  O244  1  0.87476969  0.57227728  0.35515367  1
  O  O245  1  0.87267381  0.57680552  0.68177493  1
  O  O246  1  0.07978615  0.36643195  0.17900403  1
  O  O247  1  0.08215045  0.36901826  0.51664629  1
  O  O248  1  0.07797321  0.36964940  0.84885505  1
  O  O249  1  0.07921007  0.86783767  0.18133918  1
  O  O250  1  0.08407411  0.87195542  0.51539781  1
  O  O251  1  0.08381179  0.86371060  0.84998773  1
  O  O252  1  0.58343252  0.36915131  0.18313285  1
  O  O253  1  0.58782611  0.37267010  0.52375007  1
  O  O254  1  0.57007144  0.37274606  0.85276523  1
  O  O255  1  0.57598149  0.87755917  0.17868285  1
  O  O256  1  0.58153893  0.86495137  0.51427754  1
  O  O257  1  0.58316140  0.86531337  0.85083838  1
  O  O258  1  0.12689967  0.41926620  0.31423785  1
  O  O259  1  0.13439793  0.41911360  0.65210989  1
  O  O260  1  0.12613874  0.42307490  0.98379225  1
  O  O261  1  0.12932021  0.91968177  0.31670606  1
  O  O262  1  0.12979905  0.90940073  0.65063627  1
  O  O263  1  0.13281653  0.91665304  0.98659606  1
  O  O264  1  0.63701006  0.41920492  0.32040613  1
  O  O265  1  0.64424677  0.41458558  0.66059052  1
  O  O266  1  0.63348746  0.42454379  0.98612798  1
  O  O267  1  0.63347682  0.92392931  0.31470464  1
  O  O268  1  0.64056236  0.90738220  0.64893319  1
  O  O269  1  0.62640841  0.91853626  0.98743073  1
  O  O270  1  0.02856059  0.19829585  0.10282333  1
  O  O271  1  0.03596707  0.19944293  0.43790518  1
  O  O272  1  0.03524992  0.20784539  0.77137367  1
  O  O273  1  0.02550257  0.69850282  0.10340876  1
  O  O274  1  0.03306067  0.68217329  0.43642705  1
  O  O275  1  0.03099824  0.69568812  0.77120966  1
  O  O276  1  0.53125845  0.20551255  0.10971157  1
  O  O277  1  0.53258596  0.19810149  0.43368168  1
  O  O278  1  0.53149409  0.21290988  0.76711737  1
  O  O279  1  0.52198431  0.69341069  0.09460937  1
  O  O280  1  0.52761614  0.70051531  0.43827656  1
  O  O281  1  0.53083336  0.70405175  0.76820725  1
  O  O282  1  0.29472302  0.47209094  0.06259643  1
  O  O283  1  0.28890673  0.47234338  0.39385422  1
  O  O284  1  0.30351638  0.46719710  0.72986947  1
  O  O285  1  0.29847377  0.96666807  0.06323477  1
  O  O286  1  0.29626284  0.96454719  0.39593017  1
  O  O287  1  0.31382085  0.96857629  0.73524854  1
  O  O288  1  0.80384446  0.46974358  0.06862437  1
  O  O289  1  0.80473998  0.45592612  0.39446550  1
  O  O290  1  0.80863962  0.46541577  0.72583221  1
  O  O291  1  0.80234534  0.97553953  0.06247961  1
  O  O292  1  0.79801505  0.97433681  0.38728426  1
  O  O293  1  0.81278080  0.95698915  0.73347470  1
  O  O294  1  0.46593150  0.29772866  0.22124371  1
  O  O295  1  0.47318965  0.30113624  0.57241864  1
  O  O296  1  0.45962298  0.31325451  0.89602322  1
  O  O297  1  0.46162810  0.80734687  0.23055113  1
  O  O298  1  0.46924773  0.80587367  0.56510389  1
  O  O299  1  0.46586159  0.79970256  0.89680851  1
  O  O300  1  0.97106174  0.29916279  0.22717728  1
  O  O301  1  0.97208247  0.29891779  0.56051237  1
  O  O302  1  0.97125742  0.29151283  0.89302605  1
  O  O303  1  0.97029042  0.80146308  0.22530033  1
  O  O304  1  0.97510928  0.79075723  0.56947055  1
  O  O305  1  0.96845857  0.79606261  0.89849032  1
  O  O306  1  0.19753966  0.02981047  0.27008487  1
  O  O307  1  0.19939191  0.03176392  0.60146989  1
  O  O308  1  0.20276707  0.02942502  0.94346073  1
  O  O309  1  0.19489815  0.53307064  0.26955085  1
  O  O310  1  0.19526253  0.52918452  0.60290605  1
  O  O311  1  0.19547673  0.52977066  0.93639266  1
  O  O312  1  0.70511685  0.03964112  0.27116683  1
  O  O313  1  0.67886828  0.04482276  0.59739368  1
  O  O314  1  0.70502717  0.02646096  0.94247402  1
  O  O315  1  0.70926245  0.52786041  0.27424562  1
  O  O316  1  0.70361914  0.52434546  0.60419684  1
  O  O317  1  0.68824120  0.53771803  0.93870888  1
  O  O318  1  0.08361054  0.08584362  0.04207995  1
  O  O319  1  0.08750569  0.08694907  0.36942138  1
  O  O320  1  0.07311061  0.08649569  0.70231215  1
  O  O321  1  0.08033278  0.58695257  0.03743267  1
  O  O322  1  0.08318660  0.57878624  0.35915996  1
  O  O323  1  0.08443704  0.58403727  0.70535388  1
  O  O324  1  0.58301556  0.08992266  0.04456091  1
  O  O325  1  0.59548843  0.09540292  0.36726483  1
  O  O326  1  0.57876329  0.09700505  0.70648621  1
  O  O327  1  0.58460320  0.58559869  0.03742773  1
  O  O328  1  0.58986405  0.59298739  0.38007269  1
  O  O329  1  0.59188569  0.59528609  0.70879173  1
  O  O330  1  0.40566929  0.41530476  0.12523198  1
  O  O331  1  0.40126608  0.41378640  0.45062332  1
  O  O332  1  0.40966089  0.40673838  0.79814805  1
  O  O333  1  0.40669960  0.90751045  0.12626005  1
  O  O334  1  0.40758690  0.91058532  0.46293866  1
  O  O335  1  0.41738848  0.91042219  0.80622907  1
  O  O336  1  0.91259211  0.41008170  0.12742990  1
  O  O337  1  0.92444655  0.41747547  0.46506633  1
  O  O338  1  0.92145029  0.41297323  0.79102766  1
  O  O339  1  0.91616757  0.92355649  0.12768824  1
  O  O340  1  0.91318817  0.93290456  0.46490185  1
  O  O341  1  0.91412833  0.90267776  0.81020310  1
  O  O342  1  0.40044330  0.40217586  0.28004174  1
  O  O343  1  0.40937101  0.40585077  0.63050967  1
  O  O344  1  0.41573729  0.42332756  0.97501896  1
  O  O345  1  0.40889399  0.91417951  0.30361769  1
  O  O346  1  0.41170817  0.91402128  0.63260779  1
  O  O347  1  0.41307734  0.90974819  0.96832748  1
  O  O348  1  0.92435155  0.41382386  0.29761842  1
  O  O349  1  0.92279664  0.41400532  0.62693032  1
  O  O350  1  0.92846654  0.40896649  0.95944942  1
  O  O351  1  0.92160899  0.91869059  0.28992200  1
  O  O352  1  0.92123086  0.90439015  0.62793362  1
  O  O353  1  0.91020876  0.90613158  0.96374059  1
  O  O354  1  0.08362989  0.08014362  0.20233378  1
  O  O355  1  0.08690665  0.08586774  0.53687751  1
  O  O356  1  0.09673868  0.09283637  0.88161997  1
  O  O357  1  0.07916158  0.58096008  0.20171055  1
  O  O358  1  0.08705084  0.58966671  0.54155973  1
  O  O359  1  0.08253831  0.58092426  0.86967214  1
  O  O360  1  0.59235775  0.09100335  0.20271668  1
  O  O361  1  0.57870009  0.09932779  0.51981838  1
  O  O362  1  0.58472378  0.07027760  0.87984188  1
  O  O363  1  0.59777980  0.58071186  0.20835605  1
  O  O364  1  0.59523433  0.58380853  0.54190953  1
  O  O365  1  0.58310212  0.58278695  0.85814711  1
  O  O366  1  0.13605157  0.21799265  0.05678718  1
  O  O367  1  0.14115721  0.22053602  0.38967786  1
  O  O368  1  0.13394311  0.21467254  0.71306968  1
  O  O369  1  0.13417240  0.72117398  0.06024049  1
  O  O370  1  0.13923962  0.71514217  0.39331977  1
  O  O371  1  0.13997553  0.71808712  0.72791232  1
  O  O372  1  0.63280277  0.22150972  0.05693924  1
  O  O373  1  0.63975076  0.23289053  0.39385750  1
  O  O374  1  0.64207228  0.22646168  0.72480398  1
  O  O375  1  0.63567270  0.72071856  0.05932113  1
  O  O376  1  0.64147499  0.72608896  0.40183316  1
  O  O377  1  0.63955684  0.72869020  0.72455325  1
  O  O378  1  0.27197482  0.36139630  0.10281746  1
  O  O379  1  0.26896645  0.36211306  0.43575208  1
  O  O380  1  0.27306046  0.35885172  0.77046320  1
  O  O381  1  0.27232836  0.85855156  0.10622616  1
  O  O382  1  0.27352725  0.85709103  0.44016004  1
  O  O383  1  0.27943616  0.86743066  0.78289545  1
  O  O384  1  0.77851478  0.35940269  0.11027612  1
  O  O385  1  0.79624246  0.35582725  0.45209607  1
  O  O386  1  0.78883822  0.36362464  0.77868440  1
  O  O387  1  0.78298621  0.86705689  0.10649490  1
  O  O388  1  0.78197265  0.86857176  0.43526020  1
  O  O389  1  0.77762191  0.86025098  0.78730223  1
  O  O390  1  0.35826879  0.26745380  0.26249217  1
  O  O391  1  0.36033378  0.27095244  0.60713747  1
  O  O392  1  0.35818408  0.28874788  0.94642597  1
  O  O393  1  0.35864974  0.77794387  0.27724488  1
  O  O394  1  0.36506393  0.77742415  0.61109533  1
  O  O395  1  0.35816289  0.77399421  0.93907240  1
  O  O396  1  0.86370671  0.28211202  0.27402685  1
  O  O397  1  0.86621200  0.28219102  0.60939089  1
  O  O398  1  0.86209765  0.28068308  0.94056937  1
  O  O399  1  0.86487063  0.78917815  0.27589061  1
  O  O400  1  0.86493245  0.77338904  0.61194094  1
  O  O401  1  0.86470607  0.77163413  0.94743155  1
  O  O402  1  0.21639146  0.13803354  0.22420919  1
  O  O403  1  0.21934210  0.13583320  0.55115346  1
  O  O404  1  0.23040794  0.13525201  0.89865098  1
  O  O405  1  0.21046606  0.63959743  0.22056720  1
  O  O406  1  0.22258888  0.63284292  0.55505453  1
  O  O407  1  0.21544918  0.63586397  0.88856737  1
  O  O408  1  0.72556889  0.14523641  0.22434375  1
  O  O409  1  0.71819058  0.14204977  0.54827084  1
  O  O410  1  0.71193640  0.13426499  0.89469933  1
  O  O411  1  0.73138681  0.63541037  0.23036092  1
  O  O412  1  0.73007527  0.63723046  0.56881833  1
  O  O413  1  0.71742286  0.64383483  0.89488213  1
  O  O414  1  0.49126661  0.33416263  0.02974539  1
  O  O415  1  0.48455955  0.33090125  0.35413985  1
  O  O416  1  0.48542334  0.33101816  0.70406647  1
  O  O417  1  0.48847900  0.82587229  0.03029190  1
  O  O418  1  0.49014448  0.83349064  0.36412298  1
  O  O419  1  0.49380508  0.83641398  0.69869587  1
  O  O420  1  0.99430250  0.32447552  0.02691859  1
  O  O421  1  0.99648905  0.32879457  0.36085153  1
  O  O422  1  0.99840436  0.33469917  0.69485853  1
  O  O423  1  0.99442563  0.83329562  0.03233594  1
  O  O424  1  0.99887987  0.84163947  0.35969191  1
  O  O425  1  0.99414316  0.82754613  0.70259377  1
  O  O426  1  0.16571804  0.00640764  0.13636178  1
  O  O427  1  0.15929822  0.00435243  0.46613854  1
  O  O428  1  0.16848246  0.00581609  0.81033975  1
  O  O429  1  0.16177580  0.50686796  0.13556804  1
  O  O430  1  0.15617485  0.50585097  0.46779604  1
  O  O431  1  0.16257364  0.50429657  0.80232323  1
  O  O432  1  0.67272949  0.01298561  0.13747041  1
  O  O433  1  0.65626731  0.01171899  0.46220973  1
  O  O434  1  0.66429459  0.00187249  0.80703514  1
  O  O435  1  0.67847890  0.50645949  0.13998077  1
  O  O436  1  0.67649441  0.51024974  0.47343071  1
  O  O437  1  0.67815615  0.51155744  0.80841938  1
  O  O438  1  0.00976269  0.16616926  0.30326156  1
  O  O439  1  0.00005275  0.16901250  0.63504275  1
  O  O440  1  0.00616651  0.16038624  0.96815703  1
  O  O441  1  0.00727364  0.66853432  0.30540816  1
  O  O442  1  0.01064419  0.66443186  0.63743678  1
  O  O443  1  0.00441570  0.66605845  0.97001046  1
  O  O444  1  0.51201777  0.17213714  0.30234660  1
  O  O445  1  0.51306249  0.17605152  0.63231110  1
  O  O446  1  0.49880252  0.16242728  0.97449570  1
  O  O447  1  0.51431245  0.66941258  0.30719285  1
  O  O448  1  0.51100919  0.66833403  0.63549303  1
  O  O449  1  0.50989389  0.66005603  0.96269706  1
  O  O450  1  0.32536626  0.49100086  0.19478803  1
  O  O451  1  0.32508219  0.48971182  0.52691756  1
  O  O452  1  0.32950801  0.48812119  0.86129167  1
  O  O453  1  0.32922684  0.98753601  0.19613936  1
  O  O454  1  0.32611618  0.98796535  0.52883695  1
  O  O455  1  0.34191976  0.99604597  0.86907446  1
  O  O456  1  0.84066848  0.48760410  0.20198577  1
  O  O457  1  0.84223807  0.49089788  0.53095756  1
  O  O458  1  0.84987151  0.49624695  0.86132721  1
  O  O459  1  0.83638682  0.99722267  0.19639882  1
  O  O460  1  0.82121086  1.00291678  0.52026762  1
  O  O461  1  0.83758181  0.99211602  0.86785678  1
