# generated using pymatgen
data_Na31Fe20(SO4)36
_symmetry_space_group_name_H-M   'P 1'
_cell_length_a   18.08075011
_cell_length_b   18.08172897
_cell_length_c   19.72630315
_cell_angle_alpha   107.56908966
_cell_angle_beta   107.55368779
_cell_angle_gamma   90.75269377
_symmetry_Int_Tables_number   1
_chemical_formula_structural   Na31Fe20(SO4)36
_chemical_formula_sum   'Na62 Fe40 S72 O288'
_cell_volume   5823.39016338
_cell_formula_units_Z   2
loop_
 _symmetry_equiv_pos_site_id
 _symmetry_equiv_pos_as_xyz
  1  'x, y, z'
loop_
 _atom_site_type_symbol
 _atom_site_label
 _atom_site_symmetry_multiplicity
 _atom_site_fract_x
 _atom_site_fract_y
 _atom_site_fract_z
 _atom_site_occupancy
  Na  Na0  1  0.13495130  0.37106879  0.08768649  1
  Na  Na1  1  0.12919796  0.36150749  0.42218724  1
  Na  Na2  1  0.12991050  0.37681486  0.75747764  1
  Na  Na3  1  0.13000211  0.87942469  0.08703131  1
  Na  Na4  1  0.13442692  0.87667780  0.41744246  1
  Na  Na5  1  0.12523367  0.85699478  0.73450412  1
  Na  Na6  1  0.63900276  0.36522208  0.08739474  1
  Na  Na7  1  0.67294444  0.32497525  0.42021526  1
  Na  Na8  1  0.63610552  0.35255178  0.73307752  1
  Na  Na9  1  0.62647169  0.86884765  0.08374675  1
  Na  Na10  1  0.63787777  0.86348482  0.42182168  1
  Na  Na11  1  0.63023283  0.85474228  0.74072203  1
  Na  Na12  1  0.36398330  0.12873690  0.25158862  1
  Na  Na13  1  0.36402924  0.12702799  0.56675787  1
  Na  Na14  1  0.36909422  0.13481650  0.91953646  1
  Na  Na15  1  0.36124335  0.63470980  0.24610922  1
  Na  Na16  1  0.36824790  0.63632573  0.58146843  1
  Na  Na17  1  0.37130458  0.64081034  0.92683578  1
  Na  Na18  1  0.86969502  0.15610628  0.27780439  1
  Na  Na19  1  0.81199447  0.14659552  0.56178993  1
  Na  Na20  1  0.87295783  0.11477127  0.91791535  1
  Na  Na21  1  0.86482101  0.63684179  0.25251742  1
  Na  Na22  1  0.86932054  0.64020064  0.58296715  1
  Na  Na23  1  0.87320818  0.62987691  0.91379717  1
  Na  Na24  1  0.50019084  0.54670392  0.43051349  1
  Na  Na25  1  0.98172669  0.00210704  0.75945064  1
  Na  Na26  1  0.99352761  0.51577050  0.06835491  1
  Na  Na27  1  0.48552557  0.51960962  0.08287793  1
  Na  Na28  1  0.48794660  0.00663766  0.75271510  1
  Na  Na29  1  0.45522106  0.00442291  0.39637177  1
  Na  Na30  1  0.98915030  0.54013223  0.43357137  1
  Na  Na31  1  0.49223391  0.51553855  0.74883412  1
  Na  Na32  1  0.99074065  0.01159059  0.42639476  1
  Na  Na33  1  0.00877497  0.49279579  0.25103457  1
  Na  Na34  1  0.50994742  0.97570073  0.58543566  1
  Na  Na35  1  0.05202316  0.99930203  0.25646273  1
  Na  Na36  1  0.50713796  0.95759128  0.23283552  1
  Na  Na37  1  0.51571108  0.98075080  0.93668758  1
  Na  Na38  1  0.51394730  0.48965281  0.58058737  1
  Na  Na39  1  0.00732185  0.48024386  0.58583881  1
  Na  Na40  1  0.51327001  0.48398135  0.91245144  1
  Na  Na41  1  0.51649066  0.48619256  0.25237431  1
  Na  Na42  1  0.74687371  0.24153151  0.00116217  1
  Na  Na43  1  0.26780312  0.76737831  0.00160788  1
  Na  Na44  1  0.24234007  0.24685705  0.67160271  1
  Na  Na45  1  0.75431248  0.75331927  0.64742909  1
  Na  Na46  1  0.76355498  0.76440436  -0.01027059  1
  Na  Na47  1  0.23965930  0.23021445  0.34259744  1
  Na  Na48  1  0.24047825  0.24235388  0.00730572  1
  Na  Na49  1  0.26000521  0.76894360  0.32285744  1
  Na  Na50  1  0.74333145  0.74675206  0.34255087  1
  Na  Na51  1  0.24321869  0.74457765  0.66423894  1
  Na  Na52  1  0.74639120  0.75301612  0.16527014  1
  Na  Na53  1  0.24638621  0.24578030  0.84176326  1
  Na  Na54  1  0.24294642  0.23972301  0.50573939  1
  Na  Na55  1  0.76217553  0.25698192  0.82292273  1
  Na  Na56  1  0.74839885  0.24027715  0.18388869  1
  Na  Na57  1  0.27278195  0.78192423  0.16393234  1
  Na  Na58  1  0.76419066  0.76664882  0.82505766  1
  Na  Na59  1  0.24380512  0.24360170  0.17500584  1
  Na  Na60  1  0.24917308  0.75869855  0.49375125  1
  Na  Na61  1  0.24562874  0.74924451  0.83229854  1
  Fe  Fe62  1  0.46651878  0.80329495  0.78647473  1
  Fe  Fe63  1  0.96016532  0.31088170  0.78202044  1
  Fe  Fe64  1  0.96495239  0.80963617  0.78834729  1
  Fe  Fe65  1  0.46901326  0.30637196  0.11915000  1
  Fe  Fe66  1  0.46655023  0.30455496  0.77921323  1
  Fe  Fe67  1  0.96544117  0.81095028  0.12008188  1
  Fe  Fe68  1  0.47213238  0.30524439  0.44805155  1
  Fe  Fe69  1  0.46873572  0.79470140  0.45683796  1
  Fe  Fe70  1  0.96706039  0.80410718  0.46033538  1
  Fe  Fe71  1  0.96270011  0.30875744  0.11817936  1
  Fe  Fe72  1  0.69537449  0.53332748  0.04695797  1
  Fe  Fe73  1  0.19068546  0.53828631  0.71455953  1
  Fe  Fe74  1  0.69589945  0.53508830  0.38896559  1
  Fe  Fe75  1  0.19123940  0.53444781  0.38439160  1
  Fe  Fe76  1  0.18422075  0.03852902  0.70774324  1
  Fe  Fe77  1  0.70421884  0.02959893  0.04751934  1
  Fe  Fe78  1  0.18944578  0.03655495  0.04351490  1
  Fe  Fe79  1  0.18906198  0.53681161  0.04635682  1
  Fe  Fe80  1  0.69330620  0.03281203  0.71679497  1
  Fe  Fe81  1  0.69537991  0.53528246  0.71360371  1
  Fe  Fe82  1  0.53478402  0.69213229  0.88399709  1
  Fe  Fe83  1  0.02753673  0.20240068  0.54227891  1
  Fe  Fe84  1  0.03194060  0.19601422  0.87627049  1
  Fe  Fe85  1  0.03265497  0.69547589  0.21651795  1
  Fe  Fe86  1  0.53647704  0.69260184  0.21259272  1
  Fe  Fe87  1  0.53504403  0.19285680  0.87972428  1
  Fe  Fe88  1  0.55447591  0.17714065  0.53780135  1
  Fe  Fe89  1  0.02764720  0.19810051  0.21564616  1
  Fe  Fe90  1  0.03798357  0.69302390  0.88009535  1
  Fe  Fe91  1  0.53875305  0.18484221  0.21506999  1
  Fe  Fe92  1  0.80215882  0.96617239  0.61322514  1
  Fe  Fe93  1  0.79937799  0.96898542  0.29546640  1
  Fe  Fe94  1  0.80932490  0.46433841  0.28781465  1
  Fe  Fe95  1  0.30703331  0.46190310  0.61704315  1
  Fe  Fe96  1  0.30425216  0.96916113  0.61882062  1
  Fe  Fe97  1  0.30883434  0.46322514  0.28596633  1
  Fe  Fe98  1  0.30609503  0.46565684  0.95058547  1
  Fe  Fe99  1  0.81183040  0.46209086  0.61643619  1
  Fe  Fe100  1  0.80591506  0.46476034  0.94759696  1
  Fe  Fe101  1  0.31464834  0.96441952  0.95802640  1
  S  S102  1  0.36048114  0.14463756  0.08016395  1
  S  S103  1  0.36743768  0.14878410  0.41902599  1
  S  S104  1  0.35925773  0.14195920  0.75090557  1
  S  S105  1  0.35756421  0.63709214  0.08515802  1
  S  S106  1  0.35310751  0.63775120  0.41457626  1
  S  S107  1  0.36039829  0.63776235  0.74914281  1
  S  S108  1  0.85810110  0.14651262  0.08711983  1
  S  S109  1  0.86345926  0.13504635  0.42047002  1
  S  S110  1  0.85813207  0.13924957  0.74936550  1
  S  S111  1  0.86100861  0.64037066  0.08189045  1
  S  S112  1  0.85416234  0.64127737  0.41280070  1
  S  S113  1  0.86196766  0.63926322  0.75122941  1
  S  S114  1  0.13955467  0.36223495  0.24979080  1
  S  S115  1  0.14304160  0.36245578  0.58987105  1
  S  S116  1  0.13977156  0.36199580  0.91697240  1
  S  S117  1  0.13865190  0.85733908  0.25113961  1
  S  S118  1  0.14139183  0.86194816  0.58276154  1
  S  S119  1  0.14287491  0.86062659  0.91387696  1
  S  S120  1  0.64080504  0.35923859  0.25150233  1
  S  S121  1  0.64044079  0.36084851  0.58106867  1
  S  S122  1  0.64100989  0.35753572  0.91433405  1
  S  S123  1  0.64293401  0.85342743  0.24850745  1
  S  S124  1  0.63810846  0.85948824  0.58652797  1
  S  S125  1  0.64089795  0.85577061  0.91816783  1
  S  S126  1  0.06808905  0.17836938  0.04141165  1
  S  S127  1  0.06426687  0.17237019  0.38041105  1
  S  S128  1  0.07002182  0.18133859  0.71134533  1
  S  S129  1  0.07075482  0.67381698  0.04583126  1
  S  S130  1  0.06414381  0.66715945  0.37545112  1
  S  S131  1  0.06518979  0.66864668  0.70824484  1
  S  S132  1  0.57129375  0.17200330  0.04407510  1
  S  S133  1  0.55936795  0.15671519  0.36620894  1
  S  S134  1  0.56675295  0.16825071  0.70885848  1
  S  S135  1  0.56617155  0.65747945  0.03935511  1
  S  S136  1  0.56457083  0.66470626  0.36979094  1
  S  S137  1  0.56428260  0.66292592  0.71062729  1
  S  S138  1  0.33340172  0.43109304  0.12338937  1
  S  S139  1  0.33124734  0.43063756  0.45614653  1
  S  S140  1  0.33611327  0.43438106  0.79252369  1
  S  S141  1  0.32740541  0.94096465  0.12016505  1
  S  S142  1  0.33624454  0.92807755  0.46104971  1
  S  S143  1  0.33301881  0.93323119  0.79210717  1
  S  S144  1  0.82980880  0.43562801  0.12154659  1
  S  S145  1  0.83961151  0.44382869  0.45936326  1
  S  S146  1  0.82664885  0.43201426  0.78979664  1
  S  S147  1  0.82730405  0.92779757  0.13165402  1
  S  S148  1  0.83280919  0.92859647  0.45851927  1
  S  S149  1  0.82495648  0.93178001  0.78626745  1
  S  S150  1  0.43523052  0.33733408  0.29035524  1
  S  S151  1  0.43491589  0.33625308  0.62403064  1
  S  S152  1  0.43646562  0.33349040  0.95771805  1
  S  S153  1  0.43865075  0.82270920  0.29165020  1
  S  S154  1  0.42715941  0.82901839  0.62606765  1
  S  S155  1  0.43413974  0.82701299  0.95537115  1
  S  S156  1  0.93923057  0.34277133  0.29256726  1
  S  S157  1  0.93327811  0.33031043  0.62639690  1
  S  S158  1  0.93225306  0.33070860  0.95768997  1
  S  S159  1  0.92639513  0.82622030  0.29264441  1
  S  S160  1  0.92830739  0.83385985  0.62638587  1
  S  S161  1  0.93247477  0.82561766  0.95211228  1
  S  S162  1  0.16395560  0.07648686  0.20455137  1
  S  S163  1  0.17051320  0.07543702  0.54404117  1
  S  S164  1  0.17066010  0.07109684  0.87363921  1
  S  S165  1  0.16602829  0.56703324  0.20963263  1
  S  S166  1  0.17074986  0.56043011  0.54510272  1
  S  S167  1  0.17785163  0.57391194  0.88161693  1
  S  S168  1  0.67486285  0.06602947  0.20825972  1
  S  S169  1  0.64846720  0.05254989  0.53740526  1
  S  S170  1  0.66234254  0.06543549  0.87459081  1
  S  S171  1  0.66928916  0.56161201  0.20642699  1
  S  S172  1  0.67061817  0.55922702  0.54457253  1
  S  S173  1  0.66921309  0.56412725  0.87480583  1
  O  O174  1  0.37329972  0.22135482  0.06724146  1
  O  O175  1  0.37568727  0.22717404  0.40606848  1
  O  O176  1  0.36821764  0.22120393  0.74312165  1
  O  O177  1  0.36244970  0.71473476  0.07785776  1
  O  O178  1  0.36258988  0.71715681  0.40783027  1
  O  O179  1  0.36926717  0.71591456  0.73982124  1
  O  O180  1  0.86563645  0.22815070  0.08113861  1
  O  O181  1  0.87371405  0.20634160  0.40404161  1
  O  O182  1  0.86750960  0.22191373  0.75205125  1
  O  O183  1  0.86967492  0.71846429  0.07295126  1
  O  O184  1  0.86816287  0.71908660  0.40391490  1
  O  O185  1  0.86840500  0.71972744  0.74457774  1
  O  O186  1  0.27884833  0.14066125  0.08347453  1
  O  O187  1  0.29367435  0.14427885  0.43500827  1
  O  O188  1  0.28021481  0.13297919  0.75830637  1
  O  O189  1  0.28098958  0.62273064  0.09711342  1
  O  O190  1  0.27393766  0.63012188  0.42387660  1
  O  O191  1  0.28076489  0.63036961  0.75650157  1
  O  O192  1  0.77536036  0.13601492  0.08805585  1
  O  O193  1  0.79328116  0.12196498  0.43786804  1
  O  O194  1  0.78310762  0.12807084  0.76459853  1
  O  O195  1  0.78245489  0.63035838  0.09028081  1
  O  O196  1  0.77097163  0.63384630  0.41077133  1
  O  O197  1  0.78374096  0.62978460  0.76221180  1
  O  O198  1  0.13165105  0.28249449  0.25524066  1
  O  O199  1  0.12845761  0.28194256  0.59503528  1
  O  O200  1  0.13311462  0.28158507  0.92298950  1
  O  O201  1  0.12422259  0.77698453  0.25833542  1
  O  O202  1  0.13722656  0.78708230  0.59587648  1
  O  O203  1  0.13863020  0.78094257  0.92213976  1
  O  O204  1  0.62946613  0.28001185  0.25659067  1
  O  O205  1  0.62551693  0.28631568  0.59421333  1
  O  O206  1  0.63100585  0.27890519  0.92269577  1
  O  O207  1  0.63988017  0.76772792  0.24281196  1
  O  O208  1  0.63105863  0.78601072  0.60129284  1
  O  O209  1  0.62629402  0.77975942  0.93176417  1
  O  O210  1  0.21740324  0.37235192  0.23862252  1
  O  O211  1  0.22358972  0.36391303  0.58232673  1
  O  O212  1  0.21789846  0.37153807  0.90571009  1
  O  O213  1  0.21663423  0.86166424  0.24422385  1
  O  O214  1  0.21980860  0.87601377  0.57286731  1
  O  O215  1  0.22238842  0.87253761  0.90648818  1
  O  O216  1  0.71855712  0.36802507  0.24042881  1
  O  O217  1  0.71919122  0.36776489  0.57385670  1
  O  O218  1  0.72042088  0.36626415  0.90800855  1
  O  O219  1  0.72608263  0.86987062  0.24688510  1
  O  O220  1  0.71549325  0.87315272  0.57741467  1
  O  O221  1  0.71895890  0.85960037  0.91180560  1
  O  O222  1  0.41555623  0.14107386  0.15112584  1
  O  O223  1  0.43217757  0.14599949  0.48753312  1
  O  O224  1  0.41774166  0.13467320  0.81995110  1
  O  O225  1  0.41963274  0.62575097  0.14988779  1
  O  O226  1  0.41229092  0.62554900  0.47827535  1
  O  O227  1  0.41812638  0.62889079  0.81754945  1
  O  O228  1  0.91076700  0.14559527  0.16131396  1
  O  O229  1  0.93377023  0.12778148  0.48588881  1
  O  O230  1  0.92279856  0.12354472  0.81088738  1
  O  O231  1  0.92049278  0.63221382  0.14983338  1
  O  O232  1  0.90783844  0.63190853  0.48072294  1
  O  O233  1  0.92240492  0.63166478  0.81802494  1
  O  O234  1  0.36935630  0.08287516  0.01440250  1
  O  O235  1  0.37168263  0.08794997  0.35261075  1
  O  O236  1  0.36998050  0.08273537  0.68447019  1
  O  O237  1  0.36573097  0.57752015  0.01585254  1
  O  O238  1  0.35704046  0.58015452  0.34297085  1
  O  O239  1  0.36971169  0.57796792  0.68225860  1
  O  O240  1  0.87190874  0.09000692  0.02400849  1
  O  O241  1  0.87094978  0.06726171  0.35350633  1
  O  O242  1  0.85869326  0.08623799  0.67594281  1
  O  O243  1  0.87035847  0.58009287  0.01481161  1
  O  O244  1  0.86545594  0.58103402  0.34518597  1
  O  O245  1  0.86753832  0.58192495  0.68203568  1
  O  O246  1  0.07918659  0.37365875  0.18402660  1
  O  O247  1  0.08648419  0.37891796  0.52783622  1
  O  O248  1  0.07881703  0.37180547  0.85238410  1
  O  O249  1  0.07960800  0.86468191  0.18077786  1
  O  O250  1  0.08184796  0.86520461  0.51317765  1
  O  O251  1  0.08432959  0.86540847  0.84437416  1
  O  O252  1  0.58086865  0.37059282  0.18405573  1
  O  O253  1  0.58285702  0.36825935  0.51126075  1
  O  O254  1  0.58241593  0.36588408  0.84601782  1
  O  O255  1  0.58770426  0.86561838  0.18231431  1
  O  O256  1  0.57749054  0.86315513  0.51686946  1
  O  O257  1  0.58158111  0.86211096  0.84867687  1
  O  O258  1  0.13382376  0.41985240  0.31947510  1
  O  O259  1  0.14247961  0.41907951  0.66281151  1
  O  O260  1  0.13708607  0.41873680  0.98843414  1
  O  O261  1  0.12760729  0.91611274  0.31586069  1
  O  O262  1  0.13377057  0.92468102  0.64944694  1
  O  O263  1  0.13289197  0.91844885  0.98077167  1
  O  O264  1  0.63409001  0.41820700  0.31967855  1
  O  O265  1  0.62986512  0.42438377  0.64657855  1
  O  O266  1  0.63135501  0.41692603  0.98153202  1
  O  O267  1  0.63231475  0.90078730  0.31819356  1
  O  O268  1  0.62559722  0.92406238  0.65097042  1
  O  O269  1  0.63100489  0.91890901  0.98350521  1
  O  O270  1  0.02824080  0.20544729  0.09985060  1
  O  O271  1  0.03877314  0.21137513  0.44692289  1
  O  O272  1  0.02855180  0.21023956  0.76911701  1
  O  O273  1  0.03027906  0.70236879  0.10391668  1
  O  O274  1  0.02745479  0.69630502  0.43403069  1
  O  O275  1  0.03430212  0.70210375  0.77369531  1
  O  O276  1  0.53458624  0.19987091  0.10537272  1
  O  O277  1  0.53798178  0.20393359  0.43536545  1
  O  O278  1  0.52578986  0.19917346  0.76745921  1
  O  O279  1  0.52873272  0.67667198  0.09779881  1
  O  O280  1  0.52771456  0.69128034  0.42938465  1
  O  O281  1  0.53267157  0.69414260  0.77637950  1
  O  O282  1  0.30218724  0.46338870  0.06020871  1
  O  O283  1  0.29950290  0.46714023  0.39508837  1
  O  O284  1  0.30601938  0.47034110  0.73226977  1
  O  O285  1  0.29180761  0.97775919  0.05671968  1
  O  O286  1  0.32688225  0.96348426  0.40288099  1
  O  O287  1  0.30443175  0.97023351  0.73188798  1
  O  O288  1  0.79945388  0.47056373  0.05896517  1
  O  O289  1  0.79615909  0.47504232  0.39520160  1
  O  O290  1  0.79711284  0.46686820  0.72766025  1
  O  O291  1  0.80243037  0.96908034  0.07603686  1
  O  O292  1  0.80487431  0.95970925  0.39442513  1
  O  O293  1  0.79653421  0.96811979  0.72335412  1
  O  O294  1  0.46757368  0.30601007  0.22683365  1
  O  O295  1  0.46792942  0.31460093  0.56228252  1
  O  O296  1  0.47153451  0.30324293  0.89592521  1
  O  O297  1  0.47852120  0.78792420  0.23560139  1
  O  O298  1  0.46016488  0.79990890  0.56517905  1
  O  O299  1  0.46450898  0.79348797  0.88881784  1
  O  O300  1  0.97131733  0.30717342  0.22735956  1
  O  O301  1  0.97023443  0.29687794  0.56674327  1
  O  O302  1  0.96968506  0.30168516  0.89764007  1
  O  O303  1  0.96343312  0.80120814  0.23124591  1
  O  O304  1  0.96410738  0.81049391  0.56656117  1
  O  O305  1  0.97636932  0.79297957  0.89517430  1
  O  O306  1  0.18131793  0.04273905  0.26466557  1
  O  O307  1  0.20038872  0.04268034  0.60916907  1
  O  O308  1  0.19735988  0.03435664  0.93368215  1
  O  O309  1  0.19298397  0.52969141  0.26985798  1
  O  O310  1  0.20823939  0.52500321  0.60697705  1
  O  O311  1  0.20470930  0.53389459  0.94084826  1
  O  O312  1  0.70399712  0.02721818  0.26701714  1
  O  O313  1  0.69419743  0.03604090  0.60873736  1
  O  O314  1  0.68545323  0.03106859  0.93523714  1
  O  O315  1  0.69772735  0.52428820  0.26600739  1
  O  O316  1  0.71138492  0.52656277  0.60715210  1
  O  O317  1  0.70092536  0.52798803  0.93627542  1
  O  O318  1  0.09173480  0.09997565  0.03594027  1
  O  O319  1  0.06608379  0.08883014  0.37102994  1
  O  O320  1  0.08637455  0.10061721  0.70859069  1
  O  O321  1  0.08746936  0.59195634  0.04390305  1
  O  O322  1  0.08240428  0.58425328  0.37208030  1
  O  O323  1  0.08773729  0.58824514  0.70788456  1
  O  O324  1  0.59121958  0.09153687  0.03646775  1
  O  O325  1  0.55078051  0.07376502  0.35934556  1
  O  O326  1  0.57899596  0.08536218  0.70496239  1
  O  O327  1  0.58429337  0.57311750  0.02682217  1
  O  O328  1  0.58688114  0.58348771  0.36905959  1
  O  O329  1  0.58446031  0.58082050  0.70886222  1
  O  O330  1  0.41710212  0.41750024  0.13002955  1
  O  O331  1  0.41267776  0.41374366  0.45961136  1
  O  O332  1  0.41851890  0.41649460  0.79612124  1
  O  O333  1  0.40226304  0.91632640  0.11363843  1
  O  O334  1  0.41555902  0.89963415  0.47965545  1
  O  O335  1  0.41684501  0.91868897  0.80041968  1
  O  O336  1  0.91263811  0.42105986  0.12721459  1
  O  O337  1  0.92206491  0.44669572  0.46312880  1
  O  O338  1  0.90637963  0.41170686  0.79476777  1
  O  O339  1  0.90987808  0.91104394  0.14096845  1
  O  O340  1  0.91515930  0.91175136  0.46669099  1
  O  O341  1  0.90614537  0.91169552  0.78939560  1
  O  O342  1  0.42233311  0.42197120  0.29785502  1
  O  O343  1  0.41687916  0.42037359  0.63661132  1
  O  O344  1  0.42075313  0.41638602  0.96337780  1
  O  O345  1  0.42491545  0.90198001  0.28990441  1
  O  O346  1  0.41260823  0.91345462  0.63760473  1
  O  O347  1  0.41669998  0.90832953  0.95597102  1
  O  O348  1  0.91861352  0.42320800  0.28858527  1
  O  O349  1  0.91452339  0.40985829  0.62199753  1
  O  O350  1  0.91174372  0.41149202  0.96128331  1
  O  O351  1  0.90578580  0.90770742  0.30244525  1
  O  O352  1  0.90822535  0.91621551  0.63829032  1
  O  O353  1  0.90751294  0.89905045  0.94622138  1
  O  O354  1  0.08275406  0.10145310  0.19198829  1
  O  O355  1  0.09353641  0.10587281  0.54517169  1
  O  O356  1  0.08984682  0.09260481  0.86646032  1
  O  O357  1  0.08206016  0.58148313  0.19987885  1
  O  O358  1  0.09074532  0.57129082  0.54443763  1
  O  O359  1  0.09888436  0.59490447  0.87776495  1
  O  O360  1  0.59423153  0.08512835  0.20635614  1
  O  O361  1  0.56242926  0.04991683  0.53022476  1
  O  O362  1  0.57874366  0.08540592  0.86471437  1
  O  O363  1  0.58677441  0.57836149  0.20076012  1
  O  O364  1  0.59031640  0.56867626  0.54653432  1
  O  O365  1  0.58611961  0.57794325  0.87056321  1
  O  O366  1  0.13772368  0.23562577  0.06104268  1
  O  O367  1  0.14115397  0.21513143  0.39352983  1
  O  O368  1  0.14361019  0.23388548  0.73468379  1
  O  O369  1  0.14273387  0.72480459  0.06344805  1
  O  O370  1  0.13532752  0.71710707  0.38799617  1
  O  O371  1  0.13721217  0.72034271  0.72253071  1
  O  O372  1  0.64097806  0.22738189  0.06161649  1
  O  O373  1  0.63642209  0.18942311  0.37278211  1
  O  O374  1  0.64082788  0.21756528  0.73160684  1
  O  O375  1  0.63699597  0.70949109  0.05651351  1
  O  O376  1  0.63196652  0.71779658  0.38054352  1
  O  O377  1  0.63538031  0.71369907  0.72484663  1
  O  O378  1  0.28505426  0.35838099  0.10986080  1
  O  O379  1  0.27890051  0.36056056  0.44228193  1
  O  O380  1  0.28573218  0.36328856  0.77935690  1
  O  O381  1  0.26953451  0.87209678  0.10274124  1
  O  O382  1  0.27507952  0.86177167  0.44145980  1
  O  O383  1  0.28322223  0.85988242  0.77409439  1
  O  O384  1  0.77919867  0.36366684  0.10481800  1
  O  O385  1  0.80158463  0.36692915  0.44573385  1
  O  O386  1  0.77260722  0.36425625  0.77803149  1
  O  O387  1  0.77468506  0.85400092  0.10826255  1
  O  O388  1  0.78103167  0.85857284  0.44541454  1
  O  O389  1  0.77208699  0.85852708  0.76450780  1
  O  O390  1  0.36095296  0.29108339  0.27544193  1
  O  O391  1  0.36497821  0.28408863  0.61072361  1
  O  O392  1  0.36410782  0.28378533  0.94228883  1
  O  O393  1  0.36377536  0.77256935  0.27236035  1
  O  O394  1  0.35400591  0.78011685  0.61189697  1
  O  O395  1  0.36008994  0.77761356  0.93860998  1
  O  O396  1  0.86793509  0.29372283  0.28010503  1
  O  O397  1  0.86484300  0.28065751  0.61797587  1
  O  O398  1  0.86272441  0.27707918  0.94259917  1
  O  O399  1  0.85611326  0.77096875  0.27244969  1
  O  O400  1  0.85988462  0.77921217  0.61141678  1
  O  O401  1  0.86574023  0.76493515  0.93415036  1
  O  O402  1  0.22171370  0.14532627  0.22155751  1
  O  O403  1  0.22894934  0.14232879  0.55955356  1
  O  O404  1  0.22574613  0.14180256  0.89190742  1
  O  O405  1  0.21675046  0.63886736  0.22726239  1
  O  O406  1  0.22002084  0.63316644  0.55963786  1
  O  O407  1  0.23384918  0.64323545  0.89988076  1
  O  O408  1  0.72765997  0.13617960  0.22397284  1
  O  O409  1  0.67235695  0.13556456  0.54688329  1
  O  O410  1  0.71473123  0.13596762  0.88941284  1
  O  O411  1  0.72081345  0.63261369  0.22197651  1
  O  O412  1  0.71618261  0.63218817  0.55523082  1
  O  O413  1  0.71797298  0.63687857  0.89123994  1
  O  O414  1  0.49560104  0.33526643  0.03007059  1
  O  O415  1  0.49530553  0.33630256  0.36022864  1
  O  O416  1  0.49622380  0.33699237  0.69572836  1
  O  O417  1  0.49382175  0.82658122  0.02299909  1
  O  O418  1  0.49014463  0.82468408  0.36801062  1
  O  O419  1  0.48728754  0.82833881  0.69805056  1
  O  O420  1  0.99198919  0.33745764  0.03161583  1
  O  O421  1  1.00094599  0.35213261  0.36223060  1
  O  O422  1  0.99442382  0.34225740  0.70131072  1
  O  O423  1  0.98889389  0.83125252  0.02779212  1
  O  O424  1  0.98612445  0.82494402  0.36339565  1
  O  O425  1  0.98978126  0.83533243  0.69893415  1
  O  O426  1  0.16351070  0.01719643  0.13186026  1
  O  O427  1  0.16016664  0.01265077  0.47460299  1
  O  O428  1  0.16861113  0.01265261  0.80078992  1
  O  O429  1  0.16670022  0.50818632  0.13738347  1
  O  O430  1  0.17111833  0.50220873  0.47241206  1
  O  O431  1  0.17749344  0.51477558  0.80984101  1
  O  O432  1  0.66864899  0.00838257  0.13329387  1
  O  O433  1  0.66127661  -0.00380688  0.47351458  1
  O  O434  1  0.65889255  0.00549510  0.80159758  1
  O  O435  1  0.66603052  0.50311974  0.13259327  1
  O  O436  1  0.66688207  0.50000874  0.47114318  1
  O  O437  1  0.66734960  0.50499462  0.80278441  1
  O  O438  1  0.00734555  0.18214783  0.31133585  1
  O  O439  1  0.01680942  0.18317175  0.63855907  1
  O  O440  1  0.01013135  0.17623288  0.96791431  1
  O  O441  1  0.00576508  0.65866414  0.29947029  1
  O  O442  1  0.00433700  0.66246705  0.63869161  1
  O  O443  1  0.01419522  0.66949241  0.97179780  1
  O  O444  1  0.49950809  0.16985140  0.29915539  1
  O  O445  1  0.51376729  0.17009062  0.63570173  1
  O  O446  1  0.51088592  0.17229278  0.97249314  1
  O  O447  1  0.50415751  0.65264786  0.29469173  1
  O  O448  1  0.50190759  0.65652527  0.64155970  1
  O  O449  1  0.50713712  0.65719892  0.96664219  1
  O  O450  1  0.33302065  0.49082980  0.19457474  1
  O  O451  1  0.33565476  0.49076833  0.52926092  1
  O  O452  1  0.34169998  0.49383989  0.86622439  1
  O  O453  1  0.33365598  0.99957142  0.19140202  1
  O  O454  1  0.33493707  0.98942077  0.53324311  1
  O  O455  1  0.33226622  0.99093733  0.86453089  1
  O  O456  1  0.82972942  0.49476172  0.19276161  1
  O  O457  1  0.83373665  0.50049231  0.53092699  1
  O  O458  1  0.83047692  0.49452504  0.86194841  1
  O  O459  1  0.82518520  0.98065626  0.20615202  1
  O  O460  1  0.83131490  0.99140127  0.52787860  1
  O  O461  1  0.82441266  0.98882909  0.85558166  1
