# generated using pymatgen
data_Na31Fe20(SO4)36
_symmetry_space_group_name_H-M   'P 1'
_cell_length_a   18.07577112
_cell_length_b   18.07574512
_cell_length_c   19.69729475
_cell_angle_alpha   107.58197361
_cell_angle_beta   107.57333427
_cell_angle_gamma   90.73003536
_symmetry_Int_Tables_number   1
_chemical_formula_structural   Na31Fe20(SO4)36
_chemical_formula_sum   'Na62 Fe40 S72 O288'
_cell_volume   5810.41523001
_cell_formula_units_Z   2
loop_
 _symmetry_equiv_pos_site_id
 _symmetry_equiv_pos_as_xyz
  1  'x, y, z'
loop_
 _atom_site_type_symbol
 _atom_site_label
 _atom_site_symmetry_multiplicity
 _atom_site_fract_x
 _atom_site_fract_y
 _atom_site_fract_z
 _atom_site_occupancy
  Na  Na0  1  0.13477229  0.36713580  0.08157715  1
  Na  Na1  1  0.13637357  0.37514579  0.42011446  1
  Na  Na2  1  0.13281124  0.36310210  0.74316289  1
  Na  Na3  1  0.15829583  0.85990419  0.10849891  1
  Na  Na4  1  0.12796471  0.86945181  0.41228066  1
  Na  Na5  1  0.13886088  0.85798129  0.74663168  1
  Na  Na6  1  0.62814188  0.36161853  0.08058696  1
  Na  Na7  1  0.63568617  0.37117907  0.42399816  1
  Na  Na8  1  0.64549802  0.36295673  0.75239027  1
  Na  Na9  1  0.64076167  0.86255031  0.09184887  1
  Na  Na10  1  0.62302978  0.86017328  0.40922111  1
  Na  Na11  1  0.63327678  0.87053095  0.75313529  1
  Na  Na12  1  0.36716833  0.12851028  0.24797048  1
  Na  Na13  1  0.36075548  0.12490122  0.58093568  1
  Na  Na14  1  0.36703523  0.13721811  0.91988030  1
  Na  Na15  1  0.36751282  0.63868275  0.25783044  1
  Na  Na16  1  0.35772326  0.62989075  0.56936078  1
  Na  Na17  1  0.36875570  0.63171681  0.91693821  1
  Na  Na18  1  0.86900259  0.13395546  0.25338518  1
  Na  Na19  1  0.86931706  0.13330515  0.58723703  1
  Na  Na20  1  0.86544560  0.13067136  0.91315363  1
  Na  Na21  1  0.87433794  0.64157726  0.25457705  1
  Na  Na22  1  0.86464569  0.63514541  0.58419983  1
  Na  Na23  1  0.86579939  0.63807796  0.91461576  1
  Na  Na24  1  0.47769460  0.50824685  0.43498629  1
  Na  Na25  1  1.02014799  -0.00371831  0.72443053  1
  Na  Na26  1  0.45619557  0.01116907  0.72741058  1
  Na  Na27  1  0.48791143  0.01328964  0.09820156  1
  Na  Na28  1  1.00110645  0.56618567  0.11034718  1
  Na  Na29  1  0.98659571  0.54170297  0.75527366  1
  Na  Na30  1  1.01255509  -0.02576920  0.09892360  1
  Na  Na31  1  0.48895457  0.50586393  0.07380664  1
  Na  Na32  1  0.54188914  0.48505579  0.69900852  1
  Na  Na33  1  0.51126233  0.98992771  0.91393596  1
  Na  Na34  1  0.01258319  0.98044133  0.91558162  1
  Na  Na35  1  0.44558759  0.99377806  0.36879390  1
  Na  Na36  1  0.50707997  0.45872389  0.24192198  1
  Na  Na37  1  0.07746155  0.51594507  0.29916650  1
  Na  Na38  1  0.48474540  0.92589736  0.53879531  1
  Na  Na39  1  -0.00104241  0.97874413  0.27563887  1
  Na  Na40  1  -0.00021761  0.51054656  0.91800438  1
  Na  Na41  1  0.01401377  0.49251415  0.57163781  1
  Na  Na42  1  0.23622839  0.73770819  0.01241232  1
  Na  Na43  1  0.75777435  0.25576522  -0.00486191  1
  Na  Na44  1  0.24995764  0.24862798  0.33542913  1
  Na  Na45  1  0.25722962  0.76100894  0.65381171  1
  Na  Na46  1  0.74150457  0.24459804  0.34104083  1
  Na  Na47  1  0.26646776  0.26180941  -0.00723407  1
  Na  Na48  1  0.75197350  0.75403306  0.32268541  1
  Na  Na49  1  0.26149102  0.77308319  0.30851492  1
  Na  Na50  1  0.73914202  0.73777205  0.01120743  1
  Na  Na51  1  0.74108489  0.73851627  0.67485849  1
  Na  Na52  1  0.74841747  0.25007059  0.16751529  1
  Na  Na53  1  0.24525946  0.24542797  0.51429141  1
  Na  Na54  1  0.25941156  0.76476852  0.48262567  1
  Na  Na55  1  0.73948570  0.24072423  0.51954750  1
  Na  Na56  1  0.23878833  0.74081467  0.84165787  1
  Na  Na57  1  0.26071009  0.25434822  0.16032602  1
  Na  Na58  1  0.26174578  0.26123760  0.81832111  1
  Na  Na59  1  0.76115113  0.25676400  0.81862327  1
  Na  Na60  1  0.74717097  0.74824954  0.49842471  1
  Na  Na61  1  0.73805962  0.73479096  0.83847902  1
  Fe  Fe62  1  0.96669686  0.31104951  0.12170396  1
  Fe  Fe63  1  0.96542975  0.30453629  0.78273576  1
  Fe  Fe64  1  0.46113629  0.81042439  0.11790105  1
  Fe  Fe65  1  0.96952575  0.79869690  0.78821211  1
  Fe  Fe66  1  0.96367244  0.30628386  0.45139819  1
  Fe  Fe67  1  0.46289477  0.80745948  0.78389200  1
  Fe  Fe68  1  0.96729454  0.79612795  0.12257620  1
  Fe  Fe69  1  0.46470126  0.31229032  0.78894736  1
  Fe  Fe70  1  0.46709011  0.31064841  0.45947160  1
  Fe  Fe71  1  0.96466692  0.81386201  0.45583644  1
  Fe  Fe72  1  0.19307111  0.53497008  0.71518551  1
  Fe  Fe73  1  0.19687341  0.03483469  0.37634309  1
  Fe  Fe74  1  0.69229663  0.53410841  0.37811106  1
  Fe  Fe75  1  0.69572864  0.03393270  0.04997228  1
  Fe  Fe76  1  0.68854932  0.03484603  0.71161298  1
  Fe  Fe77  1  0.68583115  0.03572381  0.38102535  1
  Fe  Fe78  1  0.68640193  0.53502772  0.04266341  1
  Fe  Fe79  1  0.19710502  0.03122487  0.04976802  1
  Fe  Fe80  1  0.19099126  0.53808635  0.05030640  1
  Fe  Fe81  1  0.20091652  0.03201116  0.70349099  1
  Fe  Fe82  1  0.53080399  0.20416707  0.21262280  1
  Fe  Fe83  1  0.53377151  0.19371484  0.88180823  1
  Fe  Fe84  1  0.03569071  0.18992026  0.54555621  1
  Fe  Fe85  1  0.03474850  0.19167717  0.21054813  1
  Fe  Fe86  1  0.53391777  0.69159040  0.21217689  1
  Fe  Fe87  1  0.53323764  0.69642103  0.54220838  1
  Fe  Fe88  1  0.53540795  0.68796365  0.87645163  1
  Fe  Fe89  1  0.03671214  0.18887149  0.87882922  1
  Fe  Fe90  1  0.53516598  0.19158241  0.54968593  1
  Fe  Fe91  1  0.03733843  0.68669771  0.54298067  1
  Fe  Fe92  1  0.80779233  0.96365813  0.62190465  1
  Fe  Fe93  1  0.30787604  0.46716695  0.62059943  1
  Fe  Fe94  1  0.81026589  0.96457062  0.95517971  1
  Fe  Fe95  1  0.30312275  0.46889341  0.29104556  1
  Fe  Fe96  1  0.80624456  0.46556520  0.95141289  1
  Fe  Fe97  1  0.30570440  0.46252324  0.94966693  1
  Fe  Fe98  1  0.80359197  0.96600017  0.28962830  1
  Fe  Fe99  1  0.81256192  0.46689220  0.28862975  1
  Fe  Fe100  1  0.79910748  0.47056544  0.62281162  1
  Fe  Fe101  1  0.30943159  0.96433441  0.95038571  1
  S  S102  1  0.36057222  0.13970921  0.08260813  1
  S  S103  1  0.35965710  0.14783199  0.42001207  1
  S  S104  1  0.35983988  0.14599396  0.75353589  1
  S  S105  1  0.35968637  0.63703908  0.07814255  1
  S  S106  1  0.36129750  0.64094671  0.41759269  1
  S  S107  1  0.35752540  0.64349859  0.75063626  1
  S  S108  1  0.85936164  0.14172874  0.08380804  1
  S  S109  1  0.85715922  0.14215510  0.41770294  1
  S  S110  1  0.86145841  0.13716756  0.75053709  1
  S  S111  1  0.85335472  0.63892964  0.07993839  1
  S  S112  1  0.85714138  0.64133321  0.41744371  1
  S  S113  1  0.85574972  0.64249000  0.74877272  1
  S  S114  1  0.14353609  0.35222992  0.24672402  1
  S  S115  1  0.13739337  0.36065838  0.58161527  1
  S  S116  1  0.13949433  0.35639352  0.91682252  1
  S  S117  1  0.13233946  0.86699846  0.25141101  1
  S  S118  1  0.13910367  0.85912396  0.58607046  1
  S  S119  1  0.14250547  0.86046540  0.91446542  1
  S  S120  1  0.64633115  0.35957183  0.25150167  1
  S  S121  1  0.63992265  0.35667765  0.58449569  1
  S  S122  1  0.64251789  0.35645259  0.91642792  1
  S  S123  1  0.63669671  0.86282882  0.24864015  1
  S  S124  1  0.64534173  0.85741800  0.58484631  1
  S  S125  1  0.64174726  0.86074216  0.91876188  1
  S  S126  1  0.06790060  0.16546942  0.04101224  1
  S  S127  1  0.07050060  0.17382249  0.37510693  1
  S  S128  1  0.07070810  0.17066958  0.71014307  1
  S  S129  1  0.06223668  0.66881522  0.03876728  1
  S  S130  1  0.06565465  0.67921348  0.38889815  1
  S  S131  1  0.06592180  0.66695767  0.70679556  1
  S  S132  1  0.56905274  0.16449281  0.04166356  1
  S  S133  1  0.56558597  0.17386863  0.37667261  1
  S  S134  1  0.56603729  0.16910030  0.71242211  1
  S  S135  1  0.56535026  0.66976095  0.04043818  1
  S  S136  1  0.56958118  0.66243925  0.37023871  1
  S  S137  1  0.56768838  0.67869111  0.71088200  1
  S  S138  1  0.32936782  0.43802095  0.12437238  1
  S  S139  1  0.33140846  0.43060851  0.45989191  1
  S  S140  1  0.32726132  0.43321714  0.78939608  1
  S  S141  1  0.33306630  0.93490206  0.11877622  1
  S  S142  1  0.32630211  0.93785783  0.44464299  1
  S  S143  1  0.33327620  0.93661341  0.79120268  1
  S  S144  1  0.82670441  0.43086694  0.12218601  1
  S  S145  1  0.82829606  0.43229351  0.45836735  1
  S  S146  1  0.83755327  0.43153192  0.79354810  1
  S  S147  1  0.83142064  0.93430838  0.12617548  1
  S  S148  1  0.82051282  0.93043220  0.45624183  1
  S  S149  1  0.83253683  0.93015909  0.79241404  1
  S  S150  1  0.43251473  0.33328471  0.29531470  1
  S  S151  1  0.43396580  0.32897071  0.62668859  1
  S  S152  1  0.43579583  0.33099015  0.95820987  1
  S  S153  1  0.43240417  0.82373000  0.27656481  1
  S  S154  1  0.43724250  0.82824159  0.62339174  1
  S  S155  1  0.43593046  0.83142007  0.95539710  1
  S  S156  1  0.93319688  0.32736444  0.28862862  1
  S  S157  1  0.93258286  0.33268028  0.62322982  1
  S  S158  1  0.93255601  0.32693108  0.95557149  1
  S  S159  1  0.92276156  0.83201199  0.29244576  1
  S  S160  1  0.93069523  0.82824290  0.62551642  1
  S  S161  1  0.93130480  0.83274833  0.95929002  1
  S  S162  1  0.16954178  0.07041777  0.20859969  1
  S  S163  1  0.17168399  0.07442692  0.53944008  1
  S  S164  1  0.17145865  0.06757370  0.87361844  1
  S  S165  1  0.17301281  0.56376029  0.21230426  1
  S  S166  1  0.17145128  0.56546331  0.54730385  1
  S  S167  1  0.16730247  0.55957965  0.87538628  1
  S  S168  1  0.67022605  0.07273112  0.21131526  1
  S  S169  1  0.67117983  0.06650786  0.54434776  1
  S  S170  1  0.67055906  0.06672458  0.87727961  1
  S  S171  1  0.66811776  0.56461092  0.20625470  1
  S  S172  1  0.66875449  0.56947226  0.54023697  1
  S  S173  1  0.66952017  0.56308701  0.87411835  1
  O  O174  1  0.36514207  0.21602760  0.07256362  1
  O  O175  1  0.36708601  0.23001768  0.41842574  1
  O  O176  1  0.36720108  0.22912339  0.75624576  1
  O  O177  1  0.37093217  0.71274200  0.06439782  1
  O  O178  1  0.37114930  0.71484577  0.40394964  1
  O  O179  1  0.36336666  0.72273351  0.74205267  1
  O  O180  1  0.86915801  0.22197022  0.07840579  1
  O  O181  1  0.86730558  0.21962469  0.40578669  1
  O  O182  1  0.87008703  0.21641035  0.74393955  1
  O  O183  1  0.86590862  0.71597795  0.06833219  1
  O  O184  1  0.86226639  0.72124551  0.41133803  1
  O  O185  1  0.87222145  0.71980827  0.73760536  1
  O  O186  1  0.28270536  0.12544897  0.09263150  1
  O  O187  1  0.27807772  0.13651971  0.42466635  1
  O  O188  1  0.28105908  0.13186380  0.76104082  1
  O  O189  1  0.27898758  0.63110012  0.08175110  1
  O  O190  1  0.28967642  0.63159067  0.43547403  1
  O  O191  1  0.28057349  0.63278072  0.76272384  1
  O  O192  1  0.78023010  0.13269834  0.09205041  1
  O  O193  1  0.77728928  0.13512722  0.42469852  1
  O  O194  1  0.78268873  0.12657399  0.75909479  1
  O  O195  1  0.77038748  0.63067262  0.07752700  1
  O  O196  1  0.77882008  0.62848113  0.42674747  1
  O  O197  1  0.77599067  0.63942504  0.75178102  1
  O  O198  1  0.13557254  0.27022547  0.24876005  1
  O  O199  1  0.12718627  0.28180242  0.58792815  1
  O  O200  1  0.12957550  0.27893438  0.92851216  1
  O  O201  1  0.12067246  0.79672586  0.26987471  1
  O  O202  1  0.12174874  0.78433660  0.60096244  1
  O  O203  1  0.13977499  0.78348840  0.92293879  1
  O  O204  1  0.63561249  0.27901076  0.25675027  1
  O  O205  1  0.63309018  0.27290164  0.58217805  1
  O  O206  1  0.63312060  0.27781594  0.92599960  1
  O  O207  1  0.63022722  0.78400779  0.25761265  1
  O  O208  1  0.63411377  0.77758467  0.59170359  1
  O  O209  1  0.63262655  0.77923700  0.92101015  1
  O  O210  1  0.22372988  0.36439318  0.24092197  1
  O  O211  1  0.21604376  0.37073419  0.57376609  1
  O  O212  1  0.22097855  0.36310187  0.91302022  1
  O  O213  1  0.20683046  0.87542834  0.23853567  1
  O  O214  1  0.21674084  0.85875829  0.57758179  1
  O  O215  1  0.21764093  0.87511627  0.89952084  1
  O  O216  1  0.72804162  0.36819963  0.24874974  1
  O  O217  1  0.71913187  0.37055473  0.57739331  1
  O  O218  1  0.72305708  0.36401645  0.90994393  1
  O  O219  1  0.71485509  0.87466597  0.23968893  1
  O  O220  1  0.72735014  0.86527131  0.58314217  1
  O  O221  1  0.71968825  0.87090323  0.90907069  1
  O  O222  1  0.42135953  0.13404657  0.15173322  1
  O  O223  1  0.41644858  0.13899192  0.48901483  1
  O  O224  1  0.41917596  0.13289594  0.82066136  1
  O  O225  1  0.41647107  0.62883777  0.14720487  1
  O  O226  1  0.42838606  0.63142697  0.48337325  1
  O  O227  1  0.41837745  0.63777051  0.81856691  1
  O  O228  1  0.91801770  0.13163289  0.15076926  1
  O  O229  1  0.91545033  0.13844002  0.48746516  1
  O  O230  1  0.92080363  0.12884063  0.81854234  1
  O  O231  1  0.90642219  0.63358625  0.15015133  1
  O  O232  1  0.91704921  0.63213390  0.48398007  1
  O  O233  1  0.91300942  0.63231013  0.81514845  1
  O  O234  1  0.37171003  0.07822785  0.01676016  1
  O  O235  1  0.36991109  0.09391661  0.35240524  1
  O  O236  1  0.36964160  0.09323547  0.68525844  1
  O  O237  1  0.37086580  0.57410815  0.01292134  1
  O  O238  1  0.36795907  0.57515487  0.35054502  1
  O  O239  1  0.36468370  0.58500650  0.68227890  1
  O  O240  1  0.86501104  0.08448911  0.01400434  1
  O  O241  1  0.86460302  0.08117521  0.35069339  1
  O  O242  1  0.87001905  0.07844032  0.68260540  1
  O  O243  1  0.86812594  0.57761048  0.01518997  1
  O  O244  1  0.86193980  0.58399491  0.34693783  1
  O  O245  1  0.86439859  0.58137244  0.67985791  1
  O  O246  1  0.08568674  0.36025575  0.17742047  1
  O  O247  1  0.07767043  0.37045516  0.51386329  1
  O  O248  1  0.08409043  0.35992449  0.84517896  1
  O  O249  1  0.06816874  0.87391383  0.18324454  1
  O  O250  1  0.08006558  0.87043997  0.52002933  1
  O  O251  1  0.07896540  0.86816672  0.84756674  1
  O  O252  1  0.58990514  0.37021724  0.18537374  1
  O  O253  1  0.58185674  0.36753277  0.51669076  1
  O  O254  1  0.58563918  0.36206443  0.84686234  1
  O  O255  1  0.57743972  0.86966951  0.18039666  1
  O  O256  1  0.59077456  0.86611797  0.51677036  1
  O  O257  1  0.58097579  0.87501575  0.85497769  1
  O  O258  1  0.13303615  0.40655611  0.31397317  1
  O  O259  1  0.12794164  0.41967937  0.64917382  1
  O  O260  1  0.12784991  0.41789969  0.98108730  1
  O  O261  1  0.12320399  0.93665504  0.31632523  1
  O  O262  1  0.13593197  0.92262963  0.65565050  1
  O  O263  1  0.13370777  0.92151391  0.98212196  1
  O  O264  1  0.63742450  0.41590038  0.32122922  1
  O  O265  1  0.63066840  0.40849950  0.65332503  1
  O  O266  1  0.63481829  0.41583256  0.98393203  1
  O  O267  1  0.62927030  0.92167661  0.31697230  1
  O  O268  1  0.63608490  0.91594581  0.65327079  1
  O  O269  1  0.63659471  0.91616886  0.99032032  1
  O  O270  1  0.02798880  0.19529296  0.09910974  1
  O  O271  1  0.03095542  0.19938703  0.43397783  1
  O  O272  1  0.03035709  0.19735882  0.76956297  1
  O  O273  1  0.03208117  0.69729653  0.10391744  1
  O  O274  1  0.02356647  0.71558899  0.44775073  1
  O  O275  1  0.03086520  0.69547959  0.76716877  1
  O  O276  1  0.53537565  0.18920188  0.10276655  1
  O  O277  1  0.52624119  0.20191484  0.43583279  1
  O  O278  1  0.52760902  0.19986010  0.77217508  1
  O  O279  1  0.53081404  0.70141862  0.10237207  1
  O  O280  1  0.54165987  0.68785417  0.43562246  1
  O  O281  1  0.52615884  0.70857150  0.76974498  1
  O  O282  1  0.29055717  0.47299648  0.06311876  1
  O  O283  1  0.30902410  0.46303890  0.39713023  1
  O  O284  1  0.29751675  0.46989721  0.72783117  1
  O  O285  1  0.29728353  0.96524286  0.05190780  1
  O  O286  1  0.28727597  0.97876107  0.38759121  1
  O  O287  1  0.30706641  0.97404223  0.73267173  1
  O  O288  1  0.79706437  0.46821596  0.06190978  1
  O  O289  1  0.80190402  0.46934635  0.39742701  1
  O  O290  1  0.81522397  0.46533731  0.73237418  1
  O  O291  1  0.80305181  0.97361571  0.06620970  1
  O  O292  1  0.79116532  0.97186754  0.39861254  1
  O  O293  1  0.80303762  0.96846218  0.73301860  1
  O  O294  1  0.47153741  0.30891651  0.23715470  1
  O  O295  1  0.47402528  0.29978692  0.56805991  1
  O  O296  1  0.47338611  0.30192240  0.89687090  1
  O  O297  1  0.46873636  0.78454036  0.21361607  1
  O  O298  1  0.47738156  0.79582940  0.56613968  1
  O  O299  1  0.47225565  0.80020666  0.89438284  1
  O  O300  1  0.97351289  0.29828775  0.22962175  1
  O  O301  1  0.96928331  0.30222200  0.56189482  1
  O  O302  1  0.96948006  0.29676382  0.89493034  1
  O  O303  1  0.95176735  0.80908788  0.22775815  1
  O  O304  1  0.96360714  0.80130610  0.56271512  1
  O  O305  1  0.96703923  0.81269101  0.89928896  1
  O  O306  1  0.19650969  0.04478537  0.27540081  1
  O  O307  1  0.19319231  0.03462066  0.59641015  1
  O  O308  1  0.20189282  0.03428960  0.93658884  1
  O  O309  1  0.20500504  0.52206558  0.26894258  1
  O  O310  1  0.20400038  0.53145113  0.61226329  1
  O  O311  1  0.20304721  0.52279862  0.93576979  1
  O  O312  1  0.69803157  0.03781487  0.27351128  1
  O  O313  1  0.70048787  0.02703937  0.60404807  1
  O  O314  1  0.70004717  0.02929141  0.93788395  1
  O  O315  1  0.69667724  0.52591577  0.26595421  1
  O  O316  1  0.69569379  0.53077286  0.59753775  1
  O  O317  1  0.69979443  0.52561622  0.93570896  1
  O  O318  1  0.08623961  0.08378420  0.03691182  1
  O  O319  1  0.09404828  0.09363071  0.36954371  1
  O  O320  1  0.09350171  0.09144405  0.70765841  1
  O  O321  1  0.08746480  0.58789139  0.03915532  1
  O  O322  1  0.09357114  0.60910302  0.40602812  1
  O  O323  1  0.08130222  0.58317621  0.70060190  1
  O  O324  1  0.58676408  0.08058574  0.03054157  1
  O  O325  1  0.58222121  0.09223262  0.37115492  1
  O  O326  1  0.58274803  0.08737378  0.70961571  1
  O  O327  1  0.58208732  0.58823075  0.03822920  1
  O  O328  1  0.58315510  0.57745019  0.35439765  1
  O  O329  1  0.59090235  0.60272950  0.71255217  1
  O  O330  1  0.41102726  0.43202985  0.12664183  1
  O  O331  1  0.41466014  0.41347685  0.47230540  1
  O  O332  1  0.40573962  0.41080228  0.79052901  1
  O  O333  1  0.41329683  0.91640503  0.11582687  1
  O  O334  1  0.39865639  0.91538706  0.42743902  1
  O  O335  1  0.41630425  0.91860766  0.79756587  1
  O  O336  1  0.90623255  0.40906119  0.12371381  1
  O  O337  1  0.90989360  0.41278875  0.46550937  1
  O  O338  1  0.92107491  0.41227356  0.80588166  1
  O  O339  1  0.91330089  0.91710191  0.13277997  1
  O  O340  1  0.89848908  0.90767117  0.45645925  1
  O  O341  1  0.91338799  0.91048610  0.79675094  1
  O  O342  1  0.40920493  0.41420211  0.29888525  1
  O  O343  1  0.41394173  0.40952678  0.62924823  1
  O  O344  1  0.41022281  0.40977033  0.95765835  1
  O  O345  1  0.40600884  0.89528383  0.26231173  1
  O  O346  1  0.42173277  0.90759891  0.62249266  1
  O  O347  1  0.42301518  0.91507299  0.96143354  1
  O  O348  1  0.91234191  0.40636950  0.29001666  1
  O  O349  1  0.91581092  0.41449837  0.62872539  1
  O  O350  1  0.91352073  0.40773040  0.96029362  1
  O  O351  1  0.90466610  0.91574178  0.30421754  1
  O  O352  1  0.91295167  0.91104548  0.63468327  1
  O  O353  1  0.91743071  0.91893898  0.97504537  1
  O  O354  1  0.08594110  0.08740683  0.19683696  1
  O  O355  1  0.08930181  0.09247729  0.52623874  1
  O  O356  1  0.08687930  0.07992823  0.86528833  1
  O  O357  1  0.09471871  0.58013372  0.21645980  1
  O  O358  1  0.09112418  0.58480217  0.54898461  1
  O  O359  1  0.08528109  0.56724167  0.87019071  1
  O  O360  1  0.59058369  0.09562456  0.20569283  1
  O  O361  1  0.59330973  0.09044510  0.54540326  1
  O  O362  1  0.58831672  0.08295986  0.87146636  1
  O  O363  1  0.58577696  0.58254493  0.20027245  1
  O  O364  1  0.58816253  0.59245078  0.53590385  1
  O  O365  1  0.59230014  0.58986205  0.87649183  1
  O  O366  1  0.13883971  0.21798718  0.05797604  1
  O  O367  1  0.13909207  0.23000625  0.39290838  1
  O  O368  1  0.13842294  0.22694317  0.72791064  1
  O  O369  1  0.12982196  0.72160612  0.04865879  1
  O  O370  1  0.13073432  0.73742719  0.40207100  1
  O  O371  1  0.13947112  0.71568572  0.72280733  1
  O  O372  1  0.64055785  0.21589198  0.05655468  1
  O  O373  1  0.63868802  0.22617542  0.39766887  1
  O  O374  1  0.63805781  0.22005260  0.72980279  1
  O  O375  1  0.63590534  0.72075104  0.05389172  1
  O  O376  1  0.64225506  0.71187410  0.38406721  1
  O  O377  1  0.63650538  0.73665467  0.73098608  1
  O  O378  1  0.28358642  0.36164262  0.10647024  1
  O  O379  1  0.27827458  0.36018544  0.44400395  1
  O  O380  1  0.27136935  0.36632122  0.77595973  1
  O  O381  1  0.28418101  0.86285589  0.10492240  1
  O  O382  1  0.27259739  0.86775309  0.43034355  1
  O  O383  1  0.28251686  0.86467277  0.77541512  1
  O  O384  1  0.77249629  0.36049071  0.10617449  1
  O  O385  1  0.77483192  0.36155926  0.44052059  1
  O  O386  1  0.78476379  0.36194691  0.77944606  1
  O  O387  1  0.77832752  0.86372663  0.10688437  1
  O  O388  1  0.76438314  0.86138193  0.43857645  1
  O  O389  1  0.77863750  0.86092758  0.77748029  1
  O  O390  1  0.36345010  0.27767845  0.27843309  1
  O  O391  1  0.36530515  0.27508366  0.61103734  1
  O  O392  1  0.36552757  0.27526254  0.93901159  1
  O  O393  1  0.36757586  0.76739619  0.26712138  1
  O  O394  1  0.36554854  0.77624986  0.60672111  1
  O  O395  1  0.36219504  0.78317443  0.93829154  1
  O  O396  1  0.86371345  0.27179087  0.27039704  1
  O  O397  1  0.86276907  0.27982389  0.60793772  1
  O  O398  1  0.86131631  0.27329246  0.93819109  1
  O  O399  1  0.85316765  0.78037525  0.28021143  1
  O  O400  1  0.85981378  0.77627544  0.61036240  1
  O  O401  1  0.85750589  0.78310115  0.93958393  1
  O  O402  1  0.22130740  0.13912708  0.21799780  1
  O  O403  1  0.22577142  0.14497142  0.55964897  1
  O  O404  1  0.21932324  0.14139555  0.88976680  1
  O  O405  1  0.22534716  0.63347687  0.22681547  1
  O  O406  1  0.22261723  0.63736424  0.56439379  1
  O  O407  1  0.21517635  0.63448212  0.89367686  1
  O  O408  1  0.72641447  0.14075244  0.22590919  1
  O  O409  1  0.72842249  0.13272514  0.55931571  1
  O  O410  1  0.72238931  0.13835937  0.89448779  1
  O  O411  1  0.72068488  0.63482649  0.22337718  1
  O  O412  1  0.72288317  0.63964421  0.55578664  1
  O  O413  1  0.72607326  0.63227999  0.89172328  1
  O  O414  1  0.49409025  0.33860519  0.03015139  1
  O  O415  1  0.49075364  0.34090450  0.37034862  1
  O  O416  1  0.49442616  0.33527331  0.70041938  1
  O  O417  1  0.49382549  0.83090222  0.02743869  1
  O  O418  1  0.49552581  0.83869827  0.34799905  1
  O  O419  1  0.49297101  0.83432873  0.70002413  1
  O  O420  1  0.99107553  0.32783077  0.02802747  1
  O  O421  1  0.99069414  0.33094142  0.36237830  1
  O  O422  1  0.99256713  0.33358618  0.69556412  1
  O  O423  1  0.98846878  0.82899741  0.03087684  1
  O  O424  1  0.98614812  0.83261643  0.36202224  1
  O  O425  1  0.99202186  0.82994366  0.69708056  1
  O  O426  1  0.16712238  0.00477578  0.13908434  1
  O  O427  1  0.17501507  0.01701739  0.46612260  1
  O  O428  1  0.17168532  0.00867374  0.80185887  1
  O  O429  1  0.16436710  0.50665901  0.13527248  1
  O  O430  1  0.16733379  0.50502674  0.47808104  1
  O  O431  1  0.17017822  0.50458583  0.80196580  1
  O  O432  1  0.66636057  0.01082135  0.13924004  1
  O  O433  1  0.66218633  0.00693519  0.46986270  1
  O  O434  1  0.67079683  0.00860190  0.80499995  1
  O  O435  1  0.66442358  0.50552776  0.13267175  1
  O  O436  1  0.66220842  0.51132918  0.46485910  1
  O  O437  1  0.66061242  0.50315313  0.80234258  1
  O  O438  1  0.01072053  0.16841822  0.30166699  1
  O  O439  1  0.01099656  0.16656878  0.63716900  1
  O  O440  1  0.00974793  0.16115282  0.96677743  1
  O  O441  1  0.00688211  0.66117957  0.31467109  1
  O  O442  1  0.00775360  0.66486513  0.63335169  1
  O  O443  1  -0.00105382  0.65459034  0.96755361  1
  O  O444  1  0.51000990  0.17575146  0.30405249  1
  O  O445  1  0.50840841  0.16720427  0.63950280  1
  O  O446  1  0.50912696  0.16427871  0.96962704  1
  O  O447  1  0.50827220  0.66764182  0.30183765  1
  O  O448  1  0.51144795  0.67516537  0.63629386  1
  O  O449  1  0.50566329  0.66656307  0.96773759  1
  O  O450  1  0.32715247  0.49134097  0.19843494  1
  O  O451  1  0.32977702  0.49124934  0.53051132  1
  O  O452  1  0.33288757  0.49435490  0.86204449  1
  O  O453  1  0.33729505  0.99780331  0.18648476  1
  O  O454  1  0.34447421  0.99238620  0.52105324  1
  O  O455  1  0.33802642  0.99443704  0.86630275  1
  O  O456  1  0.83116132  0.48964659  0.19539735  1
  O  O457  1  0.82877290  0.49134768  0.53021402  1
  O  O458  1  0.83892639  0.49310019  0.86566566  1
  O  O459  1  0.83232738  0.99299471  0.19895921  1
  O  O460  1  0.82691660  0.98842540  0.53076400  1
  O  O461  1  0.83731836  0.99008305  0.86637437  1
