# generated using pymatgen
data_Na31Fe20(SO4)36
_symmetry_space_group_name_H-M   'P 1'
_cell_length_a   18.09446257
_cell_length_b   18.09140086
_cell_length_c   19.72143933
_cell_angle_alpha   107.58594504
_cell_angle_beta   107.58626638
_cell_angle_gamma   90.71470938
_symmetry_Int_Tables_number   1
_chemical_formula_structural   Na31Fe20(SO4)36
_chemical_formula_sum   'Na62 Fe40 S72 O288'
_cell_volume   5828.18061295
_cell_formula_units_Z   2
loop_
 _symmetry_equiv_pos_site_id
 _symmetry_equiv_pos_as_xyz
  1  'x, y, z'
loop_
 _atom_site_type_symbol
 _atom_site_label
 _atom_site_symmetry_multiplicity
 _atom_site_fract_x
 _atom_site_fract_y
 _atom_site_fract_z
 _atom_site_occupancy
  Na  Na0  1  0.14215141  0.36635586  0.09423052  1
  Na  Na1  1  0.13628987  0.36034604  0.41572320  1
  Na  Na2  1  0.14077992  0.36526675  0.76043903  1
  Na  Na3  1  0.13616656  0.85977359  0.08163822  1
  Na  Na4  1  0.11248302  0.88761672  0.40476555  1
  Na  Na5  1  0.09398344  0.91101429  0.74950355  1
  Na  Na6  1  0.63188706  0.36352436  0.08019100  1
  Na  Na7  1  0.63842877  0.37009245  0.42089188  1
  Na  Na8  1  0.63345931  0.35896994  0.74343828  1
  Na  Na9  1  0.62879801  0.86540225  0.07984055  1
  Na  Na10  1  0.63425469  0.87273443  0.42765469  1
  Na  Na11  1  0.63507758  0.85755345  0.73887327  1
  Na  Na12  1  0.36141346  0.14189408  0.24695415  1
  Na  Na13  1  0.35772101  0.12767331  0.57170151  1
  Na  Na14  1  0.31776913  0.13419864  0.87879944  1
  Na  Na15  1  0.35491509  0.62990226  0.24924623  1
  Na  Na16  1  0.36553562  0.63298911  0.58425283  1
  Na  Na17  1  0.37224064  0.62944738  0.91800850  1
  Na  Na18  1  0.87010069  0.12825099  0.25079628  1
  Na  Na19  1  0.86625259  0.12707299  0.58609638  1
  Na  Na20  1  0.87230947  0.13066601  0.91457667  1
  Na  Na21  1  0.87089231  0.63865985  0.24747220  1
  Na  Na22  1  0.87686693  0.68294964  0.62411082  1
  Na  Na23  1  0.87928083  0.63912706  0.92400593  1
  Na  Na24  1  0.49151809  0.50477877  0.06780914  1
  Na  Na25  1  0.49175894  0.00956170  0.74020190  1
  Na  Na26  1  0.99347162  0.49457561  0.79006119  1
  Na  Na27  1  0.49392081  0.50537313  0.76292061  1
  Na  Na28  1  0.46590056  0.50818377  0.40910686  1
  Na  Na29  1  0.99102943  0.51284600  0.41294641  1
  Na  Na30  1  0.99533100  0.55428319  0.07648541  1
  Na  Na31  1  0.48031693  0.00924671  0.09304755  1
  Na  Na32  1  1.01731753  -0.04414735  0.15414749  1
  Na  Na33  1  0.51751563  0.99861284  0.56330515  1
  Na  Na34  1  0.49665130  1.01289464  0.91999919  1
  Na  Na35  1  0.04229886  0.99844517  0.60578648  1
  Na  Na36  1  0.49437996  0.99247617  0.28421221  1
  Na  Na37  1  0.00173331  0.96742876  0.89235419  1
  Na  Na38  1  -0.00067712  0.48984972  0.58884229  1
  Na  Na39  1  0.51122046  0.49026421  0.58408525  1
  Na  Na40  1  0.48919398  0.50365246  0.24695057  1
  Na  Na41  1  0.01572875  0.50123627  0.23481020  1
  Na  Na42  1  0.23441701  0.22319405  0.68661631  1
  Na  Na43  1  0.75848868  0.76012847  0.32757419  1
  Na  Na44  1  0.22871645  0.73989853  0.33651809  1
  Na  Na45  1  0.22977200  0.24575207  0.00917316  1
  Na  Na46  1  0.77311797  0.76589496  -0.00763283  1
  Na  Na47  1  0.24884638  0.75580578  0.67139774  1
  Na  Na48  1  0.25940967  0.26590624  0.31433251  1
  Na  Na49  1  0.75862496  0.25627559  -0.00860974  1
  Na  Na50  1  0.74722566  0.24753228  0.33468982  1
  Na  Na51  1  0.24717632  0.74624428  0.00425599  1
  Na  Na52  1  0.75457727  0.25481706  0.16558360  1
  Na  Na53  1  0.76129245  0.25771084  0.81952799  1
  Na  Na54  1  0.24046307  0.74415290  0.49858292  1
  Na  Na55  1  0.23473538  0.22900524  0.50083844  1
  Na  Na56  1  0.75394758  0.76508733  0.50165516  1
  Na  Na57  1  0.24471954  0.74824412  0.83293968  1
  Na  Na58  1  0.74177268  0.24203018  0.51676506  1
  Na  Na59  1  0.76813294  0.76295640  0.15492419  1
  Na  Na60  1  0.22914995  0.73628212  0.17417412  1
  Na  Na61  1  0.78005815  0.76344433  0.81661626  1
  Fe  Fe62  1  0.96372306  0.30062588  0.79397054  1
  Fe  Fe63  1  0.96470989  0.30797030  0.45456267  1
  Fe  Fe64  1  0.46991837  0.80708614  0.78752902  1
  Fe  Fe65  1  0.96442931  0.80883775  0.45196763  1
  Fe  Fe66  1  0.96702430  0.30284092  0.11915048  1
  Fe  Fe67  1  0.46169376  0.30900044  0.11489940  1
  Fe  Fe68  1  0.45865736  0.80459748  0.45221043  1
  Fe  Fe69  1  0.46636810  0.30630808  0.78440196  1
  Fe  Fe70  1  0.46664151  0.30656080  0.44528803  1
  Fe  Fe71  1  0.46324103  0.80788173  0.12156036  1
  Fe  Fe72  1  0.68753668  0.53380231  0.04684348  1
  Fe  Fe73  1  0.69096762  0.53722504  0.38473862  1
  Fe  Fe74  1  0.69618866  0.03363740  0.38483533  1
  Fe  Fe75  1  0.69559660  0.53611443  0.71832069  1
  Fe  Fe76  1  0.19807529  0.52624799  0.37445457  1
  Fe  Fe77  1  0.19833940  0.53047686  0.71291797  1
  Fe  Fe78  1  0.19411978  0.53212223  0.04396093  1
  Fe  Fe79  1  0.19019431  0.03820113  0.04868604  1
  Fe  Fe80  1  0.69106310  0.03559455  0.04572961  1
  Fe  Fe81  1  0.69942289  0.03494543  0.71047555  1
  Fe  Fe82  1  0.03455028  0.70270707  0.87302843  1
  Fe  Fe83  1  0.53556919  0.19533886  0.21377187  1
  Fe  Fe84  1  0.53619455  0.19517427  0.54682660  1
  Fe  Fe85  1  0.53380693  0.69309633  0.55101830  1
  Fe  Fe86  1  0.03592057  0.18313786  0.21255900  1
  Fe  Fe87  1  0.03394224  0.18465970  0.54259922  1
  Fe  Fe88  1  0.03612527  0.68999293  0.54710976  1
  Fe  Fe89  1  0.53410302  0.69562074  0.21796270  1
  Fe  Fe90  1  0.53992307  0.69503369  0.88676906  1
  Fe  Fe91  1  0.53529833  0.19293757  0.88010575  1
  Fe  Fe92  1  0.81447186  0.96440904  0.95438736  1
  Fe  Fe93  1  0.80774042  0.46501821  0.62034636  1
  Fe  Fe94  1  0.30444033  0.45880253  0.94502552  1
  Fe  Fe95  1  0.29785094  0.96905436  0.61920451  1
  Fe  Fe96  1  0.30184741  0.97008990  0.29522443  1
  Fe  Fe97  1  0.30788973  0.96962888  0.94832841  1
  Fe  Fe98  1  0.30947550  0.45985172  0.61707908  1
  Fe  Fe99  1  0.81254301  0.96534671  0.29207783  1
  Fe  Fe100  1  0.80600280  0.46601391  0.95311569  1
  Fe  Fe101  1  0.80287643  0.46790410  0.28572760  1
  S  S102  1  0.36210054  0.14027635  0.08323730  1
  S  S103  1  0.36358636  0.14272895  0.41405805  1
  S  S104  1  0.36652675  0.13800492  0.74589272  1
  S  S105  1  0.36372521  0.63679237  0.08256655  1
  S  S106  1  0.35982841  0.63843444  0.41696986  1
  S  S107  1  0.36579174  0.63795993  0.75137865  1
  S  S108  1  0.85633953  0.14155581  0.08357792  1
  S  S109  1  0.85489585  0.14487297  0.41816545  1
  S  S110  1  0.85681426  0.14427393  0.75288541  1
  S  S111  1  0.85195203  0.63763181  0.08268053  1
  S  S112  1  0.85685458  0.63952508  0.41728655  1
  S  S113  1  0.86297511  0.63372507  0.75181971  1
  S  S114  1  0.13567368  0.35627195  0.25229021  1
  S  S115  1  0.14060609  0.35772098  0.58195373  1
  S  S116  1  0.13619813  0.36223448  0.91392864  1
  S  S117  1  0.15060089  0.86076986  0.24815801  1
  S  S118  1  0.14232756  0.85313291  0.57856556  1
  S  S119  1  0.15100536  0.86174149  0.91845142  1
  S  S120  1  0.63937684  0.36214397  0.24893508  1
  S  S121  1  0.63768822  0.36479897  0.58227081  1
  S  S122  1  0.63815219  0.36030138  0.91677933  1
  S  S123  1  0.63675481  0.86172964  0.25133083  1
  S  S124  1  0.63102445  0.86266466  0.58295325  1
  S  S125  1  0.64288973  0.85967242  0.91739489  1
  S  S126  1  0.06454322  0.17060140  0.04588877  1
  S  S127  1  0.06169750  0.17191667  0.37807268  1
  S  S128  1  0.06050662  0.17763818  0.70863655  1
  S  S129  1  0.07370799  0.66782875  0.03277014  1
  S  S130  1  0.06352396  0.65358605  0.37190566  1
  S  S131  1  0.07361101  0.65908171  0.70361142  1
  S  S132  1  0.56770190  0.17167996  0.04346469  1
  S  S133  1  0.57252645  0.17423879  0.37556084  1
  S  S134  1  0.56904699  0.16794893  0.70640006  1
  S  S135  1  0.56808684  0.67180489  0.04726862  1
  S  S136  1  0.56444163  0.66902048  0.37742383  1
  S  S137  1  0.56833896  0.66594171  0.71240422  1
  S  S138  1  0.33621821  0.43636045  0.11947112  1
  S  S139  1  0.33513679  0.43225643  0.45862365  1
  S  S140  1  0.33435936  0.42951474  0.78677333  1
  S  S141  1  0.33830000  0.93433429  0.13142868  1
  S  S142  1  0.32924692  0.92932665  0.45723696  1
  S  S143  1  0.34534934  0.93286863  0.79392406  1
  S  S144  1  0.82626547  0.42954248  0.12412651  1
  S  S145  1  0.82925785  0.43438848  0.45755817  1
  S  S146  1  0.82442936  0.42746720  0.79039697  1
  S  S147  1  0.81965683  0.93333420  0.12092337  1
  S  S148  1  0.82571066  0.93279225  0.45784738  1
  S  S149  1  0.82280063  0.93493615  0.79000966  1
  S  S150  1  0.44212504  0.33507763  0.28922173  1
  S  S151  1  0.43485209  0.33050334  0.62195852  1
  S  S152  1  0.43080848  0.32520619  0.95341453  1
  S  S153  1  0.42506431  0.82560768  0.29009236  1
  S  S154  1  0.42648514  0.82646861  0.62376616  1
  S  S155  1  0.43397675  0.83085759  0.95780869  1
  S  S156  1  0.92809938  0.33362835  0.29325707  1
  S  S157  1  0.93245908  0.33526502  0.62891116  1
  S  S158  1  0.93054923  0.33760277  0.96224516  1
  S  S159  1  0.92708060  0.82687755  0.28863035  1
  S  S160  1  0.94599977  0.83326573  0.61761769  1
  S  S161  1  0.94152834  0.83391753  0.95963018  1
  S  S162  1  0.17716246  0.06818475  0.21221859  1
  S  S163  1  0.17112645  0.06606428  0.54250940  1
  S  S164  1  0.16816599  0.06003390  0.88339716  1
  S  S165  1  0.16868440  0.56116657  0.20614329  1
  S  S166  1  0.17539709  0.56350144  0.54230964  1
  S  S167  1  0.17864988  0.57239016  0.87465419  1
  S  S168  1  0.66766273  0.06716386  0.20813914  1
  S  S169  1  0.66521892  0.07040574  0.54115853  1
  S  S170  1  0.66701304  0.06719285  0.87325788  1
  S  S171  1  0.66250980  0.56647780  0.20958749  1
  S  S172  1  0.66523698  0.56988778  0.54320908  1
  S  S173  1  0.67072047  0.56815774  0.87830868  1
  O  O174  1  0.37059235  0.21879131  0.07500847  1
  O  O175  1  0.37740387  0.21689976  0.39687547  1
  O  O176  1  0.37995063  0.21514800  0.73455735  1
  O  O177  1  0.37210931  0.71439443  0.07101096  1
  O  O178  1  0.36460039  0.71889724  0.41036316  1
  O  O179  1  0.37483719  0.71623002  0.74211181  1
  O  O180  1  0.86584749  0.22159498  0.07729781  1
  O  O181  1  0.86427511  0.22509156  0.41242445  1
  O  O182  1  0.86354483  0.23073130  0.75476884  1
  O  O183  1  0.85410351  0.71609897  0.07653891  1
  O  O184  1  0.86609242  0.71772031  0.40884022  1
  O  O185  1  0.87110674  0.71235707  0.74767905  1
  O  O186  1  0.28557924  0.12992597  0.09346081  1
  O  O187  1  0.28806968  0.13881377  0.42485078  1
  O  O188  1  0.28984044  0.13279161  0.75478915  1
  O  O189  1  0.28567834  0.62859117  0.09164840  1
  O  O190  1  0.28127205  0.62720093  0.42558664  1
  O  O191  1  0.28706096  0.62911025  0.75914456  1
  O  O192  1  0.77649020  0.13380970  0.09100268  1
  O  O193  1  0.77492634  0.13607433  0.42500459  1
  O  O194  1  0.77321658  0.13365325  0.75647710  1
  O  O195  1  0.77342786  0.62196739  0.09285934  1
  O  O196  1  0.77739073  0.63120295  0.42497261  1
  O  O197  1  0.78704897  0.62247572  0.76677453  1
  O  O198  1  0.11920016  0.27987674  0.26356017  1
  O  O199  1  0.13026022  0.27687282  0.58352184  1
  O  O200  1  0.13164824  0.28610659  0.92263941  1
  O  O201  1  0.14724493  0.77985377  0.24898958  1
  O  O202  1  0.13650078  0.77016154  0.57992762  1
  O  O203  1  0.14062254  0.77902834  0.91853134  1
  O  O204  1  0.63295736  0.28230595  0.25573082  1
  O  O205  1  0.62957559  0.28608566  0.58927350  1
  O  O206  1  0.62876423  0.28272265  0.92827426  1
  O  O207  1  0.62677122  0.78422914  0.26294828  1
  O  O208  1  0.61695389  0.78761787  0.59718156  1
  O  O209  1  0.63313786  0.78347671  0.93135738  1
  O  O210  1  0.21133646  0.35940954  0.24170081  1
  O  O211  1  0.21741133  0.36729134  0.56934266  1
  O  O212  1  0.20864888  0.37767577  0.89509715  1
  O  O213  1  0.23388130  0.87468228  0.23994713  1
  O  O214  1  0.22342694  0.86531553  0.57517800  1
  O  O215  1  0.23288777  0.86948523  0.91448340  1
  O  O216  1  0.71786621  0.37202272  0.23950146  1
  O  O217  1  0.71477789  0.37486180  0.57070518  1
  O  O218  1  0.71788264  0.36801660  0.91058722  1
  O  O219  1  0.71612644  0.86966560  0.24527882  1
  O  O220  1  0.70391787  0.86685545  0.56742704  1
  O  O221  1  0.72470844  0.86857603  0.91715136  1
  O  O222  1  0.42354911  0.13184644  0.15116216  1
  O  O223  1  0.42511974  0.13841692  0.48265851  1
  O  O224  1  0.42706161  0.12882537  0.81381679  1
  O  O225  1  0.42361360  0.63146695  0.15150896  1
  O  O226  1  0.41924695  0.63225064  0.48700837  1
  O  O227  1  0.42508538  0.63088141  0.82016210  1
  O  O228  1  0.91401674  0.13313462  0.15173820  1
  O  O229  1  0.91273260  0.13649825  0.48565578  1
  O  O230  1  0.91161405  0.13652304  0.82040861  1
  O  O231  1  0.91309052  0.62502820  0.14487721  1
  O  O232  1  0.91578098  0.62787778  0.48311225  1
  O  O233  1  0.92637559  0.61939418  0.81421967  1
  O  O234  1  0.37358070  0.08089341  0.01651528  1
  O  O235  1  0.37075497  0.07776737  0.34741627  1
  O  O236  1  0.37532837  0.07635919  0.67894391  1
  O  O237  1  0.37382031  0.57591859  0.01630275  1
  O  O238  1  0.37176948  0.58191856  0.35161080  1
  O  O239  1  0.37496061  0.57753742  0.68457913  1
  O  O240  1  0.86254151  0.08402092  0.01482215  1
  O  O241  1  0.85979208  0.08729817  0.34845890  1
  O  O242  1  0.86217322  0.09341650  0.68282544  1
  O  O243  1  0.85723037  0.58084779  0.01023812  1
  O  O244  1  0.86291238  0.58004424  0.34760673  1
  O  O245  1  0.86406628  0.57631846  0.67931273  1
  O  O246  1  0.07371822  0.36940327  0.18714535  1
  O  O247  1  0.07882201  0.37385343  0.51929252  1
  O  O248  1  0.06978352  0.37134082  0.84835425  1
  O  O249  1  0.09557137  0.86954991  0.18000674  1
  O  O250  1  0.08614218  0.86056861  0.50857429  1
  O  O251  1  0.09442201  0.87591438  0.85474581  1
  O  O252  1  0.57962727  0.37063557  0.18187422  1
  O  O253  1  0.57658982  0.37552344  0.51645548  1
  O  O254  1  0.58085508  0.36523099  0.84673752  1
  O  O255  1  0.57903267  0.86604685  0.18088586  1
  O  O256  1  0.56613443  0.87084080  0.51687694  1
  O  O257  1  0.58897397  0.85993727  0.84375453  1
  O  O258  1  0.13059512  0.41736119  0.32180230  1
  O  O259  1  0.13849855  0.41352059  0.65428072  1
  O  O260  1  0.13355194  0.42318176  0.98345954  1
  O  O261  1  0.14656331  0.91726688  0.31663162  1
  O  O262  1  0.13114488  0.90747506  0.64526178  1
  O  O263  1  0.14658439  0.91464121  0.99124492  1
  O  O264  1  0.63333136  0.41972586  0.31846517  1
  O  O265  1  0.63104876  0.42366126  0.65139444  1
  O  O266  1  0.62873198  0.42041703  0.98350828  1
  O  O267  1  0.62450727  0.92291588  0.31618300  1
  O  O268  1  0.62632430  0.92681430  0.65059831  1
  O  O269  1  0.62599675  0.92200159  0.97865378  1
  O  O270  1  0.03074968  0.20134069  0.11181620  1
  O  O271  1  0.02076311  0.20666928  0.43753091  1
  O  O272  1  0.01849308  0.21109814  0.76485572  1
  O  O273  1  0.03619267  0.68499639  0.09007131  1
  O  O274  1  0.03004888  0.68451493  0.43521243  1
  O  O275  1  0.04106187  0.68794493  0.76509680  1
  O  O276  1  0.53178671  0.20451690  0.10399323  1
  O  O277  1  0.53929414  0.20648324  0.43821738  1
  O  O278  1  0.53715430  0.19808710  0.77053350  1
  O  O279  1  0.53158232  0.70347564  0.10807470  1
  O  O280  1  0.52852006  0.69948043  0.43848876  1
  O  O281  1  0.53361248  0.69801784  0.77441665  1
  O  O282  1  0.30026106  0.46592196  0.05357880  1
  O  O283  1  0.30534707  0.46882258  0.40006963  1
  O  O284  1  0.30349230  0.46774068  0.72639441  1
  O  O285  1  0.31546259  0.97310442  0.07296846  1
  O  O286  1  0.31173136  0.96756068  0.39798019  1
  O  O287  1  0.31554542  0.96261474  0.73084750  1
  O  O288  1  0.79578863  0.46270847  0.06134385  1
  O  O289  1  0.79801821  0.47077507  0.39668358  1
  O  O290  1  0.79754180  0.46213607  0.72754238  1
  O  O291  1  0.79079894  0.97556632  0.06297043  1
  O  O292  1  0.79455150  0.96905157  0.39381788  1
  O  O293  1  0.78899807  0.97288373  0.73121436  1
  O  O294  1  0.47358533  0.29601218  0.22515468  1
  O  O295  1  0.46997289  0.30212994  0.55999122  1
  O  O296  1  0.46703537  0.29557437  0.89174241  1
  O  O297  1  0.46375355  0.80023065  0.22971109  1
  O  O298  1  0.45848583  0.79343699  0.56043219  1
  O  O299  1  0.47297914  0.80167642  0.89854787  1
  O  O300  1  0.95887366  0.30213710  0.22981596  1
  O  O301  1  0.97171272  0.30814065  0.57016274  1
  O  O302  1  0.96433485  0.31639180  0.90024930  1
  O  O303  1  0.96017238  0.80634221  0.22888473  1
  O  O304  1  0.97540443  0.78833429  0.55077857  1
  O  O305  1  0.97754709  0.80418148  0.89910754  1
  O  O306  1  0.21035124  0.03185618  0.27168248  1
  O  O307  1  0.20016348  0.02980444  0.60350095  1
  O  O308  1  0.21085866  0.02888967  0.94981643  1
  O  O309  1  0.19466371  0.52725676  0.26799072  1
  O  O310  1  0.20589847  0.52877310  0.60492260  1
  O  O311  1  0.20891310  0.53931734  0.93756951  1
  O  O312  1  0.69645949  0.03161103  0.26911079  1
  O  O313  1  0.68514716  0.03525973  0.60193333  1
  O  O314  1  0.69645481  0.02951636  0.93292600  1
  O  O315  1  0.69360535  0.53161974  0.27161479  1
  O  O316  1  0.69674908  0.53609532  0.60582187  1
  O  O317  1  0.69709293  0.52852293  0.93695356  1
  O  O318  1  0.09021238  0.09281639  0.04796056  1
  O  O319  1  0.07726200  0.09433839  0.37770890  1
  O  O320  1  0.08089344  0.10131817  0.71198468  1
  O  O321  1  0.09384125  0.58477397  0.01816731  1
  O  O322  1  0.08601031  0.57261489  0.37203772  1
  O  O323  1  0.09129433  0.57581298  0.69580673  1
  O  O324  1  0.58414296  0.08979709  0.04153657  1
  O  O325  1  0.59225694  0.09376300  0.37178650  1
  O  O326  1  0.58715641  0.08557269  0.70082156  1
  O  O327  1  0.58276182  0.58986258  0.04354329  1
  O  O328  1  0.58039613  0.58628994  0.37193393  1
  O  O329  1  0.58200693  0.58252467  0.70693646  1
  O  O330  1  0.41760001  0.41639626  0.11726014  1
  O  O331  1  0.41876878  0.41687210  0.46309800  1
  O  O332  1  0.41609786  0.41423582  0.78935755  1
  O  O333  1  0.42417289  0.92149953  0.14463927  1
  O  O334  1  0.41192899  0.90976323  0.47089150  1
  O  O335  1  0.43055380  0.91857345  0.80300161  1
  O  O336  1  0.90763898  0.41086734  0.13194214  1
  O  O337  1  0.91190798  0.41860321  0.46230846  1
  O  O338  1  0.90299680  0.40124200  0.79228241  1
  O  O339  1  0.89423259  0.90770915  0.11789491  1
  O  O340  1  0.90318507  0.90801430  0.45643990  1
  O  O341  1  0.89907370  0.91309731  0.78793493  1
  O  O342  1  0.43450499  0.41651373  0.29169325  1
  O  O343  1  0.42259321  0.41517009  0.63175210  1
  O  O344  1  0.41146422  0.40618833  0.95688353  1
  O  O345  1  0.40323403  0.90618362  0.29505518  1
  O  O346  1  0.40888951  0.90755573  0.62877135  1
  O  O347  1  0.41783297  0.91320923  0.96392504  1
  O  O348  1  0.91023855  0.41610750  0.29887689  1
  O  O349  1  0.91883387  0.41978594  0.63635967  1
  O  O350  1  0.91258631  0.42066558  0.97717037  1
  O  O351  1  0.90655111  0.90925975  0.30521400  1
  O  O352  1  0.95420379  0.91580742  0.62451419  1
  O  O353  1  0.91422327  0.91167394  0.95510341  1
  O  O354  1  0.09536577  0.08297147  0.21013203  1
  O  O355  1  0.09128706  0.08804993  0.54498963  1
  O  O356  1  0.08526292  0.05223967  0.87484833  1
  O  O357  1  0.08544994  0.57232712  0.19076096  1
  O  O358  1  0.09223562  0.57716889  0.53426183  1
  O  O359  1  0.09842966  0.59292838  0.86672877  1
  O  O360  1  0.58621188  0.08739480  0.20333483  1
  O  O361  1  0.58277425  0.09080739  0.53005550  1
  O  O362  1  0.58330166  0.08171246  0.86801160  1
  O  O363  1  0.57936570  0.58166725  0.20395964  1
  O  O364  1  0.58053773  0.58113791  0.53618668  1
  O  O365  1  0.58954966  0.58855590  0.87351019  1
  O  O366  1  0.13161025  0.22677040  0.06055352  1
  O  O367  1  0.13183038  0.22742277  0.39736454  1
  O  O368  1  0.12864281  0.23334530  0.72393434  1
  O  O369  1  0.14661051  0.72131579  0.05308885  1
  O  O370  1  0.13412082  0.70555578  0.38608574  1
  O  O371  1  0.14469406  0.70832670  0.71479142  1
  O  O372  1  0.63956713  0.22179102  0.05825696  1
  O  O373  1  0.64228365  0.22697911  0.38870428  1
  O  O374  1  0.63778664  0.22001921  0.71839169  1
  O  O375  1  0.63965076  0.72193548  0.06243763  1
  O  O376  1  0.63551488  0.71957514  0.39178510  1
  O  O377  1  0.64040569  0.71382262  0.72632918  1
  O  O378  1  0.28750848  0.36673420  0.11071396  1
  O  O379  1  0.28716031  0.35934395  0.44446441  1
  O  O380  1  0.28418712  0.35801972  0.76987300  1
  O  O381  1  0.29026857  0.85979034  0.11006403  1
  O  O382  1  0.27447871  0.85931681  0.43676723  1
  O  O383  1  0.29968792  0.86048034  0.78484796  1
  O  O384  1  0.77356883  0.35852103  0.10899527  1
  O  O385  1  0.77882256  0.36204916  0.44038852  1
  O  O386  1  0.76737225  0.36279152  0.77805975  1
  O  O387  1  0.76055978  0.86584194  0.10170046  1
  O  O388  1  0.76898567  0.86262691  0.43789727  1
  O  O389  1  0.76708136  0.86788367  0.77827576  1
  O  O390  1  0.36965394  0.28943523  0.27862664  1
  O  O391  1  0.36188998  0.28247197  0.60537441  1
  O  O392  1  0.36264360  0.27302174  0.94136100  1
  O  O393  1  0.35695270  0.76972181  0.27252838  1
  O  O394  1  0.35673889  0.77444066  0.61227089  1
  O  O395  1  0.36344854  0.77785224  0.93968351  1
  O  O396  1  0.85676857  0.28350940  0.28175099  1
  O  O397  1  0.85917982  0.28639867  0.60931728  1
  O  O398  1  0.85848589  0.28441540  0.94276248  1
  O  O399  1  0.85436933  0.77348076  0.27234946  1
  O  O400  1  0.86469476  0.79859147  0.59692677  1
  O  O401  1  0.87111271  0.77817832  0.94244702  1
  O  O402  1  0.22554972  0.14081987  0.22666287  1
  O  O403  1  0.22418451  0.13965552  0.56336342  1
  O  O404  1  0.20407817  0.14099435  0.90621408  1
  O  O405  1  0.21935107  0.63535195  0.22631022  1
  O  O406  1  0.22538077  0.63685870  0.56079196  1
  O  O407  1  0.23320571  0.64142132  0.88851514  1
  O  O408  1  0.72013444  0.13784127  0.22288507  1
  O  O409  1  0.71933324  0.13883765  0.55640980  1
  O  O410  1  0.71570689  0.14083931  0.89142163  1
  O  O411  1  0.71167337  0.63832033  0.22423403  1
  O  O412  1  0.71105776  0.64233052  0.55520980  1
  O  O413  1  0.72432771  0.63744858  0.89465231  1
  O  O414  1  0.49400700  0.33117047  0.02568417  1
  O  O415  1  0.50250624  0.33476924  0.36137841  1
  O  O416  1  0.49440363  0.32942837  0.69336441  1
  O  O417  1  0.49121656  0.83329103  0.03158611  1
  O  O418  1  0.48566127  0.82880525  0.36187227  1
  O  O419  1  0.48977870  0.82877888  0.69451040  1
  O  O420  1  0.99001560  0.33227895  0.03147074  1
  O  O421  1  0.98930585  0.33818636  0.36554006  1
  O  O422  1  0.98750676  0.33667602  0.70355813  1
  O  O423  1  0.99826562  0.84623695  0.03377832  1
  O  O424  1  0.98502572  0.82147175  0.36053970  1
  O  O425  1  0.99572290  0.81507031  0.68304233  1
  O  O426  1  0.17330899  0.00966255  0.13831977  1
  O  O427  1  0.16641078  0.01216984  0.46992691  1
  O  O428  1  0.18779498  0.01069761  0.81853826  1
  O  O429  1  0.17852415  0.50496602  0.13633417  1
  O  O430  1  0.17874992  0.50480331  0.47228705  1
  O  O431  1  0.17704908  0.50919692  0.80408212  1
  O  O432  1  0.66234635  0.00788828  0.13461461  1
  O  O433  1  0.66346799  0.00867037  0.46961337  1
  O  O434  1  0.66450448  0.01146407  0.79909914  1
  O  O435  1  0.65974125  0.50615992  0.13722495  1
  O  O436  1  0.66458347  0.50839574  0.47159254  1
  O  O437  1  0.66523233  0.50809198  0.80464961  1
  O  O438  1  0.00494468  0.17343924  0.30427154  1
  O  O439  1  0.00333897  0.17121767  0.63211953  1
  O  O440  1  0.00148176  0.16220698  0.97708535  1
  O  O441  1  0.00307991  0.64346744  0.30020410  1
  O  O442  1  0.01152676  0.65355052  0.63067923  1
  O  O443  1  0.01762203  0.67276586  0.96058939  1
  O  O444  1  0.51045407  0.16895435  0.30364641  1
  O  O445  1  0.50649777  0.16380585  0.63489407  1
  O  O446  1  0.50934965  0.16524984  0.96957800  1
  O  O447  1  0.50453323  0.66529022  0.30438062  1
  O  O448  1  0.50764548  0.66342228  0.64019351  1
  O  O449  1  0.50948529  0.67046111  0.97449438  1
  O  O450  1  0.34887701  0.50009469  0.18966660  1
  O  O451  1  0.34130870  0.49003740  0.53421751  1
  O  O452  1  0.33675592  0.48829592  0.85949673  1
  O  O453  1  0.33548531  0.99012216  0.20451625  1
  O  O454  1  0.32775363  0.98858629  0.52824150  1
  O  O455  1  0.34985125  0.99547673  0.86624580  1
  O  O456  1  0.82652453  0.49073806  0.19504170  1
  O  O457  1  0.83168566  0.49209541  0.53017851  1
  O  O458  1  0.83291794  0.49077631  0.86217073  1
  O  O459  1  0.82462767  0.99022985  0.19590361  1
  O  O460  1  0.82979101  0.99208587  0.52747122  1
  O  O461  1  0.82941423  0.99508067  0.86553948  1
