# generated using pymatgen
data_Na31Fe20(SO4)36
_symmetry_space_group_name_H-M   'P 1'
_cell_length_a   18.06065292
_cell_length_b   18.06021464
_cell_length_c   19.68592067
_cell_angle_alpha   107.57366686
_cell_angle_beta   107.57041580
_cell_angle_gamma   90.68948084
_symmetry_Int_Tables_number   1
_chemical_formula_structural   Na31Fe20(SO4)36
_chemical_formula_sum   'Na62 Fe40 S72 O288'
_cell_volume   5798.14527126
_cell_formula_units_Z   2
loop_
 _symmetry_equiv_pos_site_id
 _symmetry_equiv_pos_as_xyz
  1  'x, y, z'
loop_
 _atom_site_type_symbol
 _atom_site_label
 _atom_site_symmetry_multiplicity
 _atom_site_fract_x
 _atom_site_fract_y
 _atom_site_fract_z
 _atom_site_occupancy
  Na  Na0  1  0.14649482  0.36553725  0.08348617  1
  Na  Na1  1  0.13587954  0.36906653  0.41809474  1
  Na  Na2  1  0.14169547  0.36606419  0.74972755  1
  Na  Na3  1  0.13822720  0.86699639  0.08401039  1
  Na  Na4  1  0.13764575  0.87259649  0.42540980  1
  Na  Na5  1  0.14091850  0.82388794  0.72496782  1
  Na  Na6  1  0.63379447  0.36285085  0.08749038  1
  Na  Na7  1  0.63093564  0.36116162  0.41388000  1
  Na  Na8  1  0.62740213  0.36376194  0.75119065  1
  Na  Na9  1  0.61870158  0.86676069  0.06717865  1
  Na  Na10  1  0.62413534  0.87350938  0.41310946  1
  Na  Na11  1  0.63545426  0.87745126  0.76412419  1
  Na  Na12  1  0.35328397  0.12397735  0.23381102  1
  Na  Na13  1  0.36839656  0.13670170  0.59482806  1
  Na  Na14  1  0.38756694  0.13618725  0.93631815  1
  Na  Na15  1  0.35423216  0.63197779  0.24197699  1
  Na  Na16  1  0.34886579  0.65758112  0.59311679  1
  Na  Na17  1  0.36720091  0.63729657  0.91519877  1
  Na  Na18  1  0.86976558  0.12838903  0.24751450  1
  Na  Na19  1  0.87070799  0.13455485  0.58514830  1
  Na  Na20  1  0.87409864  0.12355515  0.92262555  1
  Na  Na21  1  0.86344687  0.63332417  0.24706917  1
  Na  Na22  1  0.85791861  0.63662616  0.58018308  1
  Na  Na23  1  0.86179215  0.63391813  0.91514086  1
  Na  Na24  1  0.48225581  0.51490834  0.41544794  1
  Na  Na25  1  0.48387662  0.50392641  0.08226719  1
  Na  Na26  1  1.00656190  0.49793570  0.08403065  1
  Na  Na27  1  1.01468068  -0.00465974  0.04220341  1
  Na  Na28  1  0.99023719  0.54838334  0.42626883  1
  Na  Na29  1  0.98843721  0.50909982  0.75445568  1
  Na  Na30  1  0.45965237  0.00541531  0.76117226  1
  Na  Na31  1  0.48451448  0.54221461  0.77126326  1
  Na  Na32  1  1.02361351  -0.03096927  0.77737538  1
  Na  Na33  1  0.50858782  0.45944747  0.90485406  1
  Na  Na34  1  0.48856004  1.00024211  0.58362629  1
  Na  Na35  1  0.01229347  0.49012860  0.25275491  1
  Na  Na36  1  0.06088148  0.49703304  0.93838005  1
  Na  Na37  1  0.00629218  0.49658701  0.57931324  1
  Na  Na38  1  0.49039325  0.50770554  0.59192470  1
  Na  Na39  1  0.02045573  0.99521673  0.56871896  1
  Na  Na40  1  0.50140373  1.01190937  0.22953891  1
  Na  Na41  1  0.50821880  0.45295090  0.24207472  1
  Na  Na42  1  0.27394209  0.25546379  0.00183275  1
  Na  Na43  1  0.75472819  0.75734520  0.32648264  1
  Na  Na44  1  0.76114830  0.25891874  0.31813780  1
  Na  Na45  1  0.74533207  0.24066934  0.01341810  1
  Na  Na46  1  0.24747561  0.24584555  0.32977743  1
  Na  Na47  1  0.26270397  0.25954932  0.66759401  1
  Na  Na48  1  0.73875125  0.75326235  -0.00987872  1
  Na  Na49  1  0.25581724  0.75403596  -0.01053502  1
  Na  Na50  1  0.75123542  0.75508040  0.66579293  1
  Na  Na51  1  0.74308285  0.24383294  0.67291414  1
  Na  Na52  1  0.25664452  0.24730328  0.15937618  1
  Na  Na53  1  0.23716772  0.73673280  0.17293390  1
  Na  Na54  1  0.74904619  0.75654443  0.15662717  1
  Na  Na55  1  0.25232520  0.76824603  0.49805137  1
  Na  Na56  1  0.74726302  0.24092495  0.84222997  1
  Na  Na57  1  0.25440132  0.25020498  0.50135177  1
  Na  Na58  1  0.75066774  0.24919207  0.49885100  1
  Na  Na59  1  0.75787014  0.76871663  0.83285887  1
  Na  Na60  1  0.27081487  0.25332141  0.83247895  1
  Na  Na61  1  0.75221613  0.75791839  0.49358033  1
  Fe  Fe62  1  0.46236273  0.80546813  0.79323312  1
  Fe  Fe63  1  0.46825457  0.80288384  0.11585701  1
  Fe  Fe64  1  0.96552117  0.79984933  0.45601607  1
  Fe  Fe65  1  0.96672793  0.80237939  0.78794726  1
  Fe  Fe66  1  0.46188841  0.30818513  0.45314942  1
  Fe  Fe67  1  0.96480769  0.30528030  0.11566175  1
  Fe  Fe68  1  0.46124043  0.80956472  0.45182448  1
  Fe  Fe69  1  0.96310623  0.81317909  0.12165519  1
  Fe  Fe70  1  0.96649278  0.30724896  0.44863037  1
  Fe  Fe71  1  0.96961922  0.30513968  0.78474605  1
  Fe  Fe72  1  0.19181483  0.03097237  0.37816456  1
  Fe  Fe73  1  0.69591732  0.03326166  0.71283619  1
  Fe  Fe74  1  0.19146605  0.53919625  0.38499449  1
  Fe  Fe75  1  0.69177737  0.03742619  0.37612813  1
  Fe  Fe76  1  0.18749940  0.54574878  0.71535203  1
  Fe  Fe77  1  0.68850057  0.53337189  0.38107355  1
  Fe  Fe78  1  0.69786605  0.03322420  0.03726513  1
  Fe  Fe79  1  0.68977231  0.53566345  0.71948617  1
  Fe  Fe80  1  0.69081019  0.53510465  0.04706790  1
  Fe  Fe81  1  0.20524504  0.02564859  0.70886675  1
  Fe  Fe82  1  0.53123450  0.19257183  0.54433231  1
  Fe  Fe83  1  0.53385513  0.69193677  0.21441296  1
  Fe  Fe84  1  0.03810719  0.19126447  0.54366633  1
  Fe  Fe85  1  0.03774086  0.18857390  0.21037811  1
  Fe  Fe86  1  0.53330847  0.19634542  0.20573955  1
  Fe  Fe87  1  0.03764253  0.69122187  0.88460100  1
  Fe  Fe88  1  0.53150547  0.20299109  0.87930618  1
  Fe  Fe89  1  0.53388591  0.69501986  0.55152473  1
  Fe  Fe90  1  0.03538643  0.69327484  0.21521188  1
  Fe  Fe91  1  0.04046763  0.18631101  0.87946580  1
  Fe  Fe92  1  0.30639719  0.47076536  0.62176709  1
  Fe  Fe93  1  0.81062125  0.96569992  0.62183312  1
  Fe  Fe94  1  0.30163281  0.46808870  0.95514783  1
  Fe  Fe95  1  0.80971901  0.96490320  0.28675065  1
  Fe  Fe96  1  0.30183211  0.96551772  0.95980236  1
  Fe  Fe97  1  0.30824252  0.96231035  0.28666858  1
  Fe  Fe98  1  0.80726476  0.46337263  0.28348178  1
  Fe  Fe99  1  0.81325728  0.46492234  0.95336883  1
  Fe  Fe100  1  0.30226435  0.46832840  0.28230553  1
  Fe  Fe101  1  0.80400375  0.46366669  0.61957877  1
  S  S102  1  0.36394801  0.13407443  0.08623082  1
  S  S103  1  0.35827356  0.14019447  0.41472092  1
  S  S104  1  0.36099324  0.13919203  0.75320498  1
  S  S105  1  0.36049178  0.64012056  0.08409623  1
  S  S106  1  0.35906990  0.64207250  0.42056726  1
  S  S107  1  0.35535792  0.64535701  0.74709881  1
  S  S108  1  0.86648292  0.13927365  0.08386548  1
  S  S109  1  0.86056761  0.14163606  0.41578636  1
  S  S110  1  0.86350922  0.14129442  0.74976104  1
  S  S111  1  0.85808187  0.64140969  0.08416273  1
  S  S112  1  0.85062213  0.63889321  0.41478905  1
  S  S113  1  0.85574645  0.63735089  0.75191917  1
  S  S114  1  0.13868213  0.36109670  0.24923469  1
  S  S115  1  0.13917583  0.36310701  0.58418042  1
  S  S116  1  0.14381385  0.34988224  0.91157696  1
  S  S117  1  0.13969092  0.85786362  0.24960299  1
  S  S118  1  0.13204067  0.86328211  0.58040977  1
  S  S119  1  0.13619610  0.85901091  0.91550790  1
  S  S120  1  0.64385920  0.35974069  0.25435462  1
  S  S121  1  0.63846214  0.36010622  0.58381304  1
  S  S122  1  0.65050736  0.35952849  0.92057612  1
  S  S123  1  0.64014372  0.86016168  0.25049866  1
  S  S124  1  0.63961130  0.85967369  0.58033990  1
  S  S125  1  0.63238154  0.86264902  0.91610079  1
  S  S126  1  0.07140329  0.17491626  0.04487425  1
  S  S127  1  0.07310421  0.17618190  0.37882042  1
  S  S128  1  0.07527813  0.16904646  0.70801824  1
  S  S129  1  0.05820786  0.66945757  0.04541393  1
  S  S130  1  0.06223274  0.66974626  0.37522182  1
  S  S131  1  0.05122302  0.65373881  0.70402087  1
  S  S132  1  0.58313034  0.17547558  0.04550898  1
  S  S133  1  0.56721364  0.17212130  0.37406242  1
  S  S134  1  0.57020910  0.16885651  0.70808970  1
  S  S135  1  0.56469024  0.66160575  0.04087845  1
  S  S136  1  0.56298953  0.66601659  0.37529145  1
  S  S137  1  0.56590901  0.67163734  0.71203819  1
  S  S138  1  0.33046818  0.43669562  0.12371045  1
  S  S139  1  0.33108227  0.43668039  0.45762774  1
  S  S140  1  0.32819836  0.44494087  0.79021458  1
  S  S141  1  0.33014448  0.92502688  0.12353805  1
  S  S142  1  0.33334874  0.93825399  0.45943459  1
  S  S143  1  0.32359679  0.92337856  0.79401440  1
  S  S144  1  0.83737168  0.43545715  0.12523444  1
  S  S145  1  0.82904809  0.43306392  0.45823606  1
  S  S146  1  0.83363771  0.43121368  0.79041417  1
  S  S147  1  0.81979613  0.92915482  0.12018629  1
  S  S148  1  0.82752621  0.93183314  0.45671013  1
  S  S149  1  0.83135444  0.93291491  0.78916357  1
  S  S150  1  0.43050337  0.33152447  0.29283452  1
  S  S151  1  0.43431333  0.33551473  0.62456482  1
  S  S152  1  0.43967012  0.33838712  0.96256008  1
  S  S153  1  0.43110771  0.82566877  0.28658081  1
  S  S154  1  0.43959567  0.83427063  0.62775825  1
  S  S155  1  0.42006495  0.82736897  0.95548123  1
  S  S156  1  0.93715097  0.33798383  0.29435158  1
  S  S157  1  0.93408512  0.33242730  0.62300831  1
  S  S158  1  0.93928092  0.33122865  0.95660612  1
  S  S159  1  0.92798045  0.82430770  0.28966648  1
  S  S160  1  0.92602903  0.82807044  0.62430934  1
  S  S161  1  0.93206501  0.82497546  0.95409397  1
  S  S162  1  0.16737647  0.06330108  0.20974346  1
  S  S163  1  0.17434155  0.07325054  0.54522943  1
  S  S164  1  0.18209464  0.06989624  0.87485840  1
  S  S165  1  0.16238958  0.56148362  0.20861724  1
  S  S166  1  0.16525268  0.56337156  0.54138889  1
  S  S167  1  0.16809202  0.56332707  0.87457756  1
  S  S168  1  0.67610208  0.06968183  0.20833867  1
  S  S169  1  0.67339905  0.07122591  0.54256673  1
  S  S170  1  0.67135070  0.07451507  0.87483857  1
  S  S171  1  0.66915046  0.56522962  0.21067528  1
  S  S172  1  0.66522499  0.56497024  0.54425315  1
  S  S173  1  0.66863035  0.55870986  0.87913284  1
  O  O174  1  0.37711015  0.20765765  0.07236731  1
  O  O175  1  0.36651929  0.22055613  0.40765055  1
  O  O176  1  0.36158350  0.21756432  0.74609204  1
  O  O177  1  0.37512788  0.71704000  0.07288051  1
  O  O178  1  0.36953253  0.72159592  0.41603978  1
  O  O179  1  0.37218942  0.72252360  0.73586168  1
  O  O180  1  0.87078675  0.21862784  0.07302744  1
  O  O181  1  0.86907722  0.22103781  0.40750699  1
  O  O182  1  0.87346092  0.22037741  0.74042140  1
  O  O183  1  0.86116114  0.72143314  0.07761847  1
  O  O184  1  0.85971561  0.71852956  0.40790151  1
  O  O185  1  0.86407813  0.71740326  0.74614720  1
  O  O186  1  0.29092999  0.12812767  0.10320060  1
  O  O187  1  0.27904359  0.13155483  0.42253381  1
  O  O188  1  0.28003536  0.12153701  0.75896361  1
  O  O189  1  0.28520544  0.63593372  0.09604320  1
  O  O190  1  0.28135093  0.63294467  0.43102211  1
  O  O191  1  0.27356100  0.63947584  0.74647718  1
  O  O192  1  0.78421447  0.12533547  0.08430141  1
  O  O193  1  0.78063881  0.13220914  0.42262349  1
  O  O194  1  0.78283863  0.13345460  0.75461527  1
  O  O195  1  0.78068344  0.62793836  0.09502031  1
  O  O196  1  0.76948674  0.63046827  0.42020551  1
  O  O197  1  0.77846302  0.62958524  0.76472428  1
  O  O198  1  0.12992167  0.28226920  0.25779215  1
  O  O199  1  0.13019750  0.28481710  0.59414988  1
  O  O200  1  0.13804528  0.26836108  0.91455069  1
  O  O201  1  0.12999463  0.77675409  0.25278084  1
  O  O202  1  0.11666352  0.79099407  0.59373823  1
  O  O203  1  0.13127710  0.77705706  0.91991824  1
  O  O204  1  0.63188145  0.28216609  0.26418724  1
  O  O205  1  0.62951417  0.28064877  0.59097064  1
  O  O206  1  0.63883512  0.27863240  0.92356692  1
  O  O207  1  0.62906219  0.78337097  0.26293328  1
  O  O208  1  0.63331458  0.77908392  0.58642328  1
  O  O209  1  0.62088634  0.79272562  0.93599999  1
  O  O210  1  0.21697631  0.36901514  0.23931200  1
  O  O211  1  0.21848732  0.37034443  0.57580338  1
  O  O212  1  0.22239419  0.36332082  0.90368835  1
  O  O213  1  0.21778035  0.86717215  0.23937522  1
  O  O214  1  0.20501192  0.87191771  0.56479864  1
  O  O215  1  0.21863493  0.87352842  0.91580279  1
  O  O216  1  0.72649679  0.36847188  0.25475053  1
  O  O217  1  0.71778870  0.36813473  0.57480827  1
  O  O218  1  0.73170702  0.36663638  0.91520214  1
  O  O219  1  0.72168713  0.86610076  0.24736206  1
  O  O220  1  0.71757384  0.87072261  0.57061601  1
  O  O221  1  0.70454160  0.86681181  0.89735723  1
  O  O222  1  0.42896178  0.12394455  0.15141025  1
  O  O223  1  0.41710266  0.13466502  0.48399879  1
  O  O224  1  0.41823295  0.13604497  0.82575339  1
  O  O225  1  0.42332997  0.62978217  0.15028393  1
  O  O226  1  0.41963783  0.62921356  0.48625284  1
  O  O227  1  0.40982492  0.63707348  0.81552085  1
  O  O228  1  0.91966681  0.14378150  0.16004373  1
  O  O229  1  0.91852203  0.13699988  0.48598857  1
  O  O230  1  0.92046449  0.13566190  0.81959200  1
  O  O231  1  0.91950107  0.63277801  0.15053895  1
  O  O232  1  0.90711604  0.62778741  0.48060737  1
  O  O233  1  0.91730718  0.62381194  0.81525165  1
  O  O234  1  0.36523516  0.06897909  0.01662278  1
  O  O235  1  0.36644169  0.08258211  0.34645043  1
  O  O236  1  0.37586631  0.08023734  0.69041382  1
  O  O237  1  0.36651123  0.57849694  0.01582294  1
  O  O238  1  0.36555997  0.58371369  0.35070415  1
  O  O239  1  0.36795845  0.58425823  0.68005417  1
  O  O240  1  0.88648292  0.08052992  0.02526402  1
  O  O241  1  0.86932012  0.08241209  0.34900027  1
  O  O242  1  0.87260689  0.08227692  0.68253764  1
  O  O243  1  0.86633785  0.58460119  0.01487322  1
  O  O244  1  0.85855108  0.58127267  0.34485545  1
  O  O245  1  0.85774358  0.57991935  0.68005680  1
  O  O246  1  0.07832138  0.37090607  0.18284639  1
  O  O247  1  0.08018237  0.36995546  0.51519908  1
  O  O248  1  0.08463052  0.35925156  0.84257077  1
  O  O249  1  0.07955189  0.86904197  0.18377789  1
  O  O250  1  0.06673726  0.87613447  0.51600846  1
  O  O251  1  0.08264143  0.86170330  0.84109355  1
  O  O252  1  0.58905097  0.36973357  0.18729429  1
  O  O253  1  0.57980961  0.36919027  0.51633574  1
  O  O254  1  0.59377015  0.37368272  0.85645110  1
  O  O255  1  0.58471704  0.86536887  0.17943589  1
  O  O256  1  0.57902159  0.86748064  0.51298079  1
  O  O257  1  0.56616726  0.86801510  0.84883165  1
  O  O258  1  0.13213763  0.42049246  0.31804252  1
  O  O259  1  0.12942374  0.42337250  0.65025299  1
  O  O260  1  0.13189068  0.40447421  0.97820223  1
  O  O261  1  0.13509484  0.91383432  0.32073349  1
  O  O262  1  0.12921005  0.93126301  0.64958018  1
  O  O263  1  0.11841482  0.91349056  0.97835586  1
  O  O264  1  0.63246758  0.41961220  0.32269824  1
  O  O265  1  0.63229187  0.41891814  0.65273787  1
  O  O266  1  0.64534833  0.41560622  0.99228810  1
  O  O267  1  0.62998455  0.92277095  0.31550971  1
  O  O268  1  0.63266602  0.91712694  0.64953642  1
  O  O269  1  0.63039296  0.93214741  0.98180431  1
  O  O270  1  0.03253314  0.20865044  0.10549212  1
  O  O271  1  0.03431340  0.20646506  0.43939713  1
  O  O272  1  0.03499213  0.19341048  0.76670188  1
  O  O273  1  0.02103459  0.70869869  0.10479945  1
  O  O274  1  0.02250850  0.69421013  0.43276750  1
  O  O275  1  0.02507963  0.69308391  0.77189696  1
  O  O276  1  0.54653225  0.19196457  0.10486532  1
  O  O277  1  0.52937797  0.19927628  0.43466602  1
  O  O278  1  0.53504534  0.19122594  0.76824025  1
  O  O279  1  0.53889112  0.69921498  0.10963041  1
  O  O280  1  0.52774342  0.69738210  0.43690161  1
  O  O281  1  0.53036814  0.70565186  0.77129922  1
  O  O282  1  0.29335396  0.46423788  0.05945902  1
  O  O283  1  0.29987792  0.46963228  0.39437797  1
  O  O284  1  0.28868124  0.47995906  0.72871898  1
  O  O285  1  0.30248082  0.95982971  0.06262173  1
  O  O286  1  0.29964928  0.96795570  0.39261279  1
  O  O287  1  0.29867283  0.96495704  0.73614193  1
  O  O288  1  0.80868421  0.47221327  0.06490886  1
  O  O289  1  0.80046120  0.47178570  0.39922875  1
  O  O290  1  0.80018045  0.46663365  0.72876531  1
  O  O291  1  0.78965233  0.96909706  0.06306057  1
  O  O292  1  0.79977324  0.97109102  0.39752821  1
  O  O293  1  0.79877510  0.96675334  0.72401423  1
  O  O294  1  0.46806386  0.30337869  0.23458858  1
  O  O295  1  0.46531283  0.30122915  0.55831500  1
  O  O296  1  0.47430926  0.30760548  0.90085290  1
  O  O297  1  0.47103348  0.79699409  0.22731469  1
  O  O298  1  0.47776938  0.79831684  0.56769676  1
  O  O299  1  0.45188942  0.80838939  0.89166574  1
  O  O300  1  0.97038336  0.30884190  0.23162239  1
  O  O301  1  0.96787644  0.30318229  0.56044938  1
  O  O302  1  0.97629273  0.30062940  0.89610881  1
  O  O303  1  0.96683721  0.79712869  0.22981585  1
  O  O304  1  0.95069246  0.79883368  0.55775602  1
  O  O305  1  0.96948398  0.78761075  0.89333401  1
  O  O306  1  0.20115698  0.02997247  0.27397390  1
  O  O307  1  0.20063223  0.04042640  0.60797775  1
  O  O308  1  0.20726272  0.02705604  0.92983447  1
  O  O309  1  0.19872840  0.53401657  0.27668499  1
  O  O310  1  0.20349680  0.52977561  0.60406050  1
  O  O311  1  0.19412048  0.52474430  0.93296771  1
  O  O312  1  0.70352317  0.02591059  0.26527562  1
  O  O313  1  0.70372172  0.03298364  0.60238203  1
  O  O314  1  0.69665362  0.03774477  0.93488839  1
  O  O315  1  0.69831875  0.52722725  0.27087439  1
  O  O316  1  0.69512947  0.53071505  0.60686943  1
  O  O317  1  0.70966746  0.52528583  0.94122564  1
  O  O318  1  0.08942111  0.09708000  0.04448024  1
  O  O319  1  0.09454029  0.09782535  0.37767433  1
  O  O320  1  0.09679081  0.08797757  0.69960774  1
  O  O321  1  0.06880320  0.58957442  0.04830436  1
  O  O322  1  0.08148167  0.58668528  0.37056123  1
  O  O323  1  0.06987110  0.57198725  0.70697224  1
  O  O324  1  0.60764326  0.09440479  0.03219449  1
  O  O325  1  0.58548407  0.08989895  0.36532492  1
  O  O326  1  0.59035695  0.08610300  0.69350360  1
  O  O327  1  0.58216514  0.57930982  0.04135054  1
  O  O328  1  0.57824449  0.58296180  0.37152214  1
  O  O329  1  0.58288767  0.58938192  0.71233098  1
  O  O330  1  0.41458299  0.43383505  0.13449991  1
  O  O331  1  0.41479427  0.42276974  0.46456043  1
  O  O332  1  0.41013687  0.44051472  0.79257545  1
  O  O333  1  0.41320918  0.90792306  0.13409316  1
  O  O334  1  0.41225415  0.91197408  0.45775582  1
  O  O335  1  0.40475634  0.90287792  0.79322652  1
  O  O336  1  0.92084578  0.41934580  0.13085505  1
  O  O337  1  0.91122629  0.41562396  0.46403855  1
  O  O338  1  0.91535602  0.41466337  0.79242207  1
  O  O339  1  0.89651918  0.90364933  0.11622721  1
  O  O340  1  0.90668432  0.90872322  0.46091144  1
  O  O341  1  0.90900252  0.90601151  0.78630094  1
  O  O342  1  0.41258699  0.41470754  0.29812815  1
  O  O343  1  0.41216397  0.41574829  0.62276482  1
  O  O344  1  0.40995219  0.41561532  0.95603650  1
  O  O345  1  0.41261607  0.90626888  0.29063733  1
  O  O346  1  0.44059781  0.91832451  0.63825022  1
  O  O347  1  0.39664780  0.90812564  0.96956548  1
  O  O348  1  0.92092611  0.42168011  0.30139003  1
  O  O349  1  0.91654793  0.41530194  0.62994452  1
  O  O350  1  0.92165170  0.41345465  0.96030473  1
  O  O351  1  0.90744319  0.90421782  0.29494251  1
  O  O352  1  0.91528834  0.91349282  0.63906757  1
  O  O353  1  0.91484357  0.90250281  0.95171530  1
  O  O354  1  0.08914999  0.08837552  0.21205027  1
  O  O355  1  0.09070935  0.08886233  0.53502046  1
  O  O356  1  0.09976351  0.08732491  0.86917438  1
  O  O357  1  0.08183454  0.58286551  0.21081965  1
  O  O358  1  0.08293167  0.56779291  0.53783479  1
  O  O359  1  0.08500409  0.58152643  0.87146028  1
  O  O360  1  0.59683667  0.09038754  0.20891421  1
  O  O361  1  0.59379480  0.09184759  0.54061053  1
  O  O362  1  0.59090674  0.09672502  0.86480807  1
  O  O363  1  0.58658604  0.58075615  0.20409583  1
  O  O364  1  0.58220223  0.58092962  0.53721040  1
  O  O365  1  0.58705765  0.56225749  0.87680204  1
  O  O366  1  0.14129648  0.22946901  0.06093418  1
  O  O367  1  0.14304463  0.23188093  0.39653116  1
  O  O368  1  0.14444796  0.22503922  0.72673922  1
  O  O369  1  0.13184893  0.71663057  0.05949141  1
  O  O370  1  0.13266167  0.72182146  0.39166522  1
  O  O371  1  0.12196725  0.69665295  0.70868585  1
  O  O372  1  0.65114014  0.23280238  0.06562175  1
  O  O373  1  0.63922305  0.22529444  0.39477655  1
  O  O374  1  0.64146508  0.22314849  0.72601485  1
  O  O375  1  0.63767222  0.70828721  0.05124722  1
  O  O376  1  0.63526650  0.71582265  0.39013893  1
  O  O377  1  0.63783956  0.71950317  0.72199849  1
  O  O378  1  0.28924679  0.35964698  0.11249616  1
  O  O379  1  0.28258575  0.36340080  0.44262225  1
  O  O380  1  0.28403357  0.36777948  0.77204487  1
  O  O381  1  0.27838544  0.85364962  0.10802583  1
  O  O382  1  0.27971388  0.87252451  0.45171797  1
  O  O383  1  0.27105268  0.85469674  0.77750972  1
  O  O384  1  0.78759710  0.36441998  0.11091986  1
  O  O385  1  0.77734520  0.36100808  0.44062648  1
  O  O386  1  0.78363103  0.35950318  0.77656062  1
  O  O387  1  0.76349090  0.86078765  0.10586421  1
  O  O388  1  0.77037476  0.86320143  0.43883453  1
  O  O389  1  0.77527171  0.86369211  0.77302363  1
  O  O390  1  0.35842574  0.28121096  0.27833011  1
  O  O391  1  0.36306720  0.28379426  0.61088074  1
  O  O392  1  0.37212562  0.28267163  0.95097411  1
  O  O393  1  0.36126230  0.77158161  0.26867902  1
  O  O394  1  0.36158027  0.79178192  0.60427716  1
  O  O395  1  0.35420056  0.77021497  0.94055496  1
  O  O396  1  0.86720694  0.28787394  0.28279915  1
  O  O397  1  0.86244843  0.28160669  0.60861739  1
  O  O398  1  0.86887022  0.27951272  0.94196227  1
  O  O399  1  0.85628340  0.76926751  0.26873032  1
  O  O400  1  0.85187023  0.78110057  0.61265883  1
  O  O401  1  0.86108649  0.77173040  0.93923201  1
  O  O402  1  0.22112372  0.13359832  0.22425230  1
  O  O403  1  0.22462901  0.14625237  0.56149324  1
  O  O404  1  0.23588505  0.14071747  0.89512279  1
  O  O405  1  0.21221518  0.62926796  0.21523644  1
  O  O406  1  0.20857078  0.63730375  0.55252144  1
  O  O407  1  0.21871434  0.63425967  0.88988156  1
  O  O408  1  0.73222207  0.13879976  0.22967129  1
  O  O409  1  0.72803423  0.14193932  0.55987891  1
  O  O410  1  0.72904845  0.14295612  0.89290346  1
  O  O411  1  0.71968128  0.63801198  0.22851233  1
  O  O412  1  0.71543863  0.63704326  0.55918261  1
  O  O413  1  0.71204299  0.63450166  0.89301135  1
  O  O414  1  0.49975560  0.35619094  0.03629004  1
  O  O415  1  0.48854188  0.33709244  0.36827109  1
  O  O416  1  0.49562336  0.34195355  0.69387074  1
  O  O417  1  0.48544949  0.82715689  0.02406365  1
  O  O418  1  0.48977386  0.82676712  0.35950340  1
  O  O419  1  0.48985823  0.82323828  0.70016351  1
  O  O420  1  0.99828215  0.33755681  0.03082575  1
  O  O421  1  0.99858286  0.34078081  0.36651035  1
  O  O422  1  0.99448460  0.33390990  0.69470443  1
  O  O423  1  0.99094384  0.82876495  0.02802015  1
  O  O424  1  0.98477241  0.82347271  0.36181520  1
  O  O425  1  0.98827987  0.82240759  0.69261851  1
  O  O426  1  0.15801622  0.00217164  0.13881112  1
  O  O427  1  0.17691110  0.01396491  0.47479643  1
  O  O428  1  0.17634996  0.01476244  0.79789120  1
  O  O429  1  0.14987446  0.49523328  0.14001909  1
  O  O430  1  0.16747602  0.50395296  0.46877861  1
  O  O431  1  0.16152278  0.50563497  0.79953747  1
  O  O432  1  0.67201242  0.01491910  0.13279568  1
  O  O433  1  0.67019831  0.01355773  0.46897041  1
  O  O434  1  0.67130260  0.01418503  0.80280303  1
  O  O435  1  0.67127149  0.50705609  0.13926893  1
  O  O436  1  0.66486707  0.50511732  0.47268218  1
  O  O437  1  0.67227939  0.50210935  0.80634654  1
  O  O438  1  0.01363317  0.17540167  0.30743452  1
  O  O439  1  0.01503738  0.16775042  0.63529993  1
  O  O440  1  0.01245768  0.17367118  0.97152244  1
  O  O441  1  0.00408656  0.66324167  0.30002903  1
  O  O442  1  -0.01449354  0.64219934  0.63533670  1
  O  O443  1  0.00262102  0.66429276  0.96954231  1
  O  O444  1  0.50969778  0.17246922  0.30174650  1
  O  O445  1  0.51037772  0.17075347  0.63624839  1
  O  O446  1  0.52259387  0.17721651  0.97474102  1
  O  O447  1  0.50466028  0.66334663  0.30239930  1
  O  O448  1  0.50673729  0.66055769  0.63578834  1
  O  O449  1  0.50163851  0.65663286  0.97307305  1
  O  O450  1  0.32209566  0.49437979  0.19465902  1
  O  O451  1  0.33203319  0.49669854  0.52909681  1
  O  O452  1  0.32384731  0.49804374  0.86307660  1
  O  O453  1  0.33025046  0.98551793  0.19555400  1
  O  O454  1  0.34819782  1.00426593  0.52878724  1
  O  O455  1  0.33199853  0.98207119  0.86944305  1
  O  O456  1  0.84049453  0.49484342  0.19859590  1
  O  O457  1  0.83065364  0.49095618  0.53166821  1
  O  O458  1  0.83698086  0.49123506  0.86274149  1
  O  O459  1  0.83141363  0.98658060  0.19659830  1
  O  O460  1  0.83221563  0.99090418  0.53066412  1
  O  O461  1  0.83861610  0.99413622  0.85846560  1
