# generated using pymatgen
data_Na31Fe20(SO4)36
_symmetry_space_group_name_H-M   'P 1'
_cell_length_a   18.07388032
_cell_length_b   18.07369511
_cell_length_c   19.71266084
_cell_angle_alpha   107.57237686
_cell_angle_beta   107.59750077
_cell_angle_gamma   90.74133450
_symmetry_Int_Tables_number   1
_chemical_formula_structural   Na31Fe20(SO4)36
_chemical_formula_sum   'Na62 Fe40 S72 O288'
_cell_volume   5813.00469769
_cell_formula_units_Z   2
loop_
 _symmetry_equiv_pos_site_id
 _symmetry_equiv_pos_as_xyz
  1  'x, y, z'
loop_
 _atom_site_type_symbol
 _atom_site_label
 _atom_site_symmetry_multiplicity
 _atom_site_fract_x
 _atom_site_fract_y
 _atom_site_fract_z
 _atom_site_occupancy
  Na  Na0  1  0.16519445  0.36831909  0.11817071  1
  Na  Na1  1  0.14014453  0.37307537  0.42715978  1
  Na  Na2  1  0.14966597  0.34926333  0.75002728  1
  Na  Na3  1  0.13761641  0.86579809  0.08128982  1
  Na  Na4  1  0.13430787  0.86377640  0.41465371  1
  Na  Na5  1  0.13533004  0.86690349  0.74968196  1
  Na  Na6  1  0.63440530  0.36745124  0.07161123  1
  Na  Na7  1  0.63982496  0.37736262  0.42791866  1
  Na  Na8  1  0.63381321  0.36530043  0.74599577  1
  Na  Na9  1  0.62202571  0.84586976  0.07064619  1
  Na  Na10  1  0.61442456  0.87317098  0.41832069  1
  Na  Na11  1  0.63004697  0.86615904  0.75189532  1
  Na  Na12  1  0.36069033  0.13903540  0.24541653  1
  Na  Na13  1  0.36709103  0.13113147  0.58451824  1
  Na  Na14  1  0.36338711  0.14839174  0.91145510  1
  Na  Na15  1  0.35433762  0.63403392  0.25246465  1
  Na  Na16  1  0.35721408  0.62282737  0.56791045  1
  Na  Na17  1  0.37636803  0.63728453  0.91971849  1
  Na  Na18  1  0.86349608  0.13241657  0.24977256  1
  Na  Na19  1  0.86316943  0.14013413  0.58969860  1
  Na  Na20  1  0.86132614  0.13113357  0.91388866  1
  Na  Na21  1  0.86516032  0.62591572  0.24485054  1
  Na  Na22  1  0.86986993  0.62284137  0.58067502  1
  Na  Na23  1  0.86922509  0.63486497  0.92009448  1
  Na  Na24  1  0.97620039  0.49760707  0.08984698  1
  Na  Na25  1  0.98941954  0.00930955  0.76493083  1
  Na  Na26  1  0.97901870  0.51392897  0.71542440  1
  Na  Na27  1  0.99031534  0.01016609  0.41586354  1
  Na  Na28  1  0.51277848  0.50179758  0.07532951  1
  Na  Na29  1  0.99885316  0.01421220  0.06495871  1
  Na  Na30  1  0.49281980  0.03651525  0.74578422  1
  Na  Na31  1  0.49725551  -0.00345549  0.08958732  1
  Na  Na32  1  0.43904414  0.49917409  0.40774510  1
  Na  Na33  1  0.50741911  0.47826257  0.60893656  1
  Na  Na34  1  0.00734710  0.99239056  0.58683977  1
  Na  Na35  1  0.01380359  0.49297879  0.91078579  1
  Na  Na36  1  0.53626229  0.50068477  0.90508087  1
  Na  Na37  1  0.48981380  1.01416407  0.90875656  1
  Na  Na38  1  0.50407729  0.95895152  0.25232974  1
  Na  Na39  1  0.48008628  0.51020690  0.25831452  1
  Na  Na40  1  0.01090581  0.98985293  0.24472379  1
  Na  Na41  1  0.06119482  0.49251422  0.28992098  1
  Na  Na42  1  0.74011658  0.74432459  0.33766699  1
  Na  Na43  1  0.71767261  0.71365089  -0.00123175  1
  Na  Na44  1  0.26630228  0.76208661  -0.00481519  1
  Na  Na45  1  0.25637646  0.75011177  0.66014258  1
  Na  Na46  1  0.25608538  0.25959035  -0.00166266  1
  Na  Na47  1  0.74324504  0.74574490  0.67277749  1
  Na  Na48  1  0.74349408  0.24697692  -0.00727798  1
  Na  Na49  1  0.26776769  0.27494489  0.31895538  1
  Na  Na50  1  0.26003724  0.75538739  0.32924723  1
  Na  Na51  1  0.75044750  0.25019079  0.33919468  1
  Na  Na52  1  0.26587998  0.76104950  0.15834698  1
  Na  Na53  1  0.26390765  0.75863989  0.82902485  1
  Na  Na54  1  0.75186045  0.25977636  0.82026889  1
  Na  Na55  1  0.74627627  0.25019646  0.16392369  1
  Na  Na56  1  0.74566240  0.24896113  0.51538351  1
  Na  Na57  1  0.24654737  0.24759660  0.50548520  1
  Na  Na58  1  0.73984418  0.73454644  0.17091614  1
  Na  Na59  1  0.74106470  0.74055708  0.83908573  1
  Na  Na60  1  0.74439023  0.74503555  0.50751261  1
  Na  Na61  1  0.26025470  0.74636822  0.48860284  1
  Fe  Fe62  1  0.96156718  0.30618281  0.78088078  1
  Fe  Fe63  1  0.46736563  0.30066520  0.79040478  1
  Fe  Fe64  1  0.46856888  0.30190691  0.45122437  1
  Fe  Fe65  1  0.96603553  0.80374027  0.11387172  1
  Fe  Fe66  1  0.96482353  0.31470316  0.46079117  1
  Fe  Fe67  1  0.96396604  0.80939156  0.45150578  1
  Fe  Fe68  1  0.46826424  0.31066761  0.11884388  1
  Fe  Fe69  1  0.47020878  0.79813541  0.78952699  1
  Fe  Fe70  1  0.96617264  0.30429292  0.12393309  1
  Fe  Fe71  1  0.96603572  0.81210593  0.78608200  1
  Fe  Fe72  1  0.69220173  0.53514990  0.37794214  1
  Fe  Fe73  1  0.19311455  0.53421646  0.71293190  1
  Fe  Fe74  1  0.68832889  0.03472155  0.71238137  1
  Fe  Fe75  1  0.70112370  0.53072686  0.70518169  1
  Fe  Fe76  1  0.19228410  0.03825856  0.71692745  1
  Fe  Fe77  1  0.19157253  0.04241873  0.04979607  1
  Fe  Fe78  1  0.69308919  0.03395377  0.38296097  1
  Fe  Fe79  1  0.68958194  0.03189072  0.04466211  1
  Fe  Fe80  1  0.19235919  0.03718067  0.38425745  1
  Fe  Fe81  1  0.19539193  0.53047631  0.05051224  1
  Fe  Fe82  1  0.53634812  0.19025287  0.54778108  1
  Fe  Fe83  1  0.03801425  0.19148576  0.55436716  1
  Fe  Fe84  1  0.03271645  0.18951459  0.21732951  1
  Fe  Fe85  1  0.52780036  0.70273613  0.53742582  1
  Fe  Fe86  1  0.03704557  0.69314727  0.21583543  1
  Fe  Fe87  1  0.03413811  0.19734078  0.88487752  1
  Fe  Fe88  1  0.52595513  0.70050385  0.20933112  1
  Fe  Fe89  1  0.53692727  0.19252785  0.21314285  1
  Fe  Fe90  1  0.03880903  0.68526625  0.54239128  1
  Fe  Fe91  1  0.03734240  0.69534967  0.87992049  1
  Fe  Fe92  1  0.80410465  0.96554264  0.61799414  1
  Fe  Fe93  1  0.30984977  0.46512081  0.62593369  1
  Fe  Fe94  1  0.80533694  0.96232323  0.28274755  1
  Fe  Fe95  1  0.80100325  0.46713028  0.95315323  1
  Fe  Fe96  1  0.81361787  0.46552795  0.29121806  1
  Fe  Fe97  1  0.30913799  0.46451936  0.94964422  1
  Fe  Fe98  1  0.80559185  0.96121687  0.94902148  1
  Fe  Fe99  1  0.30415225  0.97207556  0.95260144  1
  Fe  Fe100  1  0.31099520  0.96491556  0.29097411  1
  Fe  Fe101  1  0.30774712  0.96381431  0.61673417  1
  S  S102  1  0.35956870  0.14387456  0.08311967  1
  S  S103  1  0.35883356  0.14164736  0.41403110  1
  S  S104  1  0.35725046  0.13652968  0.74915174  1
  S  S105  1  0.35660881  0.63934379  0.08592793  1
  S  S106  1  0.35804889  0.63919849  0.41559769  1
  S  S107  1  0.35926008  0.63976412  0.75110588  1
  S  S108  1  0.86009941  0.13540654  0.08364072  1
  S  S109  1  0.86138565  0.13754336  0.41704549  1
  S  S110  1  0.85936382  0.13899141  0.75194494  1
  S  S111  1  0.86306956  0.63978338  0.08222117  1
  S  S112  1  0.85958094  0.64396794  0.41629486  1
  S  S113  1  0.86370283  0.64586598  0.74997555  1
  S  S114  1  0.13972127  0.34948442  0.25282689  1
  S  S115  1  0.14232782  0.35708493  0.58803170  1
  S  S116  1  0.13684227  0.36234488  0.91482193  1
  S  S117  1  0.13794060  0.86149135  0.24883838  1
  S  S118  1  0.13857532  0.86223758  0.58387863  1
  S  S119  1  0.13987222  0.86384498  0.91728244  1
  S  S120  1  0.64398374  0.35917266  0.24824639  1
  S  S121  1  0.64006542  0.35809226  0.58096321  1
  S  S122  1  0.64000819  0.36201005  0.91680741  1
  S  S123  1  0.64163036  0.85952938  0.25068321  1
  S  S124  1  0.64115922  0.86165882  0.58407490  1
  S  S125  1  0.64276692  0.85679373  0.91817371  1
  S  S126  1  0.06519823  0.17297302  0.04197710  1
  S  S127  1  0.06369387  0.16435878  0.37744335  1
  S  S128  1  0.06204885  0.16339131  0.70971300  1
  S  S129  1  0.07295542  0.67141843  0.04221199  1
  S  S130  1  0.06753454  0.67639032  0.38159632  1
  S  S131  1  0.06992550  0.67507371  0.71128479  1
  S  S132  1  0.56436611  0.16465949  0.04231618  1
  S  S133  1  0.56923880  0.16609824  0.37280832  1
  S  S134  1  0.56650352  0.16937296  0.70793435  1
  S  S135  1  0.55739519  0.66781960  0.04387846  1
  S  S136  1  0.56966416  0.67528576  0.37465513  1
  S  S137  1  0.57179422  0.67289966  0.70224421  1
  S  S138  1  0.33726194  0.43690892  0.12269858  1
  S  S139  1  0.33576070  0.42145884  0.46468662  1
  S  S140  1  0.33591403  0.43367497  0.79526227  1
  S  S141  1  0.32796788  0.94295454  0.12560384  1
  S  S142  1  0.32439318  0.93379330  0.45363244  1
  S  S143  1  0.32724552  0.93322540  0.78805131  1
  S  S144  1  0.83154838  0.42754845  0.12500732  1
  S  S145  1  0.82736990  0.43339908  0.45534932  1
  S  S146  1  0.83418490  0.43506844  0.79432918  1
  S  S147  1  0.83058621  0.92732696  0.12252902  1
  S  S148  1  0.83324405  0.93514954  0.45821586  1
  S  S149  1  0.83102416  0.93434808  0.79027816  1
  S  S150  1  0.44265227  0.33070419  0.28962088  1
  S  S151  1  0.43138919  0.32165846  0.62444173  1
  S  S152  1  0.43140855  0.33266466  0.95899024  1
  S  S153  1  0.43024816  0.82660243  0.29167036  1
  S  S154  1  0.43216140  0.82813979  0.62715465  1
  S  S155  1  0.43232239  0.84655732  0.95943578  1
  S  S156  1  0.92914540  0.32347269  0.29190974  1
  S  S157  1  0.93674686  0.32574304  0.62194743  1
  S  S158  1  0.92724134  0.32769384  0.95824488  1
  S  S159  1  0.93331807  0.83162848  0.28951719  1
  S  S160  1  0.93396226  0.83633068  0.62522899  1
  S  S161  1  0.93505846  0.83186604  0.95595118  1
  S  S162  1  0.16501889  0.06511380  0.20841098  1
  S  S163  1  0.16370212  0.06287982  0.53934343  1
  S  S164  1  0.16884791  0.07075970  0.87791199  1
  S  S165  1  0.15972334  0.56620881  0.20657372  1
  S  S166  1  0.17141966  0.56508290  0.54592797  1
  S  S167  1  0.16994318  0.57035072  0.87626494  1
  S  S168  1  0.67156733  0.06469623  0.21017412  1
  S  S169  1  0.67341686  0.06922600  0.54325988  1
  S  S170  1  0.66783348  0.06065024  0.87587668  1
  S  S171  1  0.66598154  0.56995358  0.20968761  1
  S  S172  1  0.66758961  0.57702631  0.53902348  1
  S  S173  1  0.67812403  0.56737760  0.86879290  1
  O  O174  1  0.37259659  0.22378315  0.07885371  1
  O  O175  1  0.37012735  0.21886642  0.40231380  1
  O  O176  1  0.37013852  0.21525215  0.74432717  1
  O  O177  1  0.35841902  0.71730356  0.07863931  1
  O  O178  1  0.35965637  0.71875464  0.41057779  1
  O  O179  1  0.36628921  0.72048188  0.74353903  1
  O  O180  1  0.86736806  0.21424262  0.07526796  1
  O  O181  1  0.87207503  0.21584435  0.40903829  1
  O  O182  1  0.86875000  0.21795108  0.74516698  1
  O  O183  1  0.87794200  0.71394229  0.06594153  1
  O  O184  1  0.86769031  0.72263381  0.40625256  1
  O  O185  1  0.87192759  0.72700052  0.74467638  1
  O  O186  1  0.28202657  0.13625296  0.09356556  1
  O  O187  1  0.27940757  0.13513636  0.42225798  1
  O  O188  1  0.27694530  0.12751589  0.75487383  1
  O  O189  1  0.28055141  0.62326391  0.09860209  1
  O  O190  1  0.28952710  0.61983305  0.43453828  1
  O  O191  1  0.27732757  0.63151842  0.75605058  1
  O  O192  1  0.78177253  0.12505168  0.09291783  1
  O  O193  1  0.78174728  0.12956346  0.42400062  1
  O  O194  1  0.78192390  0.12943480  0.76244785  1
  O  O195  1  0.78458825  0.63615386  0.08769556  1
  O  O196  1  0.78042356  0.63567859  0.42424447  1
  O  O197  1  0.78241572  0.63489074  0.75197253  1
  O  O198  1  0.12628763  0.26710509  0.25487986  1
  O  O199  1  0.13315422  0.27805939  0.59570157  1
  O  O200  1  0.12912969  0.28394576  0.92457556  1
  O  O201  1  0.12942100  0.78440459  0.26070685  1
  O  O202  1  0.12755525  0.78450112  0.59331225  1
  O  O203  1  0.13220428  0.78508229  0.92701290  1
  O  O204  1  0.63837946  0.27871064  0.25481324  1
  O  O205  1  0.62937184  0.27907824  0.58850500  1
  O  O206  1  0.63365371  0.28661648  0.92894652  1
  O  O207  1  0.62847686  0.77840350  0.25523555  1
  O  O208  1  0.63008906  0.77879562  0.58730167  1
  O  O209  1  0.63543724  0.78050088  0.92769263  1
  O  O210  1  0.21445192  0.35665071  0.24016814  1
  O  O211  1  0.22093898  0.36748581  0.57977913  1
  O  O212  1  0.21410876  0.37357438  0.90589486  1
  O  O213  1  0.21671056  0.86986175  0.24075464  1
  O  O214  1  0.21684460  0.86832955  0.57401427  1
  O  O215  1  0.21912154  0.87247091  0.90909043  1
  O  O216  1  0.72323398  0.37142793  0.24147200  1
  O  O217  1  0.71547839  0.37039001  0.57152234  1
  O  O218  1  0.72060820  0.37163163  0.90689417  1
  O  O219  1  0.72381232  0.86463191  0.24791491  1
  O  O220  1  0.72342763  0.86776278  0.57967566  1
  O  O221  1  0.72070372  0.86798795  0.90628341  1
  O  O222  1  0.42030936  0.12941675  0.14726489  1
  O  O223  1  0.41731173  0.13591871  0.48268045  1
  O  O224  1  0.41428250  0.11985851  0.81244447  1
  O  O225  1  0.41896618  0.63376855  0.15522264  1
  O  O226  1  0.42881622  0.63459457  0.48341069  1
  O  O227  1  0.41603203  0.63297000  0.81793764  1
  O  O228  1  0.91998870  0.12717200  0.15144333  1
  O  O229  1  0.91963614  0.12616625  0.48391256  1
  O  O230  1  0.92067510  0.12894095  0.81839667  1
  O  O231  1  0.92137866  0.63665822  0.15357780  1
  O  O232  1  0.91844213  0.63933012  0.48559713  1
  O  O233  1  0.91955576  0.64099628  0.82194314  1
  O  O234  1  0.36301113  0.08710170  0.01139601  1
  O  O235  1  0.36439425  0.08108274  0.34592253  1
  O  O236  1  0.36286399  0.07830489  0.67746172  1
  O  O237  1  0.36633288  0.58064497  0.01877561  1
  O  O238  1  0.36972460  0.58228392  0.34899226  1
  O  O239  1  0.36503743  0.58297157  0.68042514  1
  O  O240  1  0.86974251  0.07617440  0.01632299  1
  O  O241  1  0.86876775  0.07734122  0.34833317  1
  O  O242  1  0.86640870  0.07985134  0.68313598  1
  O  O243  1  0.87492975  0.57417788  0.01956418  1
  O  O244  1  0.86697970  0.58429833  0.34861464  1
  O  O245  1  0.87795078  0.58912718  0.68600532  1
  O  O246  1  0.07647435  0.36280481  0.18780840  1
  O  O247  1  0.08315783  0.36296793  0.51878063  1
  O  O248  1  0.07524615  0.36811097  0.84663386  1
  O  O249  1  0.07882671  0.86676333  0.17894319  1
  O  O250  1  0.07885741  0.87340527  0.51745504  1
  O  O251  1  0.08166309  0.86957661  0.84785919  1
  O  O252  1  0.58580075  0.36546224  0.17909029  1
  O  O253  1  0.57688116  0.36591361  0.51389927  1
  O  O254  1  0.58178686  0.36456237  0.84445577  1
  O  O255  1  0.58643411  0.87341939  0.18582930  1
  O  O256  1  0.58489479  0.87370250  0.52031401  1
  O  O257  1  0.58249644  0.86589304  0.85122659  1
  O  O258  1  0.13443330  0.40302511  0.32320193  1
  O  O259  1  0.13493744  0.41632259  0.65619117  1
  O  O260  1  0.12649870  0.42236532  0.98164640  1
  O  O261  1  0.12596708  0.92257229  0.31363674  1
  O  O262  1  0.13211954  0.92303402  0.65232793  1
  O  O263  1  0.13145113  0.92312207  0.98447514  1
  O  O264  1  0.63353513  0.41603320  0.31592918  1
  O  O265  1  0.63004581  0.41803911  0.64867987  1
  O  O266  1  0.63066548  0.42649541  0.97889175  1
  O  O267  1  0.63548804  0.91625373  0.32156647  1
  O  O268  1  0.63890044  0.91555626  0.65717508  1
  O  O269  1  0.63757287  0.91838238  0.98690841  1
  O  O270  1  0.02755661  0.19905554  0.10265778  1
  O  O271  1  0.03011040  0.19294468  0.43975841  1
  O  O272  1  0.02696790  0.19780694  0.77114840  1
  O  O273  1  0.03811065  0.70194890  0.10411160  1
  O  O274  1  0.02889345  0.71283994  0.44145481  1
  O  O275  1  0.03245250  0.70644716  0.77207476  1
  O  O276  1  0.53487799  0.20118621  0.10809106  1
  O  O277  1  0.53292257  0.19490976  0.43380743  1
  O  O278  1  0.52756510  0.19570864  0.76544263  1
  O  O279  1  0.52877717  0.69603064  0.11143760  1
  O  O280  1  0.53398718  0.70190057  0.43488784  1
  O  O281  1  0.53095980  0.69815109  0.75802583  1
  O  O282  1  0.29935106  0.46342861  0.05496029  1
  O  O283  1  0.31555351  0.44829808  0.39993189  1
  O  O284  1  0.30514978  0.47015061  0.73363110  1
  O  O285  1  0.29250131  0.97784210  0.06350775  1
  O  O286  1  0.28779071  0.97296629  0.39298660  1
  O  O287  1  0.29528546  0.96580245  0.72439608  1
  O  O288  1  0.81195059  0.46278955  0.06421332  1
  O  O289  1  0.79682463  0.47002919  0.39201039  1
  O  O290  1  0.80691373  0.47410707  0.73706303  1
  O  O291  1  0.80146517  0.96299665  0.06146443  1
  O  O292  1  0.80136351  0.96982730  0.39642436  1
  O  O293  1  0.79957942  0.97110680  0.72994747  1
  O  O294  1  0.47923369  0.29598494  0.22830022  1
  O  O295  1  0.47113655  0.29521491  0.56502725  1
  O  O296  1  0.46053210  0.30244667  0.89528923  1
  O  O297  1  0.46925630  0.79653988  0.23170397  1
  O  O298  1  0.47169518  0.79949766  0.56919554  1
  O  O299  1  0.45984067  0.81743516  0.89404969  1
  O  O300  1  0.96397475  0.28993018  0.22985504  1
  O  O301  1  0.97228129  0.28799835  0.55976006  1
  O  O302  1  0.96532693  0.30068617  0.89811543  1
  O  O303  1  0.96891353  0.80115765  0.22833790  1
  O  O304  1  0.96781436  0.80753343  0.56310513  1
  O  O305  1  0.97311346  0.80419699  0.89615954  1
  O  O306  1  0.19465921  0.02852856  0.26871449  1
  O  O307  1  0.19678997  0.02968132  0.60160796  1
  O  O308  1  0.19799166  0.03339434  0.93859349  1
  O  O309  1  0.17355243  0.53251377  0.26647995  1
  O  O310  1  0.20247570  0.52955465  0.60945212  1
  O  O311  1  0.19863270  0.53486475  0.93773778  1
  O  O312  1  0.70150501  0.02845114  0.27169299  1
  O  O313  1  0.70270499  0.03213500  0.60477198  1
  O  O314  1  0.70607191  0.02781703  0.93943778  1
  O  O315  1  0.69592989  0.53717053  0.27386863  1
  O  O316  1  0.68290650  0.53916826  0.59730554  1
  O  O317  1  0.71216450  0.53111818  0.92921078  1
  O  O318  1  0.08556073  0.09191909  0.03890180  1
  O  O319  1  0.07999960  0.08042455  0.37030961  1
  O  O320  1  0.07722156  0.08081649  0.70829076  1
  O  O321  1  0.08873961  0.58897072  0.03428653  1
  O  O322  1  0.08435529  0.59974719  0.38618390  1
  O  O323  1  0.08672756  0.59414247  0.70917682  1
  O  O324  1  0.58374110  0.08338451  0.04392818  1
  O  O325  1  0.58569399  0.08354365  0.36463902  1
  O  O326  1  0.58884778  0.08873899  0.70716360  1
  O  O327  1  0.56528551  0.58370590  0.02905331  1
  O  O328  1  0.58615450  0.59227413  0.36295124  1
  O  O329  1  0.59227493  0.59185951  0.69439141  1
  O  O330  1  0.42011041  0.42084033  0.12553160  1
  O  O331  1  0.42167754  0.40653645  0.48217593  1
  O  O332  1  0.41686538  0.41458391  0.80048824  1
  O  O333  1  0.41057693  0.93613941  0.13300639  1
  O  O334  1  0.40186191  0.91880221  0.45379271  1
  O  O335  1  0.40872833  0.91645983  0.79464898  1
  O  O336  1  0.91541118  0.41064457  0.14009168  1
  O  O337  1  0.90446494  0.40746346  0.45171671  1
  O  O338  1  0.91646214  0.41487644  0.79776478  1
  O  O339  1  0.91377762  0.91153311  0.12908244  1
  O  O340  1  0.91683473  0.92144622  0.46236516  1
  O  O341  1  0.91250531  0.91768784  0.79220356  1
  O  O342  1  0.43140811  0.41172733  0.29225851  1
  O  O343  1  0.41295560  0.40327131  0.63081646  1
  O  O344  1  0.41630431  0.41654839  0.96887952  1
  O  O345  1  0.40497536  0.90386531  0.28265922  1
  O  O346  1  0.41289614  0.90920666  0.63145705  1
  O  O347  1  0.41041280  0.92951006  0.96398252  1
  O  O348  1  0.91351897  0.40430535  0.29439312  1
  O  O349  1  0.92339942  0.40456876  0.62173850  1
  O  O350  1  0.90705987  0.40905480  0.96352389  1
  O  O351  1  0.91692822  0.91444230  0.29407168  1
  O  O352  1  0.91732591  0.91970366  0.63197206  1
  O  O353  1  0.91495336  0.91306151  0.96152169  1
  O  O354  1  0.08112233  0.07950392  0.20309698  1
  O  O355  1  0.08131971  0.07974167  0.53861137  1
  O  O356  1  0.08784806  0.09028416  0.87356821  1
  O  O357  1  0.07517360  0.58580542  0.18635290  1
  O  O358  1  0.09339809  0.59010317  0.54890422  1
  O  O359  1  0.08603991  0.58512459  0.86835545  1
  O  O360  1  0.59000129  0.08276989  0.20510176  1
  O  O361  1  0.59409825  0.08962698  0.53867284  1
  O  O362  1  0.58581107  0.06746488  0.87101971  1
  O  O363  1  0.58833247  0.60030873  0.21117869  1
  O  O364  1  0.58831665  0.60454501  0.52474769  1
  O  O365  1  0.60045254  0.58626093  0.86966347  1
  O  O366  1  0.13365874  0.22581720  0.05533159  1
  O  O367  1  0.13486723  0.21401129  0.39104503  1
  O  O368  1  0.13244993  0.21073655  0.71994749  1
  O  O369  1  0.14419338  0.72298591  0.05702059  1
  O  O370  1  0.13770196  0.72950793  0.39585726  1
  O  O371  1  0.14176629  0.72691147  0.72857224  1
  O  O372  1  0.63640538  0.21320058  0.05334430  1
  O  O373  1  0.64151202  0.21765520  0.39045934  1
  O  O374  1  0.63621619  0.22225764  0.72226972  1
  O  O375  1  0.63508613  0.71461099  0.06613825  1
  O  O376  1  0.64165004  0.72785694  0.39278599  1
  O  O377  1  0.64372279  0.72781756  0.72363641  1
  O  O378  1  0.29066766  0.36467867  0.11247374  1
  O  O379  1  0.28519661  0.34980643  0.45200496  1
  O  O380  1  0.28319939  0.36571511  0.78285529  1
  O  O381  1  0.28083264  0.86689527  0.10620125  1
  O  O382  1  0.26940762  0.86312790  0.43608231  1
  O  O383  1  0.27515320  0.86185414  0.77341984  1
  O  O384  1  0.77884712  0.35515623  0.10539312  1
  O  O385  1  0.77155168  0.36374899  0.43769589  1
  O  O386  1  0.78215138  0.36494980  0.77982848  1
  O  O387  1  0.78072200  0.85601917  0.10917910  1
  O  O388  1  0.78564080  0.86250562  0.44451246  1
  O  O389  1  0.78098490  0.86265557  0.77607533  1
  O  O390  1  0.37051701  0.28059242  0.27313476  1
  O  O391  1  0.36065950  0.26803341  0.60421502  1
  O  O392  1  0.36055810  0.28497942  0.95085921  1
  O  O393  1  0.35856663  0.77257793  0.27233930  1
  O  O394  1  0.36010101  0.77515360  0.60824400  1
  O  O395  1  0.36154680  0.79520659  0.94800341  1
  O  O396  1  0.85619131  0.27260415  0.27526599  1
  O  O397  1  0.86569197  0.27482638  0.60791881  1
  O  O398  1  0.85656148  0.27325137  0.93939071  1
  O  O399  1  0.86227358  0.78106396  0.27552862  1
  O  O400  1  0.86323078  0.78568797  0.61199041  1
  O  O401  1  0.86571165  0.77838943  0.94011966  1
  O  O402  1  0.21497815  0.13618528  0.22316244  1
  O  O403  1  0.21198183  0.13237520  0.54721830  1
  O  O404  1  0.22188274  0.14021745  0.89345883  1
  O  O405  1  0.21252215  0.63790523  0.22436414  1
  O  O406  1  0.22548792  0.63572951  0.56265832  1
  O  O407  1  0.21944059  0.64339033  0.89274708  1
  O  O408  1  0.72382197  0.13625817  0.22728542  1
  O  O409  1  0.72842793  0.13701233  0.55732509  1
  O  O410  1  0.71452004  0.13503111  0.89099788  1
  O  O411  1  0.72401135  0.63652002  0.22324312  1
  O  O412  1  0.72859505  0.64355283  0.56002099  1
  O  O413  1  0.73220679  0.63862677  0.88519982  1
  O  O414  1  0.49540581  0.33355904  0.02972899  1
  O  O415  1  0.49954770  0.33111708  0.36342343  1
  O  O416  1  0.48923669  0.32231515  0.69684823  1
  O  O417  1  0.49413623  0.85578368  0.03012659  1
  O  O418  1  0.48533535  0.83764037  0.36502243  1
  O  O419  1  0.48861781  0.83136512  0.70163228  1
  O  O420  1  0.98551918  0.33147895  0.03144576  1
  O  O421  1  0.98799687  0.32310588  0.36326605  1
  O  O422  1  0.99656515  0.32570632  0.69420838  1
  O  O423  1  0.99553857  0.83643512  0.02909271  1
  O  O424  1  0.99291933  0.83675394  0.36295655  1
  O  O425  1  0.99482155  0.83976788  0.69763198  1
  O  O426  1  0.15922199  0.00657805  0.13374377  1
  O  O427  1  0.15421484  0.00093294  0.46580834  1
  O  O428  1  0.16428647  0.00961572  0.80529860  1
  O  O429  1  0.16461804  0.50629000  0.13569544  1
  O  O430  1  0.16490867  0.50551143  0.47567045  1
  O  O431  1  0.17022015  0.51149760  0.80462233  1
  O  O432  1  0.66978604  0.00541786  0.13830969  1
  O  O433  1  0.67094718  0.00720949  0.47142466  1
  O  O434  1  0.67182751  0.00328271  0.80447278  1
  O  O435  1  0.65310973  0.50736204  0.13892209  1
  O  O436  1  0.66775286  0.51655942  0.46741831  1
  O  O437  1  0.67594752  0.50969817  0.79491539  1
  O  O438  1  0.00294427  0.15970984  0.30467733  1
  O  O439  1  0.00066421  0.15542159  0.63578658  1
  O  O440  1  0.00353621  0.16729971  0.96930169  1
  O  O441  1  0.00931953  0.67180136  0.30692966  1
  O  O442  1  0.01147403  0.67454223  0.63921913  1
  O  O443  1  0.01236818  0.67079148  0.97043696  1
  O  O444  1  0.51024125  0.16650005  0.30091589  1
  O  O445  1  0.50871129  0.16055491  0.63217939  1
  O  O446  1  0.50178190  0.15587979  0.97238538  1
  O  O447  1  0.51059550  0.67711796  0.30234140  1
  O  O448  1  0.51709847  0.67311631  0.62698988  1
  O  O449  1  0.50195720  0.68321271  0.98034038  1
  O  O450  1  0.34191750  0.50054519  0.19102124  1
  O  O451  1  0.33328589  0.48402133  0.53460421  1
  O  O452  1  0.33885559  0.49695742  0.86719957  1
  O  O453  1  0.32129266  0.99751560  0.19699973  1
  O  O454  1  0.32160875  0.99183767  0.52597571  1
  O  O455  1  0.32698778  0.99476941  0.85852271  1
  O  O456  1  0.82579281  0.48615469  0.19513288  1
  O  O457  1  0.83408173  0.49261700  0.52591714  1
  O  O458  1  0.84328986  0.49252670  0.87134053  1
  O  O459  1  0.83376094  0.98860372  0.19514193  1
  O  O460  1  0.83674529  0.99446853  0.53105188  1
  O  O461  1  0.83490153  0.99286146  0.86356380  1
