# generated using pymatgen
data_Na31Fe20(SO4)36
_symmetry_space_group_name_H-M   'P 1'
_cell_length_a   18.09846842
_cell_length_b   18.09584831
_cell_length_c   19.73095445
_cell_angle_alpha   107.57017113
_cell_angle_beta   107.61159210
_cell_angle_gamma   90.80696074
_symmetry_Int_Tables_number   1
_chemical_formula_structural   Na31Fe20(SO4)36
_chemical_formula_sum   'Na62 Fe40 S72 O288'
_cell_volume   5832.16266417
_cell_formula_units_Z   2
loop_
 _symmetry_equiv_pos_site_id
 _symmetry_equiv_pos_as_xyz
  1  'x, y, z'
loop_
 _atom_site_type_symbol
 _atom_site_label
 _atom_site_symmetry_multiplicity
 _atom_site_fract_x
 _atom_site_fract_y
 _atom_site_fract_z
 _atom_site_occupancy
  Na  Na0  1  0.14102677  0.36845396  0.08826564  1
  Na  Na1  1  0.14426054  0.37216409  0.41689050  1
  Na  Na2  1  0.13908348  0.37107498  0.75673936  1
  Na  Na3  1  0.12709439  0.86217085  0.07754383  1
  Na  Na4  1  0.13216336  0.86327916  0.41233884  1
  Na  Na5  1  0.13860890  0.85110262  0.75616718  1
  Na  Na6  1  0.63595968  0.37870822  0.08537024  1
  Na  Na7  1  0.62924747  0.37030809  0.41264801  1
  Na  Na8  1  0.62341973  0.37619024  0.75455750  1
  Na  Na9  1  0.63181506  0.86067450  0.08341127  1
  Na  Na10  1  0.63081058  0.86186362  0.40919922  1
  Na  Na11  1  0.63804684  0.87156892  0.75600003  1
  Na  Na12  1  0.35994024  0.13513778  0.24873422  1
  Na  Na13  1  0.36642793  0.13706959  0.58937577  1
  Na  Na14  1  0.36284753  0.14162102  0.92124194  1
  Na  Na15  1  0.34313574  0.64313920  0.23936610  1
  Na  Na16  1  0.36034685  0.63056662  0.57090788  1
  Na  Na17  1  0.36911737  0.63561517  0.91917072  1
  Na  Na18  1  0.87169321  0.12269890  0.24629428  1
  Na  Na19  1  0.86605354  0.13213381  0.58303756  1
  Na  Na20  1  0.86917214  0.13076111  0.91559109  1
  Na  Na21  1  0.86966610  0.62692218  0.24413299  1
  Na  Na22  1  0.87663594  0.64757904  0.60183937  1
  Na  Na23  1  0.86346747  0.62442057  0.91741263  1
  Na  Na24  1  0.95444348  0.50979659  0.05338224  1
  Na  Na25  1  1.00238483  0.00552305  0.39839942  1
  Na  Na26  1  0.48623006  0.00642750  0.08595922  1
  Na  Na27  1  0.41509244  0.50513399  0.36232229  1
  Na  Na28  1  0.48572004  0.01626566  0.41935754  1
  Na  Na29  1  0.54376495  0.48208498  0.91900535  1
  Na  Na30  1  0.49143467  0.01577808  0.74993312  1
  Na  Na31  1  1.01437142  -0.03327664  0.77198808  1
  Na  Na32  1  1.02336545  0.68399228  0.86863857  1
  Na  Na33  1  0.48103013  0.55352165  0.18857401  1
  Na  Na34  1  0.51104379  0.98575866  0.58097838  1
  Na  Na35  1  0.05238057  0.48860850  0.26920974  1
  Na  Na36  1  0.49472100  0.49120792  0.60644799  1
  Na  Na37  1  0.02006594  0.49422827  0.57080341  1
  Na  Na38  1  0.00959953  0.98678753  0.58423035  1
  Na  Na39  1  0.50472913  0.97619432  0.25043218  1
  Na  Na40  1  0.00453550  0.95626376  0.92782556  1
  Na  Na41  1  0.50824288  0.99069810  0.91729487  1
  Na  Na42  1  0.76087824  0.25471471  0.32672786  1
  Na  Na43  1  0.73263421  0.73653789  0.33416761  1
  Na  Na44  1  0.23914188  0.73649007  0.67995001  1
  Na  Na45  1  0.24343104  0.74566742  0.33147255  1
  Na  Na46  1  0.75751224  0.25913727  0.66498740  1
  Na  Na47  1  0.74316628  0.74871297  0.67029363  1
  Na  Na48  1  0.23364462  0.74223197  -0.00418643  1
  Na  Na49  1  0.73818956  0.73062557  0.00661277  1
  Na  Na50  1  0.26742512  0.26294116  0.66449277  1
  Na  Na51  1  0.76789783  0.27066150  -0.00396745  1
  Na  Na52  1  0.74587485  0.74477554  0.50399761  1
  Na  Na53  1  0.74888268  0.74183400  0.83800206  1
  Na  Na54  1  0.72559087  0.72475231  0.17098089  1
  Na  Na55  1  0.75605573  0.26811723  0.83094056  1
  Na  Na56  1  0.25420408  0.24933132  0.83584871  1
  Na  Na57  1  0.75458178  0.25659796  0.49362763  1
  Na  Na58  1  0.25732977  0.26163006  0.16227859  1
  Na  Na59  1  0.76385079  0.26239801  0.15917011  1
  Na  Na60  1  0.23649267  0.73724957  0.50833165  1
  Na  Na61  1  0.26365510  0.26235173  0.48477092  1
  Fe  Fe62  1  0.46405981  0.30703577  0.44926353  1
  Fe  Fe63  1  0.46194924  0.79902610  0.11560765  1
  Fe  Fe64  1  0.96135154  0.80595028  0.44824798  1
  Fe  Fe65  1  0.46248329  0.80836627  0.78175156  1
  Fe  Fe66  1  0.97401113  0.30129863  0.12334504  1
  Fe  Fe67  1  0.46401675  0.31658313  0.12335145  1
  Fe  Fe68  1  0.96561587  0.31752257  0.79592309  1
  Fe  Fe69  1  0.96754142  0.30340777  0.45659467  1
  Fe  Fe70  1  0.46605972  0.81007915  0.44786603  1
  Fe  Fe71  1  0.96511131  0.80851426  0.11917874  1
  Fe  Fe72  1  0.68991928  0.53522526  0.70848428  1
  Fe  Fe73  1  0.69359062  0.03668262  0.05102327  1
  Fe  Fe74  1  0.18950117  0.53380984  0.04036579  1
  Fe  Fe75  1  0.19546324  0.03562159  0.05030339  1
  Fe  Fe76  1  0.68449988  0.53633966  0.37308051  1
  Fe  Fe77  1  0.69179884  0.03353252  0.38223796  1
  Fe  Fe78  1  0.69556632  0.03734194  0.71844561  1
  Fe  Fe79  1  0.19132462  0.03584328  0.37670396  1
  Fe  Fe80  1  0.19485692  0.03101619  0.71655915  1
  Fe  Fe81  1  0.19701312  0.53685003  0.71912520  1
  Fe  Fe82  1  0.03793626  0.19041607  0.55043074  1
  Fe  Fe83  1  0.53147245  0.19999731  0.87925583  1
  Fe  Fe84  1  0.03838529  0.18315342  0.21269070  1
  Fe  Fe85  1  0.03600885  0.68240991  0.53767635  1
  Fe  Fe86  1  0.03984976  0.19038972  0.88237441  1
  Fe  Fe87  1  0.53424121  0.68981616  0.53805884  1
  Fe  Fe88  1  0.53210956  0.19615647  0.55346053  1
  Fe  Fe89  1  0.03639258  0.68938540  0.20734148  1
  Fe  Fe90  1  0.53147874  0.69340008  0.87538749  1
  Fe  Fe91  1  0.53694191  0.19119771  0.21420245  1
  Fe  Fe92  1  0.30633826  0.96274757  0.61583951  1
  Fe  Fe93  1  0.31109777  0.46702053  0.62443190  1
  Fe  Fe94  1  0.80777097  0.96541872  0.95657070  1
  Fe  Fe95  1  0.80315937  0.96257575  0.28274494  1
  Fe  Fe96  1  0.30746043  0.96638765  0.94969226  1
  Fe  Fe97  1  0.30294278  0.96321411  0.28037369  1
  Fe  Fe98  1  0.81264845  0.96528941  0.62378547  1
  Fe  Fe99  1  0.81144372  0.46502507  0.62612258  1
  Fe  Fe100  1  0.81556234  0.46528359  0.29194431  1
  Fe  Fe101  1  0.31603010  0.46340344  0.95604485  1
  S  S102  1  0.36369116  0.13924664  0.08382477  1
  S  S103  1  0.36085750  0.13831358  0.41625094  1
  S  S104  1  0.36066162  0.13665615  0.74973105  1
  S  S105  1  0.35208509  0.64203940  0.08024364  1
  S  S106  1  0.35422572  0.65561177  0.41786882  1
  S  S107  1  0.35903578  0.64457945  0.74637037  1
  S  S108  1  0.86025004  0.13963541  0.08585072  1
  S  S109  1  0.86024154  0.13627861  0.41904348  1
  S  S110  1  0.86128094  0.14182814  0.75101610  1
  S  S111  1  0.85763600  0.64814169  0.08541392  1
  S  S112  1  0.85683281  0.64288729  0.41812954  1
  S  S113  1  0.84643459  0.64463821  0.74236925  1
  S  S114  1  0.14447012  0.34452043  0.24986331  1
  S  S115  1  0.14305603  0.35760737  0.58554831  1
  S  S116  1  0.14428370  0.35588498  0.91641387  1
  S  S117  1  0.13755293  0.86175456  0.25122727  1
  S  S118  1  0.13908271  0.85933219  0.58155486  1
  S  S119  1  0.14125432  0.86635937  0.91344910  1
  S  S120  1  0.64519646  0.35507265  0.25033098  1
  S  S121  1  0.63899424  0.35673029  0.58116792  1
  S  S122  1  0.64343729  0.35014004  0.91928255  1
  S  S123  1  0.63643615  0.86081411  0.24792339  1
  S  S124  1  0.64113862  0.86289329  0.58203287  1
  S  S125  1  0.63597438  0.86405595  0.91517275  1
  S  S126  1  0.06737876  0.16204625  0.03976321  1
  S  S127  1  0.06836444  0.17035226  0.38040082  1
  S  S128  1  0.06985422  0.16423639  0.70918550  1
  S  S129  1  0.06605464  0.67145112  0.03757434  1
  S  S130  1  0.06657562  0.67376347  0.37660880  1
  S  S131  1  0.06819498  0.66251559  0.70090842  1
  S  S132  1  0.56992432  0.16894936  0.04247381  1
  S  S133  1  0.56563776  0.16425580  0.37532301  1
  S  S134  1  0.56679404  0.16020298  0.70921205  1
  S  S135  1  0.56107461  0.67128944  0.03770834  1
  S  S136  1  0.56359927  0.67311009  0.37338211  1
  S  S137  1  0.56584975  0.67804330  0.70434381  1
  S  S138  1  0.33114922  0.44064685  0.12651134  1
  S  S139  1  0.34283598  0.43613238  0.46630369  1
  S  S140  1  0.33536863  0.43668292  0.79236786  1
  S  S141  1  0.33220690  0.93263816  0.12185352  1
  S  S142  1  0.32931742  0.93689158  0.45705519  1
  S  S143  1  0.33274131  0.93386796  0.78930909  1
  S  S144  1  0.85315355  0.43181207  0.13776674  1
  S  S145  1  0.83061793  0.42959644  0.46032098  1
  S  S146  1  0.82109889  0.43176532  0.78815382  1
  S  S147  1  0.82288758  0.92888669  0.12108672  1
  S  S148  1  0.82694785  0.93153774  0.45659207  1
  S  S149  1  0.82871144  0.93724543  0.79211507  1
  S  S150  1  0.43577493  0.32200180  0.28248111  1
  S  S151  1  0.43377770  0.32412645  0.62306903  1
  S  S152  1  0.43492496  0.32566663  0.95850985  1
  S  S153  1  0.42997476  0.83879467  0.29303922  1
  S  S154  1  0.43681404  0.83647659  0.62324172  1
  S  S155  1  0.43335946  0.83668657  0.95783191  1
  S  S156  1  0.93256842  0.31837344  0.29325513  1
  S  S157  1  0.93212739  0.32390847  0.62405952  1
  S  S158  1  0.93557113  0.32280614  0.95458764  1
  S  S159  1  0.92813110  0.83220425  0.29022731  1
  S  S160  1  0.93657024  0.83526879  0.62134821  1
  S  S161  1  0.92573127  0.83320684  0.95954997  1
  S  S162  1  0.17255575  0.06472731  0.20742157  1
  S  S163  1  0.16980415  0.06476173  0.54239082  1
  S  S164  1  0.17243662  0.06779936  0.87414893  1
  S  S165  1  0.15633810  0.56386202  0.19849881  1
  S  S166  1  0.17626653  0.56262996  0.54251931  1
  S  S167  1  0.17722179  0.56410754  0.88043601  1
  S  S168  1  0.66660588  0.06574039  0.20951626  1
  S  S169  1  0.66782533  0.06796297  0.54422030  1
  S  S170  1  0.66768092  0.07161231  0.87800023  1
  S  S171  1  0.68109723  0.56383810  0.21690702  1
  S  S172  1  0.67096329  0.56683956  0.53941257  1
  S  S173  1  0.65916774  0.56983529  0.86532114  1
  O  O174  1  0.37492340  0.21837452  0.07949860  1
  O  O175  1  0.37112594  0.21663564  0.40913133  1
  O  O176  1  0.36652652  0.21113013  0.73718385  1
  O  O177  1  0.35941491  0.71975284  0.06823382  1
  O  O178  1  0.36725248  0.74005772  0.42152761  1
  O  O179  1  0.36975081  0.72240915  0.73478541  1
  O  O180  1  0.86928696  0.22022355  0.08123807  1
  O  O181  1  0.86685338  0.21656744  0.41368425  1
  O  O182  1  0.87190274  0.22125461  0.74448909  1
  O  O183  1  0.87016286  0.72854957  0.07852138  1
  O  O184  1  0.86240886  0.72158713  0.40789946  1
  O  O185  1  0.86127958  0.71631554  0.72635655  1
  O  O186  1  0.28599763  0.12955694  0.09391474  1
  O  O187  1  0.28269746  0.12954341  0.42562185  1
  O  O188  1  0.28353026  0.12336442  0.76052502  1
  O  O189  1  0.26865827  0.62949834  0.07875101  1
  O  O190  1  0.28107375  0.64550455  0.43246442  1
  O  O191  1  0.27792294  0.63642920  0.74775700  1
  O  O192  1  0.78272765  0.13085766  0.09791368  1
  O  O193  1  0.78219748  0.12602339  0.42936378  1
  O  O194  1  0.78300967  0.13478398  0.76159990  1
  O  O195  1  0.78170211  0.64215242  0.09633010  1
  O  O196  1  0.77653709  0.63145484  0.42300004  1
  O  O197  1  0.75972760  0.63685557  0.73480210  1
  O  O198  1  0.13033824  0.26361938  0.25402877  1
  O  O199  1  0.13273524  0.27763468  0.59179443  1
  O  O200  1  0.13455478  0.27838915  0.92590889  1
  O  O201  1  0.12659068  0.78504851  0.26352347  1
  O  O202  1  0.12947167  0.77837056  0.58414241  1
  O  O203  1  0.12967961  0.78764761  0.91669032  1
  O  O204  1  0.63545949  0.27699916  0.26122742  1
  O  O205  1  0.62963404  0.28027635  0.59506000  1
  O  O206  1  0.62804943  0.26689488  0.92645359  1
  O  O207  1  0.63031504  0.78422665  0.25687961  1
  O  O208  1  0.63242380  0.78194006  0.58502920  1
  O  O209  1  0.62792113  0.78484395  0.92156686  1
  O  O210  1  0.22325746  0.35680015  0.24829606  1
  O  O211  1  0.22233050  0.36561556  0.57801662  1
  O  O212  1  0.22188556  0.36475357  0.90600777  1
  O  O213  1  0.21706441  0.87004753  0.24558989  1
  O  O214  1  0.21797942  0.86915479  0.57294416  1
  O  O215  1  0.22029953  0.87809471  0.90514188  1
  O  O216  1  0.72600013  0.36243954  0.24582417  1
  O  O217  1  0.72079417  0.36492456  0.57947416  1
  O  O218  1  0.72639160  0.35459271  0.92545237  1
  O  O219  1  0.71316996  0.87300390  0.23563909  1
  O  O220  1  0.71997833  0.87371127  0.57410231  1
  O  O221  1  0.71221904  0.87454044  0.90271230  1
  O  O222  1  0.42413763  0.12448960  0.14834626  1
  O  O223  1  0.42063621  0.12779440  0.48380397  1
  O  O224  1  0.42196307  0.13156486  0.81982168  1
  O  O225  1  0.40480249  0.64250634  0.15274922  1
  O  O226  1  0.41917773  0.63870219  0.47877080  1
  O  O227  1  0.41332383  0.64307323  0.81864652  1
  O  O228  1  0.92081339  0.12829835  0.15059459  1
  O  O229  1  0.92098940  0.12650279  0.48498310  1
  O  O230  1  0.92132162  0.12922898  0.81528427  1
  O  O231  1  0.92008993  0.64159054  0.15366199  1
  O  O232  1  0.91356348  0.64121504  0.48981203  1
  O  O233  1  0.89042663  0.64422292  0.81760253  1
  O  O234  1  0.36955440  0.08092956  0.01350020  1
  O  O235  1  0.36911196  0.07867195  0.34850939  1
  O  O236  1  0.37140373  0.07276123  0.68503574  1
  O  O237  1  0.36784431  0.58184719  0.01728089  1
  O  O238  1  0.35502912  0.60658601  0.34407042  1
  O  O239  1  0.37316407  0.58419275  0.68269486  1
  O  O240  1  0.86150772  0.08354212  0.01406084  1
  O  O241  1  0.86657626  0.07896491  0.34939182  1
  O  O242  1  0.86302556  0.08380240  0.67942409  1
  O  O243  1  0.86412005  0.59007043  0.01817831  1
  O  O244  1  0.87074578  0.58394317  0.35425714  1
  O  O245  1  0.86216112  0.57769463  0.68324888  1
  O  O246  1  0.08783473  0.34934674  0.17651879  1
  O  O247  1  0.08348308  0.36674916  0.51795944  1
  O  O248  1  0.08382229  0.36170642  0.84749118  1
  O  O249  1  0.07980338  0.86738438  0.18217954  1
  O  O250  1  0.07996219  0.87358157  0.51672875  1
  O  O251  1  0.08202742  0.88342246  0.85154873  1
  O  O252  1  0.58843973  0.35959578  0.18017231  1
  O  O253  1  0.58520993  0.35584020  0.50734235  1
  O  O254  1  0.59212002  0.35204852  0.84671634  1
  O  O255  1  0.57410851  0.87178685  0.18291283  1
  O  O256  1  0.58162630  0.87559208  0.51626561  1
  O  O257  1  0.57384189  0.87486248  0.84967718  1
  O  O258  1  0.12584161  0.40081840  0.31189143  1
  O  O259  1  0.13491842  0.41566788  0.65341597  1
  O  O260  1  0.13677502  0.41709208  0.98354822  1
  O  O261  1  0.12902464  0.92298574  0.31854656  1
  O  O262  1  0.13338314  0.91551138  0.65232449  1
  O  O263  1  0.13762244  0.92387726  0.98639466  1
  O  O264  1  0.63610782  0.41536136  0.31663855  1
  O  O265  1  0.62309885  0.41975807  0.64184289  1
  O  O266  1  0.62580357  0.40670382  0.98140221  1
  O  O267  1  0.63053535  0.92238654  0.31718766  1
  O  O268  1  0.63339863  0.91902844  0.65180336  1
  O  O269  1  0.62964754  0.92249961  0.98452799  1
  O  O270  1  0.02662806  0.18826486  0.09768498  1
  O  O271  1  0.02740705  0.19714978  0.43910860  1
  O  O272  1  0.03455815  0.19263025  0.76979338  1
  O  O273  1  0.03713524  0.70385509  0.10469099  1
  O  O274  1  0.02512359  0.70573375  0.43533731  1
  O  O275  1  0.02870494  0.68274171  0.75639435  1
  O  O276  1  0.53252304  0.19672110  0.10187367  1
  O  O277  1  0.53124048  0.19480624  0.43711074  1
  O  O278  1  0.53243936  0.18128353  0.77071180  1
  O  O279  1  0.52333651  0.70507940  0.09606694  1
  O  O280  1  0.53035458  0.70870988  0.43774317  1
  O  O281  1  0.52835826  0.70593526  0.76462108  1
  O  O282  1  0.29424143  0.47053142  0.05963095  1
  O  O283  1  0.32358516  0.47335740  0.40898520  1
  O  O284  1  0.29941531  0.47561674  0.73188591  1
  O  O285  1  0.30581361  0.97214028  0.06289183  1
  O  O286  1  0.29919823  0.97250530  0.39603643  1
  O  O287  1  0.29900038  0.96564533  0.72559416  1
  O  O288  1  0.84397600  0.46674188  0.07924674  1
  O  O289  1  0.80516229  0.46669869  0.40038709  1
  O  O290  1  0.78972591  0.46757478  0.72484610  1
  O  O291  1  0.79371899  0.96941675  0.06198782  1
  O  O292  1  0.79616677  0.96637749  0.39447567  1
  O  O293  1  0.79568969  0.97383323  0.73004239  1
  O  O294  1  0.47923739  0.29048294  0.22572054  1
  O  O295  1  0.46680061  0.29570588  0.55733999  1
  O  O296  1  0.47231409  0.29257727  0.89901271  1
  O  O297  1  0.45910872  0.81519333  0.22900275  1
  O  O298  1  0.47558299  0.80883314  0.56478020  1
  O  O299  1  0.46675954  0.80565338  0.89475972  1
  O  O300  1  0.97044044  0.28964784  0.23395690  1
  O  O301  1  0.97118302  0.29317418  0.56437566  1
  O  O302  1  0.97551249  0.28932743  0.89531915  1
  O  O303  1  0.96571443  0.80581748  0.23130506  1
  O  O304  1  0.96686654  0.80515530  0.55605559  1
  O  O305  1  0.95822657  0.81166428  0.89816470  1
  O  O306  1  0.20596040  0.03090177  0.27131302  1
  O  O307  1  0.19991208  0.02844911  0.60347456  1
  O  O308  1  0.20608209  0.03938946  0.93975667  1
  O  O309  1  0.17044182  0.52385813  0.25373012  1
  O  O310  1  0.20408796  0.52755901  0.60625068  1
  O  O311  1  0.20877747  0.52035298  0.93750400  1
  O  O312  1  0.69879422  0.03268532  0.27234999  1
  O  O313  1  0.69861579  0.03346422  0.60585146  1
  O  O314  1  0.69397242  0.03581266  0.93927068  1
  O  O315  1  0.71458427  0.52444621  0.27848349  1
  O  O316  1  0.69747236  0.52383359  0.59506289  1
  O  O317  1  0.67307035  0.53405095  0.92367091  1
  O  O318  1  0.08600502  0.08025935  0.03323964  1
  O  O319  1  0.08947637  0.09045565  0.38033089  1
  O  O320  1  0.08762431  0.08145106  0.70172366  1
  O  O321  1  0.09510012  0.59387491  0.03897223  1
  O  O322  1  0.08385699  0.59580489  0.37614884  1
  O  O323  1  0.09186929  0.58081944  0.68978016  1
  O  O324  1  0.58284433  0.08444852  0.03469674  1
  O  O325  1  0.57966459  0.08050939  0.36957203  1
  O  O326  1  0.58384761  0.07569207  0.69736310  1
  O  O327  1  0.57416219  0.59107047  0.03187098  1
  O  O328  1  0.58521939  0.59491314  0.37714395  1
  O  O329  1  0.58551443  0.59727714  0.69677765  1
  O  O330  1  0.40878782  0.41562632  0.11993730  1
  O  O331  1  0.42592247  0.41364259  0.47837098  1
  O  O332  1  0.41464523  0.42336302  0.79498680  1
  O  O333  1  0.41418330  0.91381078  0.12648725  1
  O  O334  1  0.41214739  0.92118066  0.46228839  1
  O  O335  1  0.41630257  0.92139342  0.79402511  1
  O  O336  1  0.93451136  0.40734131  0.15943759  1
  O  O337  1  0.91159253  0.40755606  0.46792019  1
  O  O338  1  0.89594713  0.40247807  0.78026462  1
  O  O339  1  0.90228238  0.91004652  0.12647461  1
  O  O340  1  0.90949659  0.91653136  0.46275969  1
  O  O341  1  0.91033086  0.92720124  0.79916709  1
  O  O342  1  0.41632685  0.39782674  0.27692415  1
  O  O343  1  0.41227630  0.40452901  0.62774302  1
  O  O344  1  0.41668104  0.40513002  0.95778557  1
  O  O345  1  0.41361544  0.92383894  0.30486531  1
  O  O346  1  0.42010164  0.91964353  0.62809091  1
  O  O347  1  0.41914567  0.92066808  0.96160693  1
  O  O348  1  0.90963600  0.39725099  0.29817129  1
  O  O349  1  0.91189442  0.40275108  0.62427462  1
  O  O350  1  0.91621454  0.39937519  0.95147141  1
  O  O351  1  0.90848475  0.91419040  0.29705924  1
  O  O352  1  0.91988761  0.91948818  0.62752787  1
  O  O353  1  0.90847684  0.91775153  0.97242974  1
  O  O354  1  0.09286632  0.08165935  0.20645170  1
  O  O355  1  0.08624723  0.07876602  0.53586222  1
  O  O356  1  0.08997741  0.08321501  0.86839746  1
  O  O357  1  0.07105041  0.57840083  0.17641058  1
  O  O358  1  0.09383528  0.58061234  0.53624247  1
  O  O359  1  0.10160842  0.58577381  0.88453138  1
  O  O360  1  0.58396249  0.08097741  0.20549388  1
  O  O361  1  0.58515108  0.08428896  0.53887791  1
  O  O362  1  0.58545005  0.09171330  0.87208413  1
  O  O363  1  0.60777383  0.59011450  0.22619758  1
  O  O364  1  0.59138235  0.58821518  0.53747184  1
  O  O365  1  0.57769494  0.59313189  0.84748069  1
  O  O366  1  0.13755416  0.21530917  0.05811668  1
  O  O367  1  0.13751145  0.22490961  0.39945898  1
  O  O368  1  0.14069446  0.21551869  0.72292697  1
  O  O369  1  0.13001079  0.72728050  0.04464665  1
  O  O370  1  0.13691693  0.72994566  0.39748749  1
  O  O371  1  0.13686947  0.71843977  0.71813475  1
  O  O372  1  0.64321390  0.21714775  0.05986376  1
  O  O373  1  0.63910888  0.21204713  0.39010196  1
  O  O374  1  0.63756216  0.21105762  0.72405861  1
  O  O375  1  0.63465553  0.72351984  0.05658607  1
  O  O376  1  0.63551106  0.72619433  0.39053456  1
  O  O377  1  0.63574111  0.73349983  0.72347868  1
  O  O378  1  0.27939504  0.37402315  0.11974556  1
  O  O379  1  0.28808099  0.36741868  0.45095860  1
  O  O380  1  0.28193384  0.36425463  0.77303013  1
  O  O381  1  0.27855454  0.86388549  0.10540409  1
  O  O382  1  0.27785481  0.86662826  0.44277066  1
  O  O383  1  0.28591592  0.86161674  0.77684216  1
  O  O384  1  0.79390705  0.36285895  0.11543910  1
  O  O385  1  0.77536101  0.35866598  0.44121156  1
  O  O386  1  0.76342465  0.36307601  0.77110309  1
  O  O387  1  0.76695965  0.86023774  0.10263976  1
  O  O388  1  0.77625939  0.85991188  0.44115738  1
  O  O389  1  0.77835450  0.86418902  0.77346994  1
  O  O390  1  0.36818633  0.26539486  0.26435748  1
  O  O391  1  0.36130376  0.27044597  0.60257193  1
  O  O392  1  0.36384555  0.27393678  0.94277694  1
  O  O393  1  0.36093007  0.78963222  0.28498105  1
  O  O394  1  0.36476071  0.78655248  0.60685933  1
  O  O395  1  0.36222250  0.78946544  0.94663173  1
  O  O396  1  0.86265394  0.26211103  0.27525143  1
  O  O397  1  0.86068477  0.26940472  0.60441224  1
  O  O398  1  0.86602243  0.26639663  0.93631674  1
  O  O399  1  0.85848872  0.77987396  0.27657803  1
  O  O400  1  0.86301344  0.78757316  0.60692488  1
  O  O401  1  0.85352525  0.78364059  0.94624549  1
  O  O402  1  0.22446827  0.13295709  0.21809358  1
  O  O403  1  0.21955586  0.13720632  0.55937877  1
  O  O404  1  0.22096065  0.13648374  0.88049772  1
  O  O405  1  0.20655950  0.63856486  0.22304457  1
  O  O406  1  0.22666029  0.63792783  0.56525732  1
  O  O407  1  0.23480027  0.63122174  0.89767006  1
  O  O408  1  0.71625917  0.13684612  0.22241080  1
  O  O409  1  0.71788587  0.13965743  0.55803682  1
  O  O410  1  0.72177961  0.13952220  0.89149692  1
  O  O411  1  0.73842261  0.63318265  0.23568121  1
  O  O412  1  0.72571686  0.63771003  0.55917384  1
  O  O413  1  0.71650985  0.63977762  0.88490787  1
  O  O414  1  0.49302605  0.33015397  0.03258351  1
  O  O415  1  0.49187626  0.32852461  0.35867526  1
  O  O416  1  0.49368549  0.32274606  0.69034163  1
  O  O417  1  0.49468916  0.84231351  0.03041296  1
  O  O418  1  0.49480456  0.84208306  0.36386685  1
  O  O419  1  0.49436707  0.84106219  0.69762195  1
  O  O420  1  0.99209530  0.32637632  0.02899047  1
  O  O421  1  0.99082163  0.32210840  0.36682774  1
  O  O422  1  0.98932542  0.32558215  0.69662381  1
  O  O423  1  0.98666647  0.83268377  0.03074728  1
  O  O424  1  0.98867193  0.83856624  0.36463633  1
  O  O425  1  0.99768113  0.83767430  0.69034945  1
  O  O426  1  0.16933414  0.00175002  0.13659525  1
  O  O427  1  0.16831183  0.00640073  0.46975514  1
  O  O428  1  0.16699902  0.00184765  0.80355277  1
  O  O429  1  0.16916291  0.51029691  0.12752117  1
  O  O430  1  0.17958338  0.50617458  0.47413471  1
  O  O431  1  0.17073918  0.50717260  0.80491881  1
  O  O432  1  0.66183021  0.00556728  0.13683516  1
  O  O433  1  0.66475836  0.00795282  0.47170905  1
  O  O434  1  0.66156251  0.01013010  0.80505287  1
  O  O435  1  0.67445937  0.50672727  0.14522319  1
  O  O436  1  0.66795479  0.51082097  0.46499836  1
  O  O437  1  0.66241716  0.51133579  0.79317166  1
  O  O438  1  0.01079948  0.16302775  0.30620913  1
  O  O439  1  0.00955281  0.16037829  0.63587293  1
  O  O440  1  0.00914403  0.15957785  0.96622183  1
  O  O441  1  0.01117342  0.67376330  0.30276816  1
  O  O442  1  0.01076262  0.65923117  0.62513381  1
  O  O443  1  -0.00076199  0.65882805  0.96964047  1
  O  O444  1  0.50717581  0.16292266  0.30306733  1
  O  O445  1  0.50587416  0.15906755  0.63768851  1
  O  O446  1  0.51234249  0.16814478  0.96853240  1
  O  O447  1  0.50340028  0.66725953  0.30329435  1
  O  O448  1  0.50703650  0.67671631  0.63175221  1
  O  O449  1  0.50610898  0.67518810  0.96388350  1
  O  O450  1  0.34710576  0.50675408  0.19568224  1
  O  O451  1  0.34800461  0.49468465  0.54218805  1
  O  O452  1  0.33282770  0.49258922  0.86508498  1
  O  O453  1  0.33812202  0.99212807  0.19594363  1
  O  O454  1  0.33334786  0.99655767  0.53034920  1
  O  O455  1  0.33549591  0.99531931  0.86066860  1
  O  O456  1  0.84658906  0.49031978  0.20812974  1
  O  O457  1  0.83229709  0.48761158  0.53279691  1
  O  O458  1  0.83133581  0.49060576  0.85927561  1
  O  O459  1  0.82348304  0.98881473  0.19346588  1
  O  O460  1  0.82796694  0.99149708  0.52832462  1
  O  O461  1  0.82381040  0.99424929  0.86330832  1
