# generated using pymatgen
data_Na31Fe20(SO4)36
_symmetry_space_group_name_H-M   'P 1'
_cell_length_a   18.07891260
_cell_length_b   18.07309181
_cell_length_c   19.70321920
_cell_angle_alpha   107.57477696
_cell_angle_beta   107.57491992
_cell_angle_gamma   90.75131231
_symmetry_Int_Tables_number   1
_chemical_formula_structural   Na31Fe20(SO4)36
_chemical_formula_sum   'Na62 Fe40 S72 O288'
_cell_volume   5812.24765852
_cell_formula_units_Z   2
loop_
 _symmetry_equiv_pos_site_id
 _symmetry_equiv_pos_as_xyz
  1  'x, y, z'
loop_
 _atom_site_type_symbol
 _atom_site_label
 _atom_site_symmetry_multiplicity
 _atom_site_fract_x
 _atom_site_fract_y
 _atom_site_fract_z
 _atom_site_occupancy
  Na  Na0  1  0.14556552  0.36597394  0.09227878  1
  Na  Na1  1  0.13626596  0.36186610  0.41821472  1
  Na  Na2  1  0.13278395  0.36625737  0.74725975  1
  Na  Na3  1  0.11206284  0.86460688  0.06880192  1
  Na  Na4  1  0.13893183  0.87613745  0.41677793  1
  Na  Na5  1  0.16661905  0.84078246  0.75541445  1
  Na  Na6  1  0.62884069  0.36011423  0.07994943  1
  Na  Na7  1  0.63502408  0.36506095  0.41994605  1
  Na  Na8  1  0.63322122  0.36622949  0.75301188  1
  Na  Na9  1  0.64413193  0.87195260  0.09539658  1
  Na  Na10  1  0.63395410  0.87433761  0.41563391  1
  Na  Na11  1  0.62854922  0.87045879  0.75298815  1
  Na  Na12  1  0.35957978  0.13121818  0.24405783  1
  Na  Na13  1  0.35654500  0.13193542  0.56946689  1
  Na  Na14  1  0.38188580  0.15364295  0.93386370  1
  Na  Na15  1  0.36332457  0.63882287  0.25527490  1
  Na  Na16  1  0.34308504  0.64139136  0.58650426  1
  Na  Na17  1  0.35104786  0.63907349  0.90726544  1
  Na  Na18  1  0.87283336  0.12231665  0.25260588  1
  Na  Na19  1  0.85840624  0.12210476  0.56742950  1
  Na  Na20  1  0.87646785  0.12806703  0.92027011  1
  Na  Na21  1  0.86921261  0.63305564  0.24788721  1
  Na  Na22  1  0.86424074  0.62897273  0.57869828  1
  Na  Na23  1  0.87208856  0.64403990  0.92449579  1
  Na  Na24  1  0.48623111  0.50741949  0.41782799  1
  Na  Na25  1  0.99222655  0.54358079  0.75576808  1
  Na  Na26  1  1.00273956  0.50551936  0.38918092  1
  Na  Na27  1  0.48937669  0.04905355  0.79452861  1
  Na  Na28  1  0.45578792  0.50768195  0.74510425  1
  Na  Na29  1  0.50263849  0.01526278  0.05975118  1
  Na  Na30  1  0.49304442  0.50783457  0.08870118  1
  Na  Na31  1  1.01982594  -0.03206127  0.78365949  1
  Na  Na32  1  0.99489401  0.50522829  0.09629765  1
  Na  Na33  1  0.01550075  0.99684235  0.56889769  1
  Na  Na34  1  0.00097264  0.50540703  0.91290449  1
  Na  Na35  1  0.01805601  0.48825607  0.57566710  1
  Na  Na36  1  0.50383183  1.00564371  0.57600986  1
  Na  Na37  1  0.55318243  0.99388652  0.27734119  1
  Na  Na38  1  0.47104218  0.51223384  0.59036872  1
  Na  Na39  1  0.50738787  0.45363025  0.24068803  1
  Na  Na40  1  0.01987850  0.97034345  0.24914981  1
  Na  Na41  1  0.50761035  0.48234765  0.91699076  1
  Na  Na42  1  0.73425156  0.23601781  0.00535613  1
  Na  Na43  1  0.74187985  0.24182116  0.67392413  1
  Na  Na44  1  0.73904840  0.22585710  0.34055028  1
  Na  Na45  1  0.25423973  0.26057883  0.65971836  1
  Na  Na46  1  0.76459505  0.76374956  -0.00502899  1
  Na  Na47  1  0.25227882  0.24886960  0.32158315  1
  Na  Na48  1  0.23810705  0.74956248  -0.00642565  1
  Na  Na49  1  0.76740657  0.77364405  0.32338283  1
  Na  Na50  1  0.75714070  0.75457333  0.66078870  1
  Na  Na51  1  0.24859541  0.24928420  0.01242433  1
  Na  Na52  1  0.74475258  0.23886922  0.17583530  1
  Na  Na53  1  0.74176591  0.23604543  0.50715205  1
  Na  Na54  1  0.75318108  0.75761548  0.82505058  1
  Na  Na55  1  0.73896228  0.24038899  0.84352476  1
  Na  Na56  1  0.25544556  0.76024570  0.49322011  1
  Na  Na57  1  0.75260706  0.75425364  0.49066781  1
  Na  Na58  1  0.25583407  0.25293187  0.83531237  1
  Na  Na59  1  0.78393904  0.77861301  0.16371092  1
  Na  Na60  1  0.25506074  0.25515046  0.49271494  1
  Na  Na61  1  0.24062525  0.74724900  0.17312332  1
  Fe  Fe62  1  0.45531225  0.81926668  0.79224429  1
  Fe  Fe63  1  0.46793107  0.30093331  0.78697811  1
  Fe  Fe64  1  0.46463347  0.81104026  0.12269630  1
  Fe  Fe65  1  0.96581468  0.30693050  0.78394653  1
  Fe  Fe66  1  0.46111475  0.31146817  0.45393694  1
  Fe  Fe67  1  0.96383165  0.30407156  0.44747566  1
  Fe  Fe68  1  0.96554436  0.30784760  0.11811719  1
  Fe  Fe69  1  0.97267585  0.79278917  0.79237599  1
  Fe  Fe70  1  0.46531684  0.80520628  0.45180730  1
  Fe  Fe71  1  0.96942221  0.80435366  0.45223414  1
  Fe  Fe72  1  0.19462027  0.03517885  0.71440509  1
  Fe  Fe73  1  0.19952542  0.53272321  0.71109440  1
  Fe  Fe74  1  0.69352929  0.03406826  0.71380757  1
  Fe  Fe75  1  0.68859762  0.53318205  0.71477826  1
  Fe  Fe76  1  0.19215198  0.53533213  0.04804056  1
  Fe  Fe77  1  0.69367731  0.53596352  0.05062017  1
  Fe  Fe78  1  0.69151107  0.53374955  0.38166527  1
  Fe  Fe79  1  0.19129711  0.53359199  0.37929461  1
  Fe  Fe80  1  0.19137333  0.03575067  0.04837086  1
  Fe  Fe81  1  0.69198351  0.03555136  0.04668548  1
  Fe  Fe82  1  0.03914718  0.69914784  0.21086389  1
  Fe  Fe83  1  0.03467311  0.19261763  0.87992740  1
  Fe  Fe84  1  0.53226897  0.69424653  0.55233806  1
  Fe  Fe85  1  0.03592323  0.18590178  0.53881318  1
  Fe  Fe86  1  0.03634959  0.69004226  0.54708495  1
  Fe  Fe87  1  0.53590516  0.18791734  0.54000431  1
  Fe  Fe88  1  0.53164359  0.69422170  0.88313343  1
  Fe  Fe89  1  0.53267839  0.69324075  0.21725928  1
  Fe  Fe90  1  0.03846073  0.18494890  0.20925967  1
  Fe  Fe91  1  0.52894392  0.20179667  0.20795437  1
  Fe  Fe92  1  0.30762977  0.96642010  0.95232101  1
  Fe  Fe93  1  0.80613443  0.46301741  0.61781666  1
  Fe  Fe94  1  0.81279839  0.96392699  0.95771312  1
  Fe  Fe95  1  0.30354375  0.96770459  0.29178155  1
  Fe  Fe96  1  0.30756102  0.46659905  0.95276571  1
  Fe  Fe97  1  0.81033858  0.96379305  0.62277287  1
  Fe  Fe98  1  0.30865943  0.96772944  0.61974401  1
  Fe  Fe99  1  0.80512617  0.46290620  0.28269560  1
  Fe  Fe100  1  0.80709510  0.46724665  0.95228407  1
  Fe  Fe101  1  0.30388238  0.46461749  0.28193409  1
  S  S102  1  0.35961318  0.13735312  0.08288479  1
  S  S103  1  0.35878349  0.14153359  0.41660021  1
  S  S104  1  0.35413065  0.14555697  0.74818399  1
  S  S105  1  0.36024031  0.64304219  0.08349581  1
  S  S106  1  0.36061293  0.63805949  0.42068190  1
  S  S107  1  0.36109325  0.64387672  0.74968939  1
  S  S108  1  0.86107086  0.14340366  0.08172671  1
  S  S109  1  0.86069463  0.14207807  0.41755518  1
  S  S110  1  0.85993618  0.14211926  0.75025933  1
  S  S111  1  0.86109307  0.63719275  0.08689952  1
  S  S112  1  0.85898350  0.63796923  0.41354584  1
  S  S113  1  0.85207494  0.63681526  0.74745718  1
  S  S114  1  0.13760699  0.36030191  0.24769963  1
  S  S115  1  0.13608157  0.35762123  0.58178211  1
  S  S116  1  0.14035442  0.35848290  0.91664630  1
  S  S117  1  0.14480926  0.85438686  0.24761951  1
  S  S118  1  0.14217465  0.85972877  0.58836242  1
  S  S119  1  0.13957321  0.86642991  0.91084815  1
  S  S120  1  0.64383278  0.35867230  0.25285698  1
  S  S121  1  0.64012016  0.36002141  0.58343741  1
  S  S122  1  0.64246359  0.36286111  0.91543946  1
  S  S123  1  0.64188818  0.85064840  0.24868100  1
  S  S124  1  0.64088700  0.85673780  0.58469120  1
  S  S125  1  0.63564701  0.85810335  0.91692198  1
  S  S126  1  0.07161150  0.17560139  0.04329195  1
  S  S127  1  0.06859373  0.17082574  0.37288305  1
  S  S128  1  0.06651258  0.17034675  0.70854191  1
  S  S129  1  0.06434722  0.65834490  0.03994287  1
  S  S130  1  0.07056298  0.67379839  0.37503192  1
  S  S131  1  0.06382917  0.65861439  0.70148810  1
  S  S132  1  0.56983317  0.17392496  0.04239253  1
  S  S133  1  0.56629674  0.17922180  0.37808602  1
  S  S134  1  0.56520996  0.16856870  0.70623272  1
  S  S135  1  0.56801312  0.66670109  0.04398670  1
  S  S136  1  0.56362963  0.66313568  0.37617161  1
  S  S137  1  0.56478632  0.66757912  0.71063067  1
  S  S138  1  0.33182721  0.44251234  0.12476890  1
  S  S139  1  0.32779681  0.43682793  0.45656071  1
  S  S140  1  0.33076893  0.43388261  0.79094190  1
  S  S141  1  0.32412886  0.92700971  0.12387390  1
  S  S142  1  0.33702464  0.93164306  0.46270345  1
  S  S143  1  0.34022715  0.94530545  0.79698215  1
  S  S144  1  0.82822138  0.42943125  0.12165146  1
  S  S145  1  0.82867691  0.43099275  0.45478329  1
  S  S146  1  0.82986079  0.43299620  0.78998905  1
  S  S147  1  0.82687139  0.94256009  0.12403216  1
  S  S148  1  0.83443337  0.92467342  0.46313926  1
  S  S149  1  0.82943632  0.92887705  0.78905155  1
  S  S150  1  0.43393323  0.33461015  0.29515382  1
  S  S151  1  0.43825023  0.33006769  0.62380662  1
  S  S152  1  0.43632155  0.34355686  0.96058517  1
  S  S153  1  0.43125999  0.82892406  0.29109216  1
  S  S154  1  0.43268025  0.83036142  0.62508892  1
  S  S155  1  0.42993875  0.82959895  0.96041136  1
  S  S156  1  0.93219444  0.32970418  0.28857395  1
  S  S157  1  0.93130817  0.33606345  0.62607009  1
  S  S158  1  0.93372105  0.33485758  0.95645021  1
  S  S159  1  0.94295685  0.82801868  0.29190643  1
  S  S160  1  0.93066334  0.82024471  0.62476761  1
  S  S161  1  0.92747373  0.82497578  0.95419822  1
  S  S162  1  0.16856343  0.06183671  0.20731064  1
  S  S163  1  0.17364976  0.06671004  0.54528906  1
  S  S164  1  0.17596672  0.07551444  0.87748215  1
  S  S165  1  0.17081699  0.56926031  0.20873162  1
  S  S166  1  0.15883713  0.56385042  0.53411618  1
  S  S167  1  0.16855820  0.55866757  0.87431570  1
  S  S168  1  0.65418713  0.07003331  0.20305776  1
  S  S169  1  0.67230291  0.06381314  0.54483774  1
  S  S170  1  0.68065833  0.06812827  0.87892530  1
  S  S171  1  0.66932293  0.56633941  0.21236743  1
  S  S172  1  0.66547803  0.56556605  0.54292224  1
  S  S173  1  0.66624541  0.56985634  0.87652332  1
  O  O174  1  0.36343842  0.20613549  0.05959065  1
  O  O175  1  0.36833736  0.22238438  0.40954368  1
  O  O176  1  0.36458148  0.22381158  0.73787710  1
  O  O177  1  0.37109671  0.72240267  0.07731696  1
  O  O178  1  0.37119172  0.71722501  0.41524922  1
  O  O179  1  0.37167616  0.72427360  0.74623144  1
  O  O180  1  0.87107911  0.22131932  0.07011372  1
  O  O181  1  0.87113012  0.22422245  0.41126964  1
  O  O182  1  0.86950672  0.22171478  0.74297517  1
  O  O183  1  0.86271665  0.71420665  0.07781254  1
  O  O184  1  0.86689566  0.71646977  0.40498752  1
  O  O185  1  0.86335221  0.71651443  0.74164981  1
  O  O186  1  0.28215837  0.12372714  0.09176303  1
  O  O187  1  0.28671162  0.13417480  0.43403453  1
  O  O188  1  0.27149339  0.13741711  0.74843572  1
  O  O189  1  0.28107667  0.63448129  0.09071685  1
  O  O190  1  0.28234483  0.62840041  0.42950559  1
  O  O191  1  0.28227556  0.63021407  0.75541042  1
  O  O192  1  0.78013837  0.13718600  0.08663556  1
  O  O193  1  0.78664679  0.13796447  0.43361357  1
  O  O194  1  0.78008797  0.13443160  0.75732879  1
  O  O195  1  0.78720456  0.62199334  0.10323406  1
  O  O196  1  0.78026964  0.62794945  0.42280538  1
  O  O197  1  0.77056393  0.62935371  0.75145402  1
  O  O198  1  0.12961337  0.28127330  0.25551360  1
  O  O199  1  0.12049056  0.28105200  0.59386924  1
  O  O200  1  0.13078644  0.27863044  0.92297187  1
  O  O201  1  0.13658613  0.76897711  0.24779338  1
  O  O202  1  0.12907411  0.77932140  0.59036118  1
  O  O203  1  0.13280973  0.79118710  0.92238752  1
  O  O204  1  0.63093847  0.27928393  0.25977208  1
  O  O205  1  0.63352284  0.27882488  0.58745057  1
  O  O206  1  0.64033335  0.28544244  0.92353573  1
  O  O207  1  0.62840387  0.77088249  0.25699426  1
  O  O208  1  0.63040411  0.77784883  0.59359802  1
  O  O209  1  0.62722636  0.78040211  0.92891340  1
  O  O210  1  0.21559052  0.37152813  0.23853895  1
  O  O211  1  0.21159235  0.35946667  0.56963923  1
  O  O212  1  0.21912361  0.36725729  0.90854234  1
  O  O213  1  0.22925087  0.86582776  0.25297179  1
  O  O214  1  0.22089714  0.86973897  0.58022318  1
  O  O215  1  0.21709103  0.88038109  0.89992364  1
  O  O216  1  0.72538895  0.36458554  0.24957368  1
  O  O217  1  0.71712526  0.36994432  0.57071416  1
  O  O218  1  0.71884996  0.37815675  0.90240998  1
  O  O219  1  0.71733307  0.85386445  0.23590642  1
  O  O220  1  0.72211085  0.86451276  0.58155025  1
  O  O221  1  0.71383339  0.86505661  0.90680684  1
  O  O222  1  0.41813266  0.14524250  0.15794570  1
  O  O223  1  0.42507890  0.13091453  0.47922988  1
  O  O224  1  0.40742609  0.14172589  0.81912673  1
  O  O225  1  0.41902125  0.63246292  0.15126447  1
  O  O226  1  0.42039918  0.62705333  0.48781540  1
  O  O227  1  0.41896684  0.63387226  0.81965594  1
  O  O228  1  0.91728385  0.14039906  0.15292036  1
  O  O229  1  0.92449800  0.13632483  0.48595821  1
  O  O230  1  0.91782095  0.13476705  0.81922112  1
  O  O231  1  0.92667776  0.62913437  0.15212214  1
  O  O232  1  0.91855647  0.63045650  0.48110295  1
  O  O233  1  0.90810974  0.62348091  0.81235165  1
  O  O234  1  0.37771387  0.06864425  0.02661769  1
  O  O235  1  0.35965505  0.08479735  0.34431926  1
  O  O236  1  0.36737981  0.08519390  0.68306064  1
  O  O237  1  0.36886483  0.58479071  0.01534639  1
  O  O238  1  0.36873803  0.57918094  0.35214199  1
  O  O239  1  0.37408731  0.58710739  0.68386582  1
  O  O240  1  0.87111540  0.08277347  0.01656701  1
  O  O241  1  0.86427921  0.08533667  0.34951885  1
  O  O242  1  0.86787900  0.08343254  0.68264207  1
  O  O243  1  0.86691743  0.57679409  0.01760308  1
  O  O244  1  0.86702324  0.57804055  0.34556098  1
  O  O245  1  0.85879549  0.57979417  0.67651218  1
  O  O246  1  0.07784377  0.36860392  0.18006962  1
  O  O247  1  0.07403601  0.36883946  0.51596831  1
  O  O248  1  0.08107991  0.36713600  0.84866075  1
  O  O249  1  0.09387182  0.86133582  0.17713385  1
  O  O250  1  0.08206015  0.87378131  0.52357444  1
  O  O251  1  0.07958694  0.86928886  0.83941575  1
  O  O252  1  0.58858690  0.37051035  0.18681609  1
  O  O253  1  0.57848564  0.37359200  0.52074035  1
  O  O254  1  0.58023748  0.37028517  0.84849643  1
  O  O255  1  0.57980243  0.85964068  0.18100912  1
  O  O256  1  0.58508151  0.86199025  0.51401118  1
  O  O257  1  0.57599703  0.86147063  0.84701141  1
  O  O258  1  0.12986716  0.41871260  0.31642254  1
  O  O259  1  0.13239570  0.41990974  0.65049142  1
  O  O260  1  0.13231353  0.41611496  0.98514450  1
  O  O261  1  0.12743411  0.90591842  0.31238666  1
  O  O262  1  0.13724667  0.91625109  0.65974724  1
  O  O263  1  0.12916482  0.92924063  0.97540538  1
  O  O264  1  0.63574167  0.41702220  0.32243847  1
  O  O265  1  0.63815843  0.41501816  0.65611770  1
  O  O266  1  0.63376488  0.42308944  0.98325855  1
  O  O267  1  0.63671766  0.90958273  0.31618955  1
  O  O268  1  0.62974922  0.91672639  0.65043055  1
  O  O269  1  0.62768875  0.91932038  0.98300197  1
  O  O270  1  0.03314958  0.20451115  0.10371760  1
  O  O271  1  0.03394732  0.20678478  0.43606087  1
  O  O272  1  0.02856436  0.19871571  0.76924458  1
  O  O273  1  0.03330826  0.68433042  0.10449018  1
  O  O274  1  0.02833777  0.69969617  0.43274819  1
  O  O275  1  0.02577768  0.68511910  0.76032154  1
  O  O276  1  0.53469976  0.19631425  0.10457041  1
  O  O277  1  0.52851140  0.21502210  0.43801516  1
  O  O278  1  0.52800778  0.19644970  0.76499580  1
  O  O279  1  0.53147657  0.69484032  0.10447436  1
  O  O280  1  0.52906583  0.69430925  0.43853439  1
  O  O281  1  0.53219289  0.69714636  0.77315633  1
  O  O282  1  0.29358628  0.47667213  0.06253751  1
  O  O283  1  0.29583152  0.46595300  0.38979829  1
  O  O284  1  0.30194139  0.46836017  0.72999355  1
  O  O285  1  0.29287971  0.96125273  0.06127772  1
  O  O286  1  0.31566288  0.96576718  0.40215300  1
  O  O287  1  0.30450518  0.97824764  0.73369046  1
  O  O288  1  0.79505428  0.46285080  0.05881992  1
  O  O289  1  0.79966174  0.47023939  0.39577214  1
  O  O290  1  0.79949593  0.46830259  0.72822340  1
  O  O291  1  0.79021147  0.97514539  0.05758595  1
  O  O292  1  0.81411329  0.95551048  0.40194616  1
  O  O293  1  0.80080697  0.96929135  0.72986619  1
  O  O294  1  0.47196794  0.30634121  0.23635358  1
  O  O295  1  0.47355178  0.29388346  0.56243226  1
  O  O296  1  0.46471356  0.31907260  0.89489058  1
  O  O297  1  0.47013327  0.79898049  0.23091168  1
  O  O298  1  0.47346223  0.80059891  0.56654543  1
  O  O299  1  0.46502216  0.79875075  0.89794903  1
  O  O300  1  0.96845364  0.30224375  0.22795760  1
  O  O301  1  0.96337060  0.30649778  0.56325981  1
  O  O302  1  0.96945023  0.30351310  0.89509895  1
  O  O303  1  0.98163659  0.78920140  0.23393985  1
  O  O304  1  0.96827800  0.79252853  0.56440257  1
  O  O305  1  0.96058465  0.80026477  0.89117873  1
  O  O306  1  0.19807604  0.02304574  0.26450534  1
  O  O307  1  0.20342697  0.03001496  0.60833280  1
  O  O308  1  0.20876757  0.04364210  0.94059494  1
  O  O309  1  0.19968174  0.53597557  0.27228479  1
  O  O310  1  0.18269191  0.53289745  0.59731822  1
  O  O311  1  0.20539613  0.52421850  0.93706779  1
  O  O312  1  0.67069086  0.03745510  0.26386692  1
  O  O313  1  0.70333059  0.02899463  0.60903063  1
  O  O314  1  0.71099843  0.02690287  0.93625117  1
  O  O315  1  0.69771200  0.52577627  0.27102995  1
  O  O316  1  0.69506579  0.52890054  0.60330110  1
  O  O317  1  0.69993573  0.53897925  0.94092257  1
  O  O318  1  0.09141135  0.09634057  0.03915632  1
  O  O319  1  0.07952808  0.09037123  0.36675215  1
  O  O320  1  0.08578465  0.08896104  0.70328046  1
  O  O321  1  0.08640367  0.57544741  0.03580534  1
  O  O322  1  0.08805001  0.59222955  0.37051548  1
  O  O323  1  0.08430580  0.57674875  0.69890596  1
  O  O324  1  0.59260924  0.09217221  0.03387251  1
  O  O325  1  0.57883043  0.10008692  0.37771702  1
  O  O326  1  0.58574563  0.08708709  0.70190345  1
  O  O327  1  0.58232375  0.58240541  0.03646017  1
  O  O328  1  0.57777116  0.57956744  0.36991173  1
  O  O329  1  0.58171951  0.58454633  0.70322216  1
  O  O330  1  0.41403419  0.43770034  0.12935064  1
  O  O331  1  0.41116108  0.42022597  0.46148132  1
  O  O332  1  0.41252004  0.41418437  0.79437959  1
  O  O333  1  0.40646819  0.91139945  0.12898179  1
  O  O334  1  0.41902034  0.90860169  0.47403679  1
  O  O335  1  0.42367488  0.93491579  0.80042585  1
  O  O336  1  0.90973291  0.41392624  0.12425555  1
  O  O337  1  0.91085374  0.41488129  0.46084855  1
  O  O338  1  0.91194981  0.41568198  0.79581867  1
  O  O339  1  0.90782086  0.93229242  0.12927726  1
  O  O340  1  0.91720562  0.90235393  0.48011858  1
  O  O341  1  0.90655271  0.90341064  0.78777670  1
  O  O342  1  0.41370413  0.41609389  0.29517880  1
  O  O343  1  0.43079173  0.41243440  0.62884465  1
  O  O344  1  0.41541342  0.42771287  0.96826328  1
  O  O345  1  0.41162038  0.90849205  0.29385033  1
  O  O346  1  0.41722881  0.91240128  0.63051785  1
  O  O347  1  0.41199619  0.91072017  0.96359038  1
  O  O348  1  0.90880578  0.40986160  0.29154983  1
  O  O349  1  0.91797863  0.42057057  0.63521795  1
  O  O350  1  0.91868826  0.41799571  0.96171266  1
  O  O351  1  0.92647224  0.90416682  0.28565860  1
  O  O352  1  0.91602463  0.90333591  0.63609472  1
  O  O353  1  0.90643609  0.90637994  0.96157458  1
  O  O354  1  0.08814835  0.08279408  0.20640861  1
  O  O355  1  0.09255688  0.08554191  0.54477725  1
  O  O356  1  0.09332559  0.09073852  0.87173585  1
  O  O357  1  0.09137518  0.59455632  0.20648374  1
  O  O358  1  0.07291954  0.57723202  0.51896680  1
  O  O359  1  0.08558732  0.56179304  0.86781987  1
  O  O360  1  0.57176512  0.09503277  0.18917060  1
  O  O361  1  0.59257897  0.08582071  0.54542088  1
  O  O362  1  0.60525017  0.09319917  0.88054309  1
  O  O363  1  0.58756588  0.58392887  0.20808302  1
  O  O364  1  0.58352009  0.58349288  0.53792358  1
  O  O365  1  0.58262049  0.58196500  0.86971033  1
  O  O366  1  0.13985962  0.23062507  0.05844238  1
  O  O367  1  0.14122230  0.22243968  0.38935997  1
  O  O368  1  0.13677883  0.22480173  0.72722758  1
  O  O369  1  0.13424067  0.71032904  0.05289785  1
  O  O370  1  0.14079892  0.72742508  0.39584255  1
  O  O371  1  0.13223341  0.70990174  0.71291390  1
  O  O372  1  0.64249538  0.22836617  0.06535235  1
  O  O373  1  0.64032834  0.23021542  0.39783525  1
  O  O374  1  0.63720063  0.22164269  0.72347444  1
  O  O375  1  0.64114795  0.71503784  0.06000281  1
  O  O376  1  0.63622083  0.71176321  0.39133498  1
  O  O377  1  0.63488426  0.71874905  0.72205715  1
  O  O378  1  0.28721199  0.36749605  0.10937571  1
  O  O379  1  0.27920957  0.36377730  0.44217860  1
  O  O380  1  0.27910913  0.36302221  0.77802460  1
  O  O381  1  0.27371775  0.85470038  0.10826796  1
  O  O382  1  0.28190033  0.86502388  0.45114620  1
  O  O383  1  0.29784798  0.87014292  0.78340146  1
  O  O384  1  0.77859713  0.35801338  0.10937232  1
  O  O385  1  0.77677240  0.35983839  0.43759080  1
  O  O386  1  0.77840940  0.36189881  0.77504200  1
  O  O387  1  0.77731948  0.86603626  0.10122881  1
  O  O388  1  0.77976105  0.85470167  0.44972932  1
  O  O389  1  0.77116336  0.86075948  0.77053412  1
  O  O390  1  0.36490668  0.28319975  0.28336180  1
  O  O391  1  0.36275191  0.28364238  0.60622040  1
  O  O392  1  0.36495276  0.29273008  0.94717570  1
  O  O393  1  0.36326326  0.77320180  0.27467595  1
  O  O394  1  0.36043420  0.77836945  0.60372420  1
  O  O395  1  0.36032699  0.77827820  0.94786744  1
  O  O396  1  0.86461203  0.27487957  0.27590521  1
  O  O397  1  0.85841619  0.28846073  0.61372437  1
  O  O398  1  0.86135946  0.28540763  0.94086881  1
  O  O399  1  0.87136039  0.77466545  0.27634580  1
  O  O400  1  0.85672563  0.76857019  0.60275483  1
  O  O401  1  0.85332693  0.77175026  0.93235017  1
  O  O402  1  0.22062900  0.13317585  0.22256301  1
  O  O403  1  0.22407481  0.14064096  0.56545256  1
  O  O404  1  0.22536443  0.14704652  0.88936454  1
  O  O405  1  0.22610465  0.63383422  0.21756801  1
  O  O406  1  0.20646557  0.63563300  0.54583700  1
  O  O407  1  0.21257943  0.63495180  0.89277330  1
  O  O408  1  0.71103339  0.13819836  0.21826765  1
  O  O409  1  0.72525311  0.13645652  0.56423628  1
  O  O410  1  0.73891536  0.13560541  0.89494733  1
  O  O411  1  0.72302971  0.63620923  0.23103357  1
  O  O412  1  0.71734859  0.63635700  0.55747632  1
  O  O413  1  0.71360234  0.64229309  0.88811169  1
  O  O414  1  0.49823718  0.34943283  0.03006916  1
  O  O415  1  0.49385088  0.34631696  0.37089269  1
  O  O416  1  0.49370315  0.32672656  0.69661256  1
  O  O417  1  0.49245918  0.83425196  0.03216202  1
  O  O418  1  0.49170691  0.83125505  0.36385700  1
  O  O419  1  0.48840386  0.82961699  0.69827590  1
  O  O420  1  0.99277714  0.33749905  0.02916920  1
  O  O421  1  0.99319900  0.33963797  0.36279233  1
  O  O422  1  0.99182583  0.33511916  0.69735332  1
  O  O423  1  0.98330944  0.82090837  0.02282415  1
  O  O424  1  0.99803970  0.83324866  0.36822719  1
  O  O425  1  0.98682221  0.81543932  0.69583488  1
  O  O426  1  0.16115882  0.00553853  0.13113650  1
  O  O427  1  0.17312927  0.00941355  0.47587962  1
  O  O428  1  0.17164875  0.01315275  0.80557747  1
  O  O429  1  0.16033843  0.50394115  0.13726425  1
  O  O430  1  0.16013853  0.50156086  0.46332258  1
  O  O431  1  0.17509079  0.50397142  0.80267403  1
  O  O432  1  0.65025076  0.00954641  0.12946084  1
  O  O433  1  0.66927392  0.00569167  0.47497556  1
  O  O434  1  0.67367834  0.00968644  0.80318048  1
  O  O435  1  0.66522767  0.50771601  0.13852588  1
  O  O436  1  0.66260343  0.50627860  0.46994011  1
  O  O437  1  0.66689856  0.50811559  0.80603255  1
  O  O438  1  0.00971041  0.17714595  0.30248348  1
  O  O439  1  0.00775033  0.16777025  0.63595253  1
  O  O440  1  0.01055683  0.17316010  0.97072143  1
  O  O441  1  0.01448434  0.67173407  0.30067357  1
  O  O442  1  0.00320676  0.64905868  0.62599955  1
  O  O443  1  0.00234144  0.64901311  0.96945066  1
  O  O444  1  0.51199332  0.18157597  0.30443106  1
  O  O445  1  0.50822821  0.16316787  0.63111756  1
  O  O446  1  0.51312189  0.17541112  0.97302278  1
  O  O447  1  0.50411513  0.66294016  0.30464284  1
  O  O448  1  0.50318312  0.66311083  0.63788751  1
  O  O449  1  0.50855007  0.66576378  0.97172728  1
  O  O450  1  0.32812989  0.49913647  0.19725859  1
  O  O451  1  0.33121161  0.49882161  0.52549164  1
  O  O452  1  0.33699422  0.49407091  0.86460876  1
  O  O453  1  0.32550586  0.98658404  0.19567157  1
  O  O454  1  0.34279762  0.99486140  0.53595258  1
  O  O455  1  0.33972341  1.00433328  0.86854435  1
  O  O456  1  0.83008216  0.49025238  0.19330387  1
  O  O457  1  0.82970103  0.48957382  0.52781354  1
  O  O458  1  0.83261482  0.49367521  0.86205914  1
  O  O459  1  0.81624367  0.99817059  0.19028958  1
  O  O460  1  0.83613933  0.98563163  0.53678444  1
  O  O461  1  0.83505979  0.98705242  0.86240085  1
