# generated using pymatgen
data_Na31Fe20(SO4)36
_symmetry_space_group_name_H-M   'P 1'
_cell_length_a   18.06558895
_cell_length_b   18.07054046
_cell_length_c   19.69507771
_cell_angle_alpha   107.59396752
_cell_angle_beta   107.57590171
_cell_angle_gamma   90.70811822
_symmetry_Int_Tables_number   1
_chemical_formula_structural   Na31Fe20(SO4)36
_chemical_formula_sum   'Na62 Fe40 S72 O288'
_cell_volume   5804.57157674
_cell_formula_units_Z   2
loop_
 _symmetry_equiv_pos_site_id
 _symmetry_equiv_pos_as_xyz
  1  'x, y, z'
loop_
 _atom_site_type_symbol
 _atom_site_label
 _atom_site_symmetry_multiplicity
 _atom_site_fract_x
 _atom_site_fract_y
 _atom_site_fract_z
 _atom_site_occupancy
  Na  Na0  1  0.14156645  0.37453587  0.09316998  1
  Na  Na1  1  0.14453107  0.35915341  0.42380828  1
  Na  Na2  1  0.12379296  0.36751799  0.73386338  1
  Na  Na3  1  0.12367563  0.86449344  0.07323425  1
  Na  Na4  1  0.12922365  0.86309319  0.41775634  1
  Na  Na5  1  0.13864140  0.84989972  0.74296968  1
  Na  Na6  1  0.63280546  0.35553291  0.07831038  1
  Na  Na7  1  0.62955612  0.36823109  0.41921945  1
  Na  Na8  1  0.66897159  0.37461913  0.78050669  1
  Na  Na9  1  0.63034632  0.86561342  0.08178377  1
  Na  Na10  1  0.64217359  0.85882507  0.40978305  1
  Na  Na11  1  0.63943791  0.87263766  0.75531565  1
  Na  Na12  1  0.36617947  0.13290724  0.24871562  1
  Na  Na13  1  0.35404052  0.13497135  0.57591836  1
  Na  Na14  1  0.37188613  0.13486074  0.92303507  1
  Na  Na15  1  0.36660490  0.62953692  0.25135279  1
  Na  Na16  1  0.37113931  0.63966609  0.59485603  1
  Na  Na17  1  0.34959843  0.62567401  0.89982711  1
  Na  Na18  1  0.86257308  0.13224965  0.24481388  1
  Na  Na19  1  0.87455927  0.13787738  0.58366765  1
  Na  Na20  1  0.86554446  0.13967756  0.91333432  1
  Na  Na21  1  0.87166628  0.65907955  0.27657861  1
  Na  Na22  1  0.86607022  0.63291246  0.58073693  1
  Na  Na23  1  0.86091109  0.63270879  0.91018028  1
  Na  Na24  1  0.99772031  0.00658430  0.75189606  1
  Na  Na25  1  0.50810043  0.48532406  0.08084808  1
  Na  Na26  1  0.49590431  0.01091491  0.40142494  1
  Na  Na27  1  0.48804107  0.00342129  0.76831543  1
  Na  Na28  1  1.01047315  0.48724258  0.47728493  1
  Na  Na29  1  0.45980523  0.50741190  0.41936164  1
  Na  Na30  1  0.99789900  0.53545175  0.76198875  1
  Na  Na31  1  0.98700419  0.03164840  0.42481665  1
  Na  Na32  1  0.49171239  0.01553910  0.07761367  1
  Na  Na33  1  0.51870601  0.49901542  0.90139728  1
  Na  Na34  1  0.50850616  0.99415304  0.58352329  1
  Na  Na35  1  0.01543484  0.49760413  0.23314208  1
  Na  Na36  1  0.49639018  0.45322985  0.23978665  1
  Na  Na37  1  0.00206026  0.98388865  0.93559488  1
  Na  Na38  1  0.01346482  0.96860965  0.57115235  1
  Na  Na39  1  0.00728423  0.99210071  0.23925260  1
  Na  Na40  1  -0.02111773  0.51261899  0.94069324  1
  Na  Na41  1  0.54276614  0.48470686  0.69644316  1
  Na  Na42  1  0.24967593  0.25128244  0.33458746  1
  Na  Na43  1  0.26778789  0.26313918  -0.00316534  1
  Na  Na44  1  0.74983283  0.24840289  0.33057442  1
  Na  Na45  1  0.74321164  0.73949863  0.66908747  1
  Na  Na46  1  0.73989781  0.73882882  0.00542016  1
  Na  Na47  1  0.76412658  0.27452353  -0.02079000  1
  Na  Na48  1  0.24258097  0.74270785  0.34185550  1
  Na  Na49  1  0.22769338  0.73462070  -0.00232972  1
  Na  Na50  1  0.75272716  0.25040248  0.67636253  1
  Na  Na51  1  0.24327876  0.25523085  0.64500670  1
  Na  Na52  1  0.23222281  0.73218335  0.82776315  1
  Na  Na53  1  0.27360744  0.27208852  0.16260290  1
  Na  Na54  1  0.73650426  0.73570387  0.83634339  1
  Na  Na55  1  0.74593612  0.74217920  0.18001129  1
  Na  Na56  1  0.74631555  0.25063240  0.50195369  1
  Na  Na57  1  0.25363465  0.25431648  0.82349706  1
  Na  Na58  1  0.77339175  0.75972990  0.47914629  1
  Na  Na59  1  0.24528280  0.74205909  0.51339055  1
  Na  Na60  1  0.75414882  0.25524959  0.15945342  1
  Na  Na61  1  0.24124599  0.74316281  0.17058991  1
  Fe  Fe62  1  0.96732134  0.31344298  0.79170655  1
  Fe  Fe63  1  0.46550830  0.30429601  0.78298704  1
  Fe  Fe64  1  0.46321601  0.31182246  0.45950453  1
  Fe  Fe65  1  0.46048177  0.80834499  0.78296258  1
  Fe  Fe66  1  0.46330231  0.80886905  0.11856428  1
  Fe  Fe67  1  0.46918403  0.80746598  0.45085628  1
  Fe  Fe68  1  0.96669014  0.80155944  0.78619747  1
  Fe  Fe69  1  0.97331576  0.29842566  0.46303097  1
  Fe  Fe70  1  0.96208106  0.80583183  0.11504634  1
  Fe  Fe71  1  0.96609579  0.30553285  0.11634890  1
  Fe  Fe72  1  0.69686063  0.03693471  0.71441855  1
  Fe  Fe73  1  0.70135901  0.53048679  0.04653930  1
  Fe  Fe74  1  0.19194754  0.03576551  0.38416078  1
  Fe  Fe75  1  0.68977103  0.03711417  0.04515060  1
  Fe  Fe76  1  0.19335724  0.03242878  0.71389785  1
  Fe  Fe77  1  0.68748837  0.03594067  0.37581764  1
  Fe  Fe78  1  0.19441776  0.03545742  0.05095912  1
  Fe  Fe79  1  0.69220240  0.53418068  0.38079156  1
  Fe  Fe80  1  0.18978478  0.53550943  0.04459754  1
  Fe  Fe81  1  0.20185456  0.53022791  0.37701307  1
  Fe  Fe82  1  0.53478394  0.19534375  0.88328500  1
  Fe  Fe83  1  0.53265032  0.69501390  0.87740926  1
  Fe  Fe84  1  0.53440477  0.19479700  0.54995185  1
  Fe  Fe85  1  0.03436516  0.69618271  0.54491863  1
  Fe  Fe86  1  0.53117712  0.19920305  0.21241326  1
  Fe  Fe87  1  0.53610502  0.69056424  0.21269639  1
  Fe  Fe88  1  0.03075135  0.69493768  0.21346308  1
  Fe  Fe89  1  0.03962902  0.19300670  0.88222792  1
  Fe  Fe90  1  0.53883233  0.69219813  0.54735313  1
  Fe  Fe91  1  0.03398884  0.18920595  0.21281067  1
  Fe  Fe92  1  0.30530059  0.96476883  0.28285672  1
  Fe  Fe93  1  0.80733932  0.96262947  0.28426756  1
  Fe  Fe94  1  0.30446787  0.96360091  0.94910176  1
  Fe  Fe95  1  0.79972386  0.47104508  0.62739090  1
  Fe  Fe96  1  0.30881681  0.96180046  0.61675206  1
  Fe  Fe97  1  0.81054228  0.96607531  0.61480823  1
  Fe  Fe98  1  0.80441862  0.96583731  0.95068260  1
  Fe  Fe99  1  0.29837423  0.47033034  0.62441881  1
  Fe  Fe100  1  0.81149782  0.46129220  0.29156017  1
  Fe  Fe101  1  0.30754775  0.46746487  0.95156320  1
  S  S102  1  0.35929095  0.13731002  0.08518780  1
  S  S103  1  0.36115825  0.13777486  0.41712493  1
  S  S104  1  0.36260882  0.13552015  0.74740270  1
  S  S105  1  0.35964685  0.64412767  0.08174152  1
  S  S106  1  0.36306331  0.64620070  0.41831498  1
  S  S107  1  0.36090657  0.63939846  0.75094496  1
  S  S108  1  0.85933579  0.13979966  0.08022220  1
  S  S109  1  0.85367042  0.13999598  0.41149480  1
  S  S110  1  0.86433061  0.13834053  0.75068038  1
  S  S111  1  0.85900796  0.64394205  0.08586913  1
  S  S112  1  0.86168683  0.63328481  0.41850375  1
  S  S113  1  0.85491819  0.64374595  0.74570229  1
  S  S114  1  0.14011055  0.35600734  0.24903946  1
  S  S115  1  0.13789578  0.36946475  0.58304009  1
  S  S116  1  0.14467128  0.35634606  0.91683065  1
  S  S117  1  0.13958546  0.86127178  0.24881639  1
  S  S118  1  0.14463761  0.85845786  0.58419659  1
  S  S119  1  0.13581999  0.86478474  0.91576426  1
  S  S120  1  0.64150690  0.36025671  0.24836598  1
  S  S121  1  0.64044194  0.35607729  0.58876747  1
  S  S122  1  0.63630628  0.36223625  0.91903729  1
  S  S123  1  0.63728127  0.85991432  0.24728936  1
  S  S124  1  0.64401531  0.86117438  0.57984686  1
  S  S125  1  0.63701111  0.86284329  0.91546407  1
  S  S126  1  0.07141712  0.17087581  0.04462059  1
  S  S127  1  0.06410530  0.16341772  0.37036455  1
  S  S128  1  0.06692064  0.16206520  0.70837458  1
  S  S129  1  0.06258673  0.67248893  0.04449657  1
  S  S130  1  0.07306488  0.66679147  0.37520240  1
  S  S131  1  0.06064664  0.67003308  0.70425776  1
  S  S132  1  0.56610021  0.16510092  0.04164686  1
  S  S133  1  0.56462734  0.17216834  0.37621443  1
  S  S134  1  0.56965314  0.16909135  0.70784911  1
  S  S135  1  0.56599708  0.66812118  0.04251750  1
  S  S136  1  0.56920568  0.66927472  0.37561661  1
  S  S137  1  0.57006961  0.68148146  0.71110888  1
  S  S138  1  0.33507258  0.44277246  0.12146639  1
  S  S139  1  0.33088730  0.43461562  0.46350105  1
  S  S140  1  0.33060318  0.42640566  0.78718743  1
  S  S141  1  0.32647028  0.92840347  0.12044394  1
  S  S142  1  0.33416021  0.93308787  0.45624276  1
  S  S143  1  0.33003505  0.93298267  0.79201792  1
  S  S144  1  0.82906099  0.42911725  0.12646882  1
  S  S145  1  0.82381896  0.42335575  0.45966459  1
  S  S146  1  0.84165740  0.43978177  0.79404500  1
  S  S147  1  0.82428884  0.93188216  0.11976419  1
  S  S148  1  0.83076291  0.94238830  0.45463962  1
  S  S149  1  0.83303279  0.93251697  0.78966943  1
  S  S150  1  0.43485764  0.32971251  0.29697706  1
  S  S151  1  0.42568129  0.32731529  0.62383347  1
  S  S152  1  0.43369677  0.32973817  0.95388781  1
  S  S153  1  0.43208008  0.82986158  0.28931587  1
  S  S154  1  0.44057850  0.83821235  0.62538551  1
  S  S155  1  0.42726681  0.82732072  0.95440102  1
  S  S156  1  0.93099752  0.32361294  0.29322925  1
  S  S157  1  0.92229312  0.33009675  0.62548809  1
  S  S158  1  0.94282779  0.33011297  0.95962717  1
  S  S159  1  0.93818399  0.84054288  0.29075518  1
  S  S160  1  0.93454871  0.83322199  0.62463975  1
  S  S161  1  0.92504339  0.83218547  0.95393125  1
  S  S162  1  0.17036113  0.06562207  0.21140891  1
  S  S163  1  0.16805192  0.05768175  0.54298689  1
  S  S164  1  0.17369385  0.06867812  0.87727777  1
  S  S165  1  0.16915198  0.57023194  0.20907635  1
  S  S166  1  0.17880753  0.57217357  0.54054548  1
  S  S167  1  0.16310591  0.55878342  0.87757897  1
  S  S168  1  0.66593334  0.06865598  0.20635761  1
  S  S169  1  0.66745502  0.06603141  0.54011462  1
  S  S170  1  0.67223247  0.07135558  0.87633526  1
  S  S171  1  0.67125250  0.56713815  0.20904534  1
  S  S172  1  0.66753334  0.56311200  0.54031738  1
  S  S173  1  0.66274948  0.56788929  0.87370504  1
  O  O174  1  0.36377122  0.21380376  0.07515982  1
  O  O175  1  0.36846478  0.21627969  0.40873614  1
  O  O176  1  0.37098921  0.21319787  0.73711169  1
  O  O177  1  0.36870464  0.72314377  0.07319733  1
  O  O178  1  0.37269778  0.72724183  0.41260830  1
  O  O179  1  0.37371958  0.71398339  0.73557582  1
  O  O180  1  0.86813481  0.21989138  0.07422781  1
  O  O181  1  0.86809270  0.21893801  0.40527394  1
  O  O182  1  0.87562992  0.21788824  0.74577944  1
  O  O183  1  0.86439557  0.72587241  0.08063981  1
  O  O184  1  0.86935450  0.71094533  0.41203620  1
  O  O185  1  0.87201945  0.72007511  0.73219725  1
  O  O186  1  0.28255938  0.12511329  0.09829292  1
  O  O187  1  0.28381812  0.12535227  0.42628075  1
  O  O188  1  0.28498671  0.12734320  0.75799222  1
  O  O189  1  0.27978866  0.63680377  0.08873787  1
  O  O190  1  0.28114077  0.63692246  0.41950759  1
  O  O191  1  0.28674561  0.63253911  0.76420697  1
  O  O192  1  0.78143693  0.13063929  0.09111114  1
  O  O193  1  0.77147373  0.13544203  0.41493145  1
  O  O194  1  0.78534374  0.12874937  0.75827818  1
  O  O195  1  0.77744957  0.63306957  0.09017806  1
  O  O196  1  0.78442139  0.62163103  0.43165845  1
  O  O197  1  0.77618699  0.64346526  0.75142624  1
  O  O198  1  0.12617533  0.27649382  0.25606760  1
  O  O199  1  0.12778107  0.29047096  0.58687687  1
  O  O200  1  0.13833544  0.27818203  0.92800678  1
  O  O201  1  0.13118863  0.78234980  0.25702648  1
  O  O202  1  0.13481132  0.77872804  0.58872054  1
  O  O203  1  0.12888527  0.79030988  0.92872403  1
  O  O204  1  0.63259437  0.28062731  0.25575991  1
  O  O205  1  0.63490195  0.27096489  0.58419533  1
  O  O206  1  0.62395285  0.28459791  0.93081547  1
  O  O207  1  0.62900500  0.78091279  0.25503269  1
  O  O208  1  0.63539242  0.78232128  0.58733599  1
  O  O209  1  0.62942647  0.78316160  0.92352393  1
  O  O210  1  0.21246520  0.36037394  0.23143618  1
  O  O211  1  0.21776774  0.37847896  0.57039451  1
  O  O212  1  0.22518867  0.36563314  0.91132673  1
  O  O213  1  0.21879546  0.86917640  0.24032874  1
  O  O214  1  0.22611152  0.86758026  0.57923638  1
  O  O215  1  0.21283756  0.87498032  0.90321567  1
  O  O216  1  0.72341905  0.36883686  0.24510711  1
  O  O217  1  0.72153953  0.37088456  0.58411309  1
  O  O218  1  0.71315819  0.36850532  0.91061458  1
  O  O219  1  0.71597353  0.87026846  0.23842464  1
  O  O220  1  0.72152884  0.87148053  0.56945211  1
  O  O221  1  0.71402102  0.87073655  0.90236438  1
  O  O222  1  0.42087117  0.12978892  0.15248557  1
  O  O223  1  0.42240818  0.12965387  0.48452257  1
  O  O224  1  0.42361660  0.12739986  0.81492459  1
  O  O225  1  0.41755993  0.63749902  0.15123791  1
  O  O226  1  0.41789783  0.64185964  0.49105568  1
  O  O227  1  0.42438533  0.63289060  0.81791898  1
  O  O228  1  0.91943565  0.13000729  0.14657859  1
  O  O229  1  0.90888065  0.12708410  0.47699784  1
  O  O230  1  0.92356173  0.12534805  0.81652313  1
  O  O231  1  0.91372704  0.64121592  0.15897607  1
  O  O232  1  0.92358412  0.62054936  0.48288399  1
  O  O233  1  0.91387784  0.63251492  0.80995712  1
  O  O234  1  0.36776661  0.07542023  0.01803477  1
  O  O235  1  0.37092822  0.07834460  0.34903675  1
  O  O236  1  0.37065669  0.07520883  0.67985972  1
  O  O237  1  0.36940588  0.58517391  0.01459042  1
  O  O238  1  0.37810102  0.58842724  0.35545375  1
  O  O239  1  0.36687502  0.57497579  0.68322318  1
  O  O240  1  0.86399259  0.08256691  0.00994860  1
  O  O241  1  0.85953877  0.08098534  0.34122788  1
  O  O242  1  0.87056029  0.08022229  0.68072222  1
  O  O243  1  0.87163849  0.58847108  0.02096677  1
  O  O244  1  0.86415379  0.57372580  0.34754671  1
  O  O245  1  0.85719252  0.58099745  0.67394253  1
  O  O246  1  0.07407170  0.37067692  0.18791455  1
  O  O247  1  0.07822746  0.37657412  0.51218463  1
  O  O248  1  0.08786969  0.35899798  0.84554864  1
  O  O249  1  0.08067148  0.87101716  0.18132819  1
  O  O250  1  0.08821409  0.87193111  0.51945077  1
  O  O251  1  0.07420936  0.87256142  0.84823266  1
  O  O252  1  0.58534472  0.37000458  0.18146127  1
  O  O253  1  0.58314733  0.36694744  0.52139077  1
  O  O254  1  0.57525752  0.36997716  0.85105579  1
  O  O255  1  0.57821453  0.86710425  0.17869664  1
  O  O256  1  0.58309207  0.87049180  0.51284866  1
  O  O257  1  0.57555807  0.87284615  0.85048425  1
  O  O258  1  0.14153268  0.41397089  0.32180617  1
  O  O259  1  0.13394999  0.42984988  0.64917861  1
  O  O260  1  0.13315404  0.41595362  0.98245907  1
  O  O261  1  0.13255613  0.92035534  0.31726798  1
  O  O262  1  0.13772199  0.91569753  0.65513959  1
  O  O263  1  0.12749334  0.92910498  0.98218653  1
  O  O264  1  0.63237180  0.41838043  0.31726197  1
  O  O265  1  0.63131103  0.40444364  0.65887480  1
  O  O266  1  0.62674100  0.42275782  0.98643974  1
  O  O267  1  0.62910814  0.91870815  0.31529355  1
  O  O268  1  0.63676714  0.92055926  0.64880703  1
  O  O269  1  0.63430431  0.92012088  0.98640064  1
  O  O270  1  0.03196004  0.20047398  0.10355887  1
  O  O271  1  0.02972585  0.19361363  0.43092525  1
  O  O272  1  0.03785334  0.19477259  0.77508617  1
  O  O273  1  0.03097352  0.70578371  0.11016918  1
  O  O274  1  0.03826083  0.68507667  0.43569221  1
  O  O275  1  0.02873779  0.71122333  0.76675912  1
  O  O276  1  0.53053452  0.18888404  0.10179078  1
  O  O277  1  0.52766420  0.20084005  0.43694133  1
  O  O278  1  0.53639092  0.20006645  0.77095131  1
  O  O279  1  0.52947243  0.69959060  0.10353515  1
  O  O280  1  0.53225755  0.69932732  0.43711350  1
  O  O281  1  0.53237682  0.71375672  0.77169453  1
  O  O282  1  0.29488886  0.47587568  0.05814395  1
  O  O283  1  0.30825331  0.47867001  0.40937097  1
  O  O284  1  0.30712990  0.45967916  0.72459280  1
  O  O285  1  0.29328157  0.96351099  0.05869887  1
  O  O286  1  0.30161087  0.96653700  0.39365134  1
  O  O287  1  0.29974237  0.96873731  0.73026822  1
  O  O288  1  0.80036188  0.46694022  0.06849000  1
  O  O289  1  0.79617354  0.46168063  0.39985142  1
  O  O290  1  0.81213839  0.47290329  0.73028880  1
  O  O291  1  0.79611124  0.97004900  0.05969946  1
  O  O292  1  0.79044333  0.97525948  0.39164856  1
  O  O293  1  0.80512653  0.96759449  0.72725579  1
  O  O294  1  0.47226562  0.29898991  0.23772705  1
  O  O295  1  0.46381114  0.29872595  0.56295573  1
  O  O296  1  0.46166901  0.29375027  0.88672982  1
  O  O297  1  0.46731694  0.80031350  0.22771346  1
  O  O298  1  0.47917726  0.80919895  0.56613010  1
  O  O299  1  0.46511123  0.80026562  0.89419230  1
  O  O300  1  0.96649602  0.29410432  0.23133942  1
  O  O301  1  0.95582304  0.30787132  0.56400908  1
  O  O302  1  0.97773718  0.29388036  0.89643614  1
  O  O303  1  0.97028357  0.80675685  0.22580354  1
  O  O304  1  0.97368812  0.80335646  0.56794786  1
  O  O305  1  0.95886925  0.81007259  0.89208472  1
  O  O306  1  0.20173141  0.02976991  0.27335180  1
  O  O307  1  0.20761664  0.02493815  0.60613110  1
  O  O308  1  0.20539648  0.03684730  0.94116471  1
  O  O309  1  0.19408831  0.53258625  0.26772387  1
  O  O310  1  0.20852846  0.53522996  0.60039234  1
  O  O311  1  0.20743785  0.52904119  0.94340305  1
  O  O312  1  0.69397197  0.03086962  0.26613794  1
  O  O313  1  0.70017143  0.03112737  0.60191838  1
  O  O314  1  0.69950824  0.03205531  0.93563793  1
  O  O315  1  0.69865164  0.53124786  0.27059671  1
  O  O316  1  0.69646028  0.52272367  0.59739664  1
  O  O317  1  0.68280749  0.53832388  0.93876593  1
  O  O318  1  0.08906725  0.08937627  0.04088631  1
  O  O319  1  0.08165899  0.08036329  0.36731719  1
  O  O320  1  0.08540716  0.07894688  0.70637859  1
  O  O321  1  0.08877892  0.59459295  0.04606917  1
  O  O322  1  0.09417897  0.58493862  0.35723571  1
  O  O323  1  0.06572814  0.58936012  0.70232389  1
  O  O324  1  0.58228784  0.08129315  0.03005487  1
  O  O325  1  0.58363772  0.09087984  0.37358806  1
  O  O326  1  0.58687910  0.08641459  0.70257088  1
  O  O327  1  0.58348405  0.58667117  0.03869013  1
  O  O328  1  0.58319785  0.58645138  0.36739644  1
  O  O329  1  0.59177091  0.60452402  0.71003540  1
  O  O330  1  0.41415985  0.42798853  0.11691019  1
  O  O331  1  0.41400516  0.41864155  0.47194956  1
  O  O332  1  0.41398275  0.40990082  0.80068701  1
  O  O333  1  0.40744922  0.91248366  0.12232938  1
  O  O334  1  0.41701903  0.91766646  0.46053618  1
  O  O335  1  0.41123481  0.91471948  0.79320207  1
  O  O336  1  0.91040589  0.40845060  0.13093894  1
  O  O337  1  0.90425223  0.40403227  0.46435856  1
  O  O338  1  0.92562584  0.42372113  0.80232671  1
  O  O339  1  0.90548331  0.91271168  0.12590942  1
  O  O340  1  0.91244100  0.93758602  0.45744526  1
  O  O341  1  0.91588621  0.91541168  0.79824094  1
  O  O342  1  0.42048988  0.41083788  0.30177437  1
  O  O343  1  0.40380912  0.40740457  0.62789739  1
  O  O344  1  0.41155970  0.40976857  0.95364914  1
  O  O345  1  0.41179868  0.91086124  0.29434033  1
  O  O346  1  0.42312887  0.92092755  0.62909616  1
  O  O347  1  0.40966530  0.90957208  0.96267366  1
  O  O348  1  0.91607537  0.40624167  0.30148646  1
  O  O349  1  0.89815784  0.41122961  0.63633429  1
  O  O350  1  0.92756878  0.40887582  0.96123202  1
  O  O351  1  0.91968963  0.92288908  0.29123381  1
  O  O352  1  0.91973809  0.91733224  0.62876452  1
  O  O353  1  0.90737824  0.91565532  0.96549564  1
  O  O354  1  0.08902741  0.08236439  0.20775279  1
  O  O355  1  0.08590233  0.06183238  0.53857088  1
  O  O356  1  0.09128684  0.08480429  0.87221108  1
  O  O357  1  0.08722767  0.59011938  0.20089781  1
  O  O358  1  0.10031313  0.59561217  0.54111149  1
  O  O359  1  0.08643535  0.57546455  0.88611101  1
  O  O360  1  0.58609257  0.09107441  0.20205564  1
  O  O361  1  0.58490992  0.08186463  0.53694433  1
  O  O362  1  0.59052502  0.08952825  0.86953339  1
  O  O363  1  0.58798607  0.58418267  0.20110922  1
  O  O364  1  0.58654486  0.58362257  0.53668990  1
  O  O365  1  0.58045343  0.59133753  0.86296195  1
  O  O366  1  0.14251655  0.22297440  0.06161742  1
  O  O367  1  0.13461630  0.21189931  0.37963732  1
  O  O368  1  0.13938133  0.21064671  0.72065729  1
  O  O369  1  0.13155544  0.72769020  0.05825948  1
  O  O370  1  0.14280373  0.72367317  0.39468614  1
  O  O371  1  0.13580770  0.71477501  0.71787541  1
  O  O372  1  0.63856623  0.21597697  0.05883979  1
  O  O373  1  0.63597344  0.22434882  0.39282888  1
  O  O374  1  0.63926446  0.21922638  0.71852105  1
  O  O375  1  0.63786245  0.72087710  0.06027427  1
  O  O376  1  0.64138461  0.72014535  0.39375594  1
  O  O377  1  0.63863107  0.73782018  0.72634841  1
  O  O378  1  0.28624428  0.36843359  0.10586282  1
  O  O379  1  0.27951487  0.36149575  0.43965440  1
  O  O380  1  0.27836802  0.35435100  0.76905512  1
  O  O381  1  0.27541466  0.85739311  0.10693971  1
  O  O382  1  0.28454930  0.86190913  0.44388351  1
  O  O383  1  0.28011297  0.86319453  0.78082714  1
  O  O384  1  0.77613380  0.35656518  0.10799691  1
  O  O385  1  0.76936553  0.35296189  0.44163644  1
  O  O386  1  0.79308606  0.36563212  0.77563280  1
  O  O387  1  0.77025596  0.86191742  0.10280872  1
  O  O388  1  0.78617749  0.86779300  0.44102352  1
  O  O389  1  0.78073758  0.86179943  0.77361670  1
  O  O390  1  0.36237217  0.27809767  0.28012827  1
  O  O391  1  0.35829910  0.27190332  0.60900447  1
  O  O392  1  0.36417089  0.27716411  0.94281309  1
  O  O393  1  0.36245831  0.77699673  0.27604011  1
  O  O394  1  0.36980678  0.78709997  0.60928558  1
  O  O395  1  0.35619058  0.77478385  0.93701921  1
  O  O396  1  0.85715080  0.27285856  0.27359330  1
  O  O397  1  0.85363512  0.27367428  0.60973124  1
  O  O398  1  0.87289911  0.27727478  0.94570884  1
  O  O399  1  0.86522193  0.79204690  0.27625052  1
  O  O400  1  0.85990982  0.78549939  0.60674211  1
  O  O401  1  0.85413062  0.77994771  0.93838281  1
  O  O402  1  0.22199399  0.13684439  0.22741882  1
  O  O403  1  0.21258351  0.13252828  0.55721975  1
  O  O404  1  0.22408844  0.13961734  0.88960162  1
  O  O405  1  0.22277466  0.64216322  0.22754194  1
  O  O406  1  0.23428002  0.63859226  0.55231227  1
  O  O407  1  0.21245924  0.63148193  0.88892117  1
  O  O408  1  0.72134377  0.13728965  0.22142777  1
  O  O409  1  0.71770383  0.13741455  0.55434142  1
  O  O410  1  0.72543588  0.14136405  0.89405170  1
  O  O411  1  0.72292682  0.63782562  0.22498228  1
  O  O412  1  0.72052245  0.63399320  0.55734657  1
  O  O413  1  0.71772361  0.63825086  0.89074508  1
  O  O414  1  0.49786581  0.33840732  0.02275001  1
  O  O415  1  0.49176311  0.33049327  0.37162342  1
  O  O416  1  0.48891994  0.33273562  0.69547687  1
  O  O417  1  0.48754552  0.82837413  0.02642834  1
  O  O418  1  0.49409842  0.83475592  0.36164966  1
  O  O419  1  0.49820070  0.84468265  0.70022940  1
  O  O420  1  1.00298811  0.32988961  0.03189893  1
  O  O421  1  0.98822834  0.32152551  0.36496173  1
  O  O422  1  0.98426216  0.32967450  0.69581322  1
  O  O423  1  0.98534240  0.83110232  0.02505084  1
  O  O424  1  0.99821303  0.84510473  0.36057001  1
  O  O425  1  0.98899969  0.83879715  0.70138047  1
  O  O426  1  0.16849724  0.00587030  0.13946989  1
  O  O427  1  0.17264156  0.00057881  0.47085979  1
  O  O428  1  0.17080602  0.00653240  0.80621404  1
  O  O429  1  0.17005802  0.51282636  0.13645857  1
  O  O430  1  0.16783751  0.51094370  0.46547861  1
  O  O431  1  0.15703828  0.49810990  0.80727482  1
  O  O432  1  0.66078325  0.00851335  0.13295292  1
  O  O433  1  0.66215594  0.00639369  0.46666996  1
  O  O434  1  0.67024314  0.01163333  0.80330976  1
  O  O435  1  0.66829514  0.50673453  0.13637661  1
  O  O436  1  0.66197950  0.50606285  0.46496405  1
  O  O437  1  0.66024692  0.50597059  0.80488174  1
  O  O438  1  0.00282273  0.15468659  0.29548495  1
  O  O439  1  0.00524399  0.15749104  0.63964889  1
  O  O440  1  0.01281941  0.16585535  0.97049999  1
  O  O441  1  0.01207055  0.67197547  0.30537993  1
  O  O442  1  0.00375520  0.67381223  0.63138319  1
  O  O443  1  -0.00074598  0.66352782  0.97532133  1
  O  O444  1  0.50695520  0.16877183  0.30313782  1
  O  O445  1  0.50610729  0.16388177  0.63599691  1
  O  O446  1  0.50778634  0.16787946  0.96995031  1
  O  O447  1  0.51026658  0.67152560  0.30425111  1
  O  O448  1  0.51017094  0.67948252  0.63814270  1
  O  O449  1  0.50808612  0.66609668  0.96973501  1
  O  O450  1  0.33990430  0.49918881  0.19393638  1
  O  O451  1  0.32922972  0.48772638  0.53857320  1
  O  O452  1  0.32683095  0.48690651  0.85676114  1
  O  O453  1  0.32983124  0.98872859  0.19316181  1
  O  O454  1  0.33811134  0.99369484  0.52869737  1
  O  O455  1  0.33617551  0.99495502  0.86463907  1
  O  O456  1  0.83419859  0.48529507  0.20153810  1
  O  O457  1  0.82359209  0.48165471  0.53264109  1
  O  O458  1  0.84083894  0.49876884  0.86320972  1
  O  O459  1  0.82591656  0.99144881  0.19213107  1
  O  O460  1  0.82796504  1.00014616  0.52723170  1
  O  O461  1  0.83344368  0.99300180  0.86117363  1
