# generated using pymatgen
data_Na31Fe20(SO4)36
_symmetry_space_group_name_H-M   'P 1'
_cell_length_a   18.07632119
_cell_length_b   18.07714258
_cell_length_c   19.71340962
_cell_angle_alpha   107.58413372
_cell_angle_beta   107.60560220
_cell_angle_gamma   90.71201662
_symmetry_Int_Tables_number   1
_chemical_formula_structural   Na31Fe20(SO4)36
_chemical_formula_sum   'Na62 Fe40 S72 O288'
_cell_volume   5814.77787024
_cell_formula_units_Z   2
loop_
 _symmetry_equiv_pos_site_id
 _symmetry_equiv_pos_as_xyz
  1  'x, y, z'
loop_
 _atom_site_type_symbol
 _atom_site_label
 _atom_site_symmetry_multiplicity
 _atom_site_fract_x
 _atom_site_fract_y
 _atom_site_fract_z
 _atom_site_occupancy
  Na  Na0  1  0.13425462  0.37250883  0.09682325  1
  Na  Na1  1  0.14782888  0.35982737  0.40908616  1
  Na  Na2  1  0.13745632  0.37868161  0.75059151  1
  Na  Na3  1  0.12881256  0.86627912  0.08087489  1
  Na  Na4  1  0.13691560  0.86085448  0.41758504  1
  Na  Na5  1  0.15575011  0.84389409  0.75475266  1
  Na  Na6  1  0.61358639  0.35649999  0.06492837  1
  Na  Na7  1  0.62977132  0.37161941  0.41663853  1
  Na  Na8  1  0.62025572  0.37214739  0.76337953  1
  Na  Na9  1  0.62768238  0.85888952  0.06524713  1
  Na  Na10  1  0.63656736  0.86550187  0.41651710  1
  Na  Na11  1  0.64064057  0.86525815  0.75962907  1
  Na  Na12  1  0.36491273  0.14896584  0.26057593  1
  Na  Na13  1  0.37218158  0.13817642  0.59570288  1
  Na  Na14  1  0.37287254  0.14837872  0.91738940  1
  Na  Na15  1  0.35125444  0.63490081  0.24629499  1
  Na  Na16  1  0.36663254  0.62900464  0.58875681  1
  Na  Na17  1  0.35982903  0.63223559  0.89528961  1
  Na  Na18  1  0.86284504  0.13438708  0.24384360  1
  Na  Na19  1  0.86914389  0.13338064  0.58506370  1
  Na  Na20  1  0.87311291  0.14912981  0.93287646  1
  Na  Na21  1  0.86581554  0.63350341  0.25331159  1
  Na  Na22  1  0.87258854  0.62522913  0.58726893  1
  Na  Na23  1  0.85463926  0.63041693  0.90944180  1
  Na  Na24  1  0.99858070  0.00249959  0.75595483  1
  Na  Na25  1  0.48125390  0.52284439  0.77857698  1
  Na  Na26  1  0.48512662  0.01495248  0.41863711  1
  Na  Na27  1  0.43330609  0.50261208  0.40921531  1
  Na  Na28  1  0.99498631  0.01407979  0.40921524  1
  Na  Na29  1  1.02344887  0.48892496  0.41187249  1
  Na  Na30  1  0.48917834  0.01254257  0.08269597  1
  Na  Na31  1  0.50295251  0.05562938  0.76576154  1
  Na  Na32  1  0.95973060  0.50597669  0.06275692  1
  Na  Na33  1  0.03579989  0.48130798  0.24236705  1
  Na  Na34  1  0.00924204  1.00426006  0.22100078  1
  Na  Na35  1  0.51008343  1.00308253  0.91349304  1
  Na  Na36  1  0.48099038  0.50551443  0.24850905  1
  Na  Na37  1  0.01780445  0.98856829  0.58224836  1
  Na  Na38  1  0.00186132  0.98473431  0.93395691  1
  Na  Na39  1  0.51129382  0.98477360  0.58355459  1
  Na  Na40  1  -0.00075677  0.49496320  0.89777131  1
  Na  Na41  1  0.50802350  0.98523298  0.24850863  1
  Na  Na42  1  0.26581199  0.26161821  0.66197373  1
  Na  Na43  1  0.73961944  0.74735890  -0.01558212  1
  Na  Na44  1  0.74705626  0.74780768  0.33479611  1
  Na  Na45  1  0.76553395  0.27565832  -0.00601047  1
  Na  Na46  1  0.74643136  0.74160725  0.67945902  1
  Na  Na47  1  0.23209176  0.72686885  0.34207253  1
  Na  Na48  1  0.25662620  0.75542269  -0.01496704  1
  Na  Na49  1  0.75768057  0.25512218  0.32675062  1
  Na  Na50  1  0.24684681  0.25382463  0.00911718  1
  Na  Na51  1  0.74954525  0.25310332  0.66803730  1
  Na  Na52  1  0.27676818  0.26614184  0.82784350  1
  Na  Na53  1  0.23895301  0.72647205  0.51401722  1
  Na  Na54  1  0.76461597  0.26294246  0.15194936  1
  Na  Na55  1  0.74591051  0.74872353  0.16153124  1
  Na  Na56  1  0.75351930  0.25492335  0.49620421  1
  Na  Na57  1  0.24521949  0.74966319  0.16667733  1
  Na  Na58  1  0.26035894  0.25994027  0.49068743  1
  Na  Na59  1  0.24061300  0.25576537  0.18761787  1
  Na  Na60  1  0.74681608  0.74020728  0.50906445  1
  Na  Na61  1  0.75501259  0.26674455  0.83360169  1
  Fe  Fe62  1  0.46692357  0.79853034  0.78469100  1
  Fe  Fe63  1  0.96960522  0.30887021  0.45745123  1
  Fe  Fe64  1  0.46146059  0.30883722  0.12128242  1
  Fe  Fe65  1  0.46816755  0.80173737  0.11126988  1
  Fe  Fe66  1  0.96571163  0.30650370  0.78460871  1
  Fe  Fe67  1  0.46034100  0.31728314  0.45879198  1
  Fe  Fe68  1  0.95906686  0.80493598  0.11283795  1
  Fe  Fe69  1  0.46879035  0.80967152  0.45102898  1
  Fe  Fe70  1  0.96521885  0.80383492  0.78247856  1
  Fe  Fe71  1  0.96619516  0.80467576  0.45234264  1
  Fe  Fe72  1  0.69159758  0.52773421  0.03494484  1
  Fe  Fe73  1  0.69415175  0.03498219  0.38264474  1
  Fe  Fe74  1  0.69115857  0.53449982  0.71809229  1
  Fe  Fe75  1  0.69257410  0.53366577  0.37678600  1
  Fe  Fe76  1  0.19202483  0.03758713  0.38104182  1
  Fe  Fe77  1  0.19537509  0.03321935  0.05010334  1
  Fe  Fe78  1  0.19211599  0.53433734  0.04720079  1
  Fe  Fe79  1  0.69352962  0.04046847  0.04973381  1
  Fe  Fe80  1  0.69908836  0.03333365  0.71849922  1
  Fe  Fe81  1  0.19650468  0.02719896  0.71652394  1
  Fe  Fe82  1  0.03588221  0.68611125  0.87410001  1
  Fe  Fe83  1  0.04017267  0.19139427  0.54961852  1
  Fe  Fe84  1  0.53534803  0.69358729  0.54805197  1
  Fe  Fe85  1  0.02686432  0.69432383  0.21094393  1
  Fe  Fe86  1  0.04014123  0.68389394  0.55390427  1
  Fe  Fe87  1  0.53648127  0.68549152  0.20561639  1
  Fe  Fe88  1  0.53159419  0.19989080  0.55287012  1
  Fe  Fe89  1  0.04025178  0.19340135  0.88373030  1
  Fe  Fe90  1  0.03463495  0.20085616  0.21001427  1
  Fe  Fe91  1  0.53603504  0.19254278  0.21825594  1
  Fe  Fe92  1  0.80939197  0.46428974  0.28633638  1
  Fe  Fe93  1  0.80999538  0.46283348  0.62195151  1
  Fe  Fe94  1  0.30334890  0.96537456  0.28325264  1
  Fe  Fe95  1  0.31162628  0.95607577  0.62021307  1
  Fe  Fe96  1  0.30831403  0.47062943  0.95346605  1
  Fe  Fe97  1  0.29851486  0.47310885  0.62990168  1
  Fe  Fe98  1  0.30542941  0.96483783  0.94560612  1
  Fe  Fe99  1  0.80769827  0.96496529  0.95159199  1
  Fe  Fe100  1  0.81007963  0.96434153  0.61790069  1
  Fe  Fe101  1  0.80555754  0.96531727  0.28364427  1
  S  S102  1  0.36025125  0.13770891  0.08924200  1
  S  S103  1  0.36228486  0.13837509  0.41687566  1
  S  S104  1  0.35578499  0.13207384  0.74630897  1
  S  S105  1  0.35848768  0.64452982  0.08504857  1
  S  S106  1  0.36158602  0.65013084  0.41405137  1
  S  S107  1  0.36318474  0.64446378  0.75025090  1
  S  S108  1  0.86272730  0.13667547  0.08489070  1
  S  S109  1  0.86200176  0.13940583  0.41827087  1
  S  S110  1  0.86466497  0.13643626  0.74966624  1
  S  S111  1  0.85301778  0.64584772  0.08252951  1
  S  S112  1  0.85968362  0.64136725  0.41959505  1
  S  S113  1  0.85931777  0.63718964  0.74849130  1
  S  S114  1  0.13429694  0.35880121  0.25037515  1
  S  S115  1  0.14123846  0.35194996  0.57984051  1
  S  S116  1  0.14109774  0.36012595  0.91321617  1
  S  S117  1  0.13486957  0.86248361  0.24943405  1
  S  S118  1  0.14103376  0.85614948  0.58241696  1
  S  S119  1  0.13634414  0.86206200  0.91767095  1
  S  S120  1  0.64172693  0.35758924  0.24835013  1
  S  S121  1  0.64085057  0.35916293  0.58356935  1
  S  S122  1  0.63824433  0.35412743  0.92341130  1
  S  S123  1  0.63942053  0.86018205  0.25014049  1
  S  S124  1  0.64423805  0.86012983  0.58080714  1
  S  S125  1  0.63575239  0.87017924  0.91600066  1
  S  S126  1  0.07192781  0.16528514  0.04219009  1
  S  S127  1  0.06475500  0.16387960  0.37125622  1
  S  S128  1  0.07083063  0.16335513  0.70863244  1
  S  S129  1  0.06204413  0.67260315  0.04004043  1
  S  S130  1  0.05927840  0.66766623  0.37632719  1
  S  S131  1  0.06258300  0.66658728  0.71027576  1
  S  S132  1  0.56457558  0.16523164  0.04925565  1
  S  S133  1  0.56741019  0.16485949  0.37812060  1
  S  S134  1  0.57533942  0.16199522  0.70635671  1
  S  S135  1  0.56999068  0.67077008  0.04125390  1
  S  S136  1  0.57090102  0.67305608  0.37394855  1
  S  S137  1  0.57311906  0.67503754  0.70559009  1
  S  S138  1  0.32704849  0.43738470  0.12610638  1
  S  S139  1  0.33013512  0.43276091  0.46669282  1
  S  S140  1  0.32939285  0.43512975  0.78903881  1
  S  S141  1  0.32971599  0.93168108  0.12401123  1
  S  S142  1  0.32924806  0.93166979  0.45424022  1
  S  S143  1  0.33714875  0.93376531  0.79567720  1
  S  S144  1  0.83522630  0.44511344  0.12950196  1
  S  S145  1  0.82737797  0.42894462  0.45538993  1
  S  S146  1  0.83002868  0.43233013  0.78783024  1
  S  S147  1  0.82562966  0.93021703  0.12380844  1
  S  S148  1  0.83352430  0.93410582  0.45661110  1
  S  S149  1  0.83710412  0.93528140  0.79240264  1
  S  S150  1  0.43933752  0.33274170  0.29199316  1
  S  S151  1  0.42840686  0.32725197  0.62518017  1
  S  S152  1  0.41251024  0.32714494  0.96357206  1
  S  S153  1  0.43492203  0.83622369  0.28897619  1
  S  S154  1  0.43865730  0.83405151  0.62277320  1
  S  S155  1  0.42956327  0.83755084  0.95835026  1
  S  S156  1  0.93027365  0.32519297  0.29162724  1
  S  S157  1  0.93226877  0.32262067  0.62013206  1
  S  S158  1  0.94465839  0.33208327  0.95225010  1
  S  S159  1  0.93167800  0.83370187  0.29243388  1
  S  S160  1  0.93663154  0.83558003  0.62509138  1
  S  S161  1  0.92856544  0.82801888  0.95547362  1
  S  S162  1  0.17264874  0.07163276  0.21113793  1
  S  S163  1  0.16865560  0.06134797  0.54078236  1
  S  S164  1  0.17232413  0.06532927  0.87717664  1
  S  S165  1  0.15491638  0.57313628  0.20139579  1
  S  S166  1  0.17060168  0.55702160  0.54114906  1
  S  S167  1  0.16883321  0.56668441  0.88061338  1
  S  S168  1  0.66825258  0.06324410  0.21120148  1
  S  S169  1  0.67115696  0.06597004  0.54250999  1
  S  S170  1  0.67655707  0.07143529  0.88138536  1
  S  S171  1  0.67290947  0.56732070  0.20861116  1
  S  S172  1  0.67335556  0.56856103  0.54140820  1
  S  S173  1  0.66935188  0.56476700  0.87737052  1
  O  O174  1  0.36837668  0.21809542  0.08580769  1
  O  O175  1  0.37405485  0.21520908  0.40764266  1
  O  O176  1  0.36148023  0.20623389  0.73209685  1
  O  O177  1  0.36729660  0.72549274  0.07993358  1
  O  O178  1  0.37678888  0.72922822  0.40458893  1
  O  O179  1  0.37708440  0.71386226  0.72568049  1
  O  O180  1  0.86255894  0.21148276  0.07062007  1
  O  O181  1  0.86932647  0.21947509  0.41294522  1
  O  O182  1  0.87199969  0.21373052  0.73789383  1
  O  O183  1  0.85807919  0.72820405  0.07945876  1
  O  O184  1  0.86643424  0.72004988  0.40904712  1
  O  O185  1  0.86949670  0.71510998  0.73748098  1
  O  O186  1  0.28226554  0.12721984  0.09868816  1
  O  O187  1  0.28344227  0.12967538  0.42508513  1
  O  O188  1  0.27573724  0.12108468  0.75449049  1
  O  O189  1  0.28036992  0.63525602  0.09525368  1
  O  O190  1  0.28290090  0.64725492  0.41947482  1
  O  O191  1  0.28919109  0.64315750  0.76374226  1
  O  O192  1  0.78792487  0.12354289  0.10211100  1
  O  O193  1  0.78384287  0.12888437  0.42812537  1
  O  O194  1  0.78679258  0.12870755  0.75964553  1
  O  O195  1  0.77145532  0.63145129  0.08419500  1
  O  O196  1  0.77876819  0.63127745  0.42398958  1
  O  O197  1  0.78002648  0.62933982  0.75484820  1
  O  O198  1  0.12924228  0.27531308  0.25758436  1
  O  O199  1  0.13756491  0.26842956  0.58220648  1
  O  O200  1  0.13477583  0.27978786  0.91973189  1
  O  O201  1  0.12497607  0.78420961  0.25817464  1
  O  O202  1  0.13083406  0.77608061  0.58505020  1
  O  O203  1  0.12660770  0.78442203  0.92739930  1
  O  O204  1  0.63404658  0.28043975  0.26111512  1
  O  O205  1  0.63162793  0.27904664  0.59043968  1
  O  O206  1  0.62739089  0.28767952  0.94955211  1
  O  O207  1  0.62937037  0.78211518  0.25916186  1
  O  O208  1  0.63711275  0.77821919  0.58098300  1
  O  O209  1  0.63000620  0.79847861  0.93386762  1
  O  O210  1  0.21341268  0.37381164  0.24929509  1
  O  O211  1  0.22396801  0.36714775  0.57969497  1
  O  O212  1  0.21728932  0.37155715  0.90156345  1
  O  O213  1  0.21274395  0.87037211  0.23828782  1
  O  O214  1  0.21847952  0.86605141  0.57110157  1
  O  O215  1  0.21527819  0.87209010  0.91112622  1
  O  O216  1  0.72174419  0.36605179  0.24196770  1
  O  O217  1  0.72045365  0.36610605  0.57504478  1
  O  O218  1  0.71868359  0.35931186  0.91874569  1
  O  O219  1  0.71972667  0.86849536  0.24481324  1
  O  O220  1  0.72134967  0.87175082  0.56879886  1
  O  O221  1  0.71214955  0.88112323  0.90304236  1
  O  O222  1  0.42068406  0.12553207  0.15524148  1
  O  O223  1  0.42116396  0.12787603  0.48457204  1
  O  O224  1  0.41445154  0.12403565  0.81266261  1
  O  O225  1  0.41797437  0.63806730  0.15408595  1
  O  O226  1  0.41924285  0.64367775  0.48503204  1
  O  O227  1  0.42888619  0.64102981  0.81458819  1
  O  O228  1  0.92587908  0.13401656  0.15366249  1
  O  O229  1  0.92259107  0.12789127  0.48375096  1
  O  O230  1  0.92534847  0.12731927  0.81588190  1
  O  O231  1  0.90792103  0.64268080  0.15537417  1
  O  O232  1  0.91603320  0.63798045  0.49030633  1
  O  O233  1  0.91776596  0.63160720  0.81761310  1
  O  O234  1  0.36738709  0.08083909  0.01949722  1
  O  O235  1  0.37068033  0.07685181  0.34941908  1
  O  O236  1  0.36335305  0.06855689  0.67800657  1
  O  O237  1  0.36539488  0.58813505  0.01653668  1
  O  O238  1  0.37267279  0.59017433  0.34947917  1
  O  O239  1  0.36678392  0.57427304  0.68285648  1
  O  O240  1  0.87158057  0.07407758  0.01945120  1
  O  O241  1  0.86809977  0.08194258  0.34813495  1
  O  O242  1  0.87159263  0.07627450  0.68086990  1
  O  O243  1  0.87082344  0.59175726  0.01951808  1
  O  O244  1  0.87043655  0.58152517  0.35409664  1
  O  O245  1  0.86751882  0.57674092  0.68132617  1
  O  O246  1  0.07532267  0.35964534  0.17981611  1
  O  O247  1  0.08794080  0.35283457  0.50543577  1
  O  O248  1  0.07882248  0.36842854  0.84654794  1
  O  O249  1  0.07407757  0.87206400  0.18270077  1
  O  O250  1  0.08020359  0.87068244  0.51773147  1
  O  O251  1  0.07722879  0.87158351  0.85023379  1
  O  O252  1  0.58340745  0.36232982  0.17910296  1
  O  O253  1  0.58298521  0.36467023  0.51415711  1
  O  O254  1  0.57981937  0.35555284  0.85489826  1
  O  O255  1  0.58198765  0.87012590  0.18225298  1
  O  O256  1  0.58254993  0.87459898  0.51687605  1
  O  O257  1  0.57339979  0.87379477  0.84744296  1
  O  O258  1  0.11496815  0.41181074  0.31467474  1
  O  O259  1  0.12303257  0.40423145  0.64219130  1
  O  O260  1  0.13336050  0.41688358  0.98229214  1
  O  O261  1  0.13004450  0.92235266  0.31836344  1
  O  O262  1  0.13561514  0.91305701  0.65317083  1
  O  O263  1  0.12686452  0.92225474  0.98548534  1
  O  O264  1  0.63297648  0.41895525  0.31495406  1
  O  O265  1  0.63376854  0.41734416  0.65130775  1
  O  O266  1  0.63222519  0.42651410  0.98892242  1
  O  O267  1  0.63059636  0.92017382  0.31800568  1
  O  O268  1  0.64007799  0.91458888  0.65256999  1
  O  O269  1  0.62629717  0.93687512  0.98040269  1
  O  O270  1  0.03526386  0.18653882  0.10124302  1
  O  O271  1  0.02592210  0.18849160  0.43061345  1
  O  O272  1  0.03507295  0.19500144  0.76927455  1
  O  O273  1  0.02326578  0.70290712  0.10025132  1
  O  O274  1  0.02424849  0.70196787  0.43879071  1
  O  O275  1  0.02918955  0.70896990  0.77472809  1
  O  O276  1  0.52961211  0.19758197  0.11220634  1
  O  O277  1  0.53410988  0.19463378  0.44012936  1
  O  O278  1  0.54518058  0.18130515  0.76852117  1
  O  O279  1  0.53735440  0.70255639  0.10826039  1
  O  O280  1  0.53596942  0.70338193  0.43551083  1
  O  O281  1  0.54286049  0.70902550  0.76808895  1
  O  O282  1  0.29622546  0.46875479  0.06041269  1
  O  O283  1  0.30851654  0.47374367  0.41221321  1
  O  O284  1  0.29315278  0.47039869  0.72795365  1
  O  O285  1  0.29860977  0.96602551  0.06198879  1
  O  O286  1  0.29883455  0.96915329  0.39383790  1
  O  O287  1  0.29914990  0.96017004  0.72822464  1
  O  O288  1  0.79468143  0.48142636  0.07148828  1
  O  O289  1  0.79862961  0.46779323  0.39575456  1
  O  O290  1  0.79453405  0.46456895  0.72320394  1
  O  O291  1  0.79453809  0.96266343  0.06098009  1
  O  O292  1  0.80198445  0.96882029  0.39461633  1
  O  O293  1  0.80570352  0.96900214  0.72913232  1
  O  O294  1  0.47687896  0.29589709  0.23191987  1
  O  O295  1  0.46398714  0.30092685  0.56024627  1
  O  O296  1  0.42526508  0.28959987  0.89266190  1
  O  O297  1  0.47084375  0.80847880  0.22836029  1
  O  O298  1  0.47885460  0.80557211  0.56362926  1
  O  O299  1  0.45976495  0.81291016  0.89536815  1
  O  O300  1  0.96336030  0.29379885  0.23056323  1
  O  O301  1  0.97190098  0.29219002  0.56065711  1
  O  O302  1  0.97311595  0.28813197  0.88540855  1
  O  O303  1  0.96558720  0.80331934  0.23024862  1
  O  O304  1  0.97034929  0.80251500  0.56328735  1
  O  O305  1  0.96397745  0.79773949  0.89426574  1
  O  O306  1  0.20043672  0.03372188  0.27239238  1
  O  O307  1  0.19432464  0.02230190  0.59937926  1
  O  O308  1  0.20369620  0.03117380  0.93991410  1
  O  O309  1  0.17066918  0.54405955  0.26424546  1
  O  O310  1  0.20191552  0.52681176  0.60645688  1
  O  O311  1  0.20306931  0.53392031  0.94602057  1
  O  O312  1  0.70097232  0.02890527  0.27404449  1
  O  O313  1  0.70349017  0.03106196  0.60415464  1
  O  O314  1  0.71588918  0.04055265  0.94529529  1
  O  O315  1  0.70451432  0.52955618  0.26911196  1
  O  O316  1  0.69911559  0.52855157  0.59945332  1
  O  O317  1  0.70121122  0.52839685  0.93848771  1
  O  O318  1  0.09191506  0.08259331  0.03008662  1
  O  O319  1  0.07763059  0.07840029  0.36045039  1
  O  O320  1  0.08580270  0.08002253  0.70467221  1
  O  O321  1  0.07849632  0.59071555  0.03346662  1
  O  O322  1  0.06680337  0.58542345  0.36805364  1
  O  O323  1  0.06846422  0.58736963  0.70955950  1
  O  O324  1  0.58432112  0.08365909  0.05033423  1
  O  O325  1  0.58199325  0.08068710  0.37080154  1
  O  O326  1  0.59346681  0.07651443  0.69053988  1
  O  O327  1  0.60181090  0.59591029  0.04664756  1
  O  O328  1  0.58741414  0.59079844  0.36647661  1
  O  O329  1  0.59609153  0.59617848  0.70475533  1
  O  O330  1  0.40709651  0.41242859  0.13037709  1
  O  O331  1  0.41583747  0.41941810  0.47918466  1
  O  O332  1  0.40964480  0.42300286  0.79332223  1
  O  O333  1  0.41204915  0.91507816  0.12929415  1
  O  O334  1  0.41306174  0.91864158  0.45975974  1
  O  O335  1  0.41808910  0.91759979  0.79698248  1
  O  O336  1  0.91699662  0.44132838  0.13151413  1
  O  O337  1  0.90646873  0.40721673  0.45721660  1
  O  O338  1  0.90683745  0.40543954  0.78144056  1
  O  O339  1  0.90699252  0.91121216  0.12903518  1
  O  O340  1  0.91614396  0.91847688  0.46216152  1
  O  O341  1  0.91965131  0.91844886  0.79663296  1
  O  O342  1  0.43353342  0.41488154  0.29645566  1
  O  O343  1  0.39997332  0.40507369  0.63016715  1
  O  O344  1  0.40201464  0.41126798  0.97570431  1
  O  O345  1  0.41839128  0.91998705  0.29648698  1
  O  O346  1  0.42588490  0.91814590  0.62851393  1
  O  O347  1  0.41272758  0.92235002  0.97047028  1
  O  O348  1  0.91322506  0.40772068  0.29828963  1
  O  O349  1  0.90944941  0.40018284  0.62016700  1
  O  O350  1  0.93304790  0.41094211  0.94660293  1
  O  O351  1  0.91461278  0.91609552  0.29761167  1
  O  O352  1  0.92208742  0.91903472  0.62822350  1
  O  O353  1  0.90986244  0.90916229  0.95712562  1
  O  O354  1  0.09315743  0.09430952  0.20850677  1
  O  O355  1  0.08535668  0.07874988  0.53425544  1
  O  O356  1  0.08989081  0.08190485  0.87171702  1
  O  O357  1  0.06972683  0.59012297  0.18013272  1
  O  O358  1  0.09161220  0.58477442  0.54172429  1
  O  O359  1  0.08896772  0.58779837  0.88467549  1
  O  O360  1  0.58549440  0.07743191  0.20775419  1
  O  O361  1  0.58845745  0.08034658  0.53530302  1
  O  O362  1  0.59531940  0.07868631  0.87944456  1
  O  O363  1  0.59210808  0.58406884  0.20784711  1
  O  O364  1  0.59370630  0.59136068  0.53425861  1
  O  O365  1  0.59032826  0.58245736  0.87230032  1
  O  O366  1  0.14262432  0.21882822  0.05959087  1
  O  O367  1  0.13862424  0.21188561  0.39173693  1
  O  O368  1  0.14188054  0.21252044  0.72105021  1
  O  O369  1  0.13410650  0.72533335  0.06015924  1
  O  O370  1  0.13410400  0.71697606  0.39599599  1
  O  O371  1  0.13367246  0.71433082  0.72124542  1
  O  O372  1  0.63676886  0.21516820  0.06547715  1
  O  O373  1  0.64008519  0.21290525  0.39103420  1
  O  O374  1  0.64578580  0.21303838  0.71756975  1
  O  O375  1  0.63619914  0.72934177  0.05579303  1
  O  O376  1  0.64358723  0.72474569  0.39153271  1
  O  O377  1  0.63950079  0.72768724  0.71034579  1
  O  O378  1  0.27252920  0.36914976  0.11382008  1
  O  O379  1  0.28300093  0.35704452  0.44539498  1
  O  O380  1  0.27804117  0.36169923  0.77151612  1
  O  O381  1  0.27834098  0.86065128  0.10977326  1
  O  O382  1  0.27952807  0.85882528  0.43594695  1
  O  O383  1  0.28955340  0.86659251  0.79311572  1
  O  O384  1  0.79280267  0.36802808  0.11402697  1
  O  O385  1  0.77166613  0.35887884  0.43717218  1
  O  O386  1  0.77606610  0.36407650  0.77716283  1
  O  O387  1  0.77342028  0.86137166  0.11292742  1
  O  O388  1  0.78334989  0.86229208  0.44179316  1
  O  O389  1  0.78690235  0.86444534  0.77825241  1
  O  O390  1  0.36480952  0.28586919  0.27361389  1
  O  O391  1  0.36024393  0.26744119  0.60322216  1
  O  O392  1  0.34210151  0.28393689  0.96564695  1
  O  O393  1  0.36262887  0.78659760  0.27317606  1
  O  O394  1  0.36417607  0.78640452  0.60087268  1
  O  O395  1  0.36065739  0.78765785  0.94966774  1
  O  O396  1  0.85722964  0.27495693  0.27703785  1
  O  O397  1  0.86241728  0.26670554  0.60211971  1
  O  O398  1  0.86993411  0.28561635  0.93919119  1
  O  O399  1  0.86016221  0.78354728  0.27913016  1
  O  O400  1  0.86345749  0.78875531  0.61250279  1
  O  O401  1  0.85915679  0.77765657  0.94494888  1
  O  O402  1  0.22821583  0.13848490  0.22584918  1
  O  O403  1  0.22091182  0.13162985  0.55727012  1
  O  O404  1  0.22244094  0.13619862  0.89106148  1
  O  O405  1  0.20716822  0.64566644  0.21754879  1
  O  O406  1  0.22511996  0.62273917  0.54944126  1
  O  O407  1  0.21965274  0.63768687  0.89531621  1
  O  O408  1  0.71706062  0.13596569  0.22698630  1
  O  O409  1  0.72109561  0.13806096  0.55702028  1
  O  O410  1  0.72251436  0.14450775  0.89193328  1
  O  O411  1  0.72398576  0.64089064  0.22795444  1
  O  O412  1  0.73048584  0.63820958  0.56110918  1
  O  O413  1  0.72381226  0.63397011  0.89250177  1
  O  O414  1  0.48095209  0.32348193  0.02955732  1
  O  O415  1  0.49365470  0.32923777  0.36565965  1
  O  O416  1  0.48996317  0.32852775  0.69268018  1
  O  O417  1  0.49326661  0.84056427  0.03033865  1
  O  O418  1  0.49450413  0.83899997  0.36208333  1
  O  O419  1  0.49398024  0.83272949  0.69502809  1
  O  O420  1  1.00383068  0.33396799  0.02180910  1
  O  O421  1  0.98927508  0.32835046  0.36504983  1
  O  O422  1  0.99102724  0.32440262  0.69229440  1
  O  O423  1  0.99012499  0.83554330  0.02914361  1
  O  O424  1  0.99237638  0.83737327  0.36494966  1
  O  O425  1  0.99606257  0.84051304  0.69813633  1
  O  O426  1  0.16711696  0.00871493  0.13943789  1
  O  O427  1  0.16401438  0.00353142  0.46610188  1
  O  O428  1  0.16874761  0.00273283  0.80587565  1
  O  O429  1  0.16223816  0.51284796  0.13237401  1
  O  O430  1  0.15530595  0.49261067  0.47059879  1
  O  O431  1  0.16093493  0.50608654  0.81102312  1
  O  O432  1  0.66732593  0.00398256  0.13995189  1
  O  O433  1  0.67127712  0.00581311  0.47054771  1
  O  O434  1  0.67695145  0.01066443  0.80914531  1
  O  O435  1  0.67199260  0.51148570  0.13596014  1
  O  O436  1  0.67142188  0.51103076  0.46751645  1
  O  O437  1  0.67071976  0.50452333  0.80514123  1
  O  O438  1  0.00815072  0.16576886  0.29863719  1
  O  O439  1  0.01048805  0.15789539  0.63480071  1
  O  O440  1  0.01228100  0.16430782  0.96949251  1
  O  O441  1  0.00386164  0.67501119  0.30499367  1
  O  O442  1  0.00116176  0.67181740  0.63944713  1
  O  O443  1  0.00441355  0.67334595  0.96801079  1
  O  O444  1  0.50788674  0.16306990  0.30563012  1
  O  O445  1  0.51269345  0.16059164  0.63418456  1
  O  O446  1  0.50502718  0.15591336  0.97757311  1
  O  O447  1  0.51226496  0.67281600  0.30176120  1
  O  O448  1  0.50888026  0.66514771  0.63202580  1
  O  O449  1  0.50544136  0.66168389  0.97399870  1
  O  O450  1  0.33590204  0.50157445  0.19552761  1
  O  O451  1  0.32623258  0.48540564  0.54153960  1
  O  O452  1  0.32571760  0.49200102  0.86135478  1
  O  O453  1  0.33250418  0.99220151  0.19635854  1
  O  O454  1  0.33015528  0.98850725  0.52717838  1
  O  O455  1  0.34267362  1.00126517  0.86535030  1
  O  O456  1  0.83456060  0.49807441  0.20519600  1
  O  O457  1  0.83040179  0.48640604  0.52859207  1
  O  O458  1  0.84444069  0.49556391  0.85816819  1
  O  O459  1  0.83157597  0.99314270  0.19634147  1
  O  O460  1  0.83512837  0.99392458  0.52849090  1
  O  O461  1  0.84160391  0.99641908  0.86438822  1
