# generated using pymatgen
data_Na31Fe20(SO4)36
_symmetry_space_group_name_H-M   'P 1'
_cell_length_a   18.07768565
_cell_length_b   18.08203072
_cell_length_c   19.71039750
_cell_angle_alpha   107.60805595
_cell_angle_beta   107.59066744
_cell_angle_gamma   90.71678170
_symmetry_Int_Tables_number   1
_chemical_formula_structural   Na31Fe20(SO4)36
_chemical_formula_sum   'Na62 Fe40 S72 O288'
_cell_volume   5815.51220799
_cell_formula_units_Z   2
loop_
 _symmetry_equiv_pos_site_id
 _symmetry_equiv_pos_as_xyz
  1  'x, y, z'
loop_
 _atom_site_type_symbol
 _atom_site_label
 _atom_site_symmetry_multiplicity
 _atom_site_fract_x
 _atom_site_fract_y
 _atom_site_fract_z
 _atom_site_occupancy
  Na  Na0  1  0.12977527  0.37293865  0.08784594  1
  Na  Na1  1  0.13346779  0.34950729  0.40572236  1
  Na  Na2  1  0.13656069  0.36470543  0.74753204  1
  Na  Na3  1  0.13352972  0.87079209  0.08641007  1
  Na  Na4  1  0.14739192  0.87605974  0.42935655  1
  Na  Na5  1  0.13132667  0.86089654  0.74654924  1
  Na  Na6  1  0.61971702  0.33692844  0.04680485  1
  Na  Na7  1  0.62842616  0.35410212  0.41207127  1
  Na  Na8  1  0.61491942  0.37246598  0.75569728  1
  Na  Na9  1  0.66230585  0.86691074  0.09876109  1
  Na  Na10  1  0.63782670  0.85375078  0.40422109  1
  Na  Na11  1  0.63997618  0.86777031  0.76296105  1
  Na  Na12  1  0.36643261  0.14896034  0.26665810  1
  Na  Na13  1  0.33258180  0.13091134  0.56048169  1
  Na  Na14  1  0.36792908  0.13887193  0.91248273  1
  Na  Na15  1  0.36938395  0.63386016  0.24961870  1
  Na  Na16  1  0.36797856  0.63304145  0.58184320  1
  Na  Na17  1  0.37693604  0.62421623  0.91497653  1
  Na  Na18  1  0.86193746  0.12848843  0.23257683  1
  Na  Na19  1  0.87359836  0.13230108  0.58635100  1
  Na  Na20  1  0.83212473  0.13588934  0.91527800  1
  Na  Na21  1  0.85469220  0.64126552  0.24568242  1
  Na  Na22  1  0.86273199  0.63059827  0.57813075  1
  Na  Na23  1  0.86826736  0.64049904  0.92475097  1
  Na  Na24  1  0.96665102  0.02352225  0.09539854  1
  Na  Na25  1  0.49914169  0.48850031  0.41978823  1
  Na  Na26  1  1.00311497  -0.00177946  0.42036107  1
  Na  Na27  1  1.00610721  0.50630163  0.38723726  1
  Na  Na28  1  0.46510535  0.02860273  0.76311049  1
  Na  Na29  1  0.99379497  0.50746281  0.75569389  1
  Na  Na30  1  0.99621339  0.01169677  0.73676636  1
  Na  Na31  1  0.48498875  0.00846409  0.42306588  1
  Na  Na32  1  0.52219221  -0.01997649  0.07309686  1
  Na  Na33  1  0.01219247  0.48886000  0.57586163  1
  Na  Na34  1  0.46322219  1.02073322  0.60376575  1
  Na  Na35  1  0.04627507  0.99641174  0.26472206  1
  Na  Na36  1  -0.03895303  1.02484278  0.93684106  1
  Na  Na37  1  0.51406401  0.48789848  0.23524138  1
  Na  Na38  1  0.50340805  0.45365724  0.58195491  1
  Na  Na39  1  0.50566999  0.99195033  0.24928067  1
  Na  Na40  1  0.60576134  1.02137692  0.96215954  1
  Na  Na41  1  0.00098214  0.48503724  0.93964939  1
  Na  Na42  1  0.75378156  0.75220698  0.66567512  1
  Na  Na43  1  0.25531278  0.75057400  -0.00299374  1
  Na  Na44  1  0.26295321  0.26283767  0.65121905  1
  Na  Na45  1  0.75580264  0.25160996  0.32096243  1
  Na  Na46  1  0.25001597  0.25335852  -0.00078613  1
  Na  Na47  1  0.74677154  0.74859711  0.00878052  1
  Na  Na48  1  0.26006721  0.76130831  0.33246344  1
  Na  Na49  1  0.23692685  0.22729472  0.35579260  1
  Na  Na50  1  0.26102831  0.76536664  0.65782391  1
  Na  Na51  1  0.74049980  0.24376148  0.67866276  1
  Na  Na52  1  0.75284232  0.75466976  0.83740311  1
  Na  Na53  1  0.25144798  0.75057369  0.16408544  1
  Na  Na54  1  0.76259261  0.75607772  0.48215935  1
  Na  Na55  1  0.71793428  0.24786191  0.85290158  1
  Na  Na56  1  0.28000783  0.26632396  0.82403065  1
  Na  Na57  1  0.23482058  0.24376526  0.18060432  1
  Na  Na58  1  0.25387275  0.75521659  0.82936047  1
  Na  Na59  1  0.75219093  0.24825889  0.14060533  1
  Na  Na60  1  0.26154566  0.76443247  0.49936578  1
  Na  Na61  1  0.75037247  0.24676660  0.50330279  1
  Fe  Fe62  1  0.96543148  0.30286567  0.44742456  1
  Fe  Fe63  1  0.96522897  0.30652095  0.78571109  1
  Fe  Fe64  1  0.46580665  0.81193778  0.78913804  1
  Fe  Fe65  1  0.96388340  0.80734292  0.45087204  1
  Fe  Fe66  1  0.96591052  0.30560653  0.12445290  1
  Fe  Fe67  1  0.45919506  0.30563962  0.11693164  1
  Fe  Fe68  1  0.46876649  0.80422786  0.11869378  1
  Fe  Fe69  1  0.47032086  0.80817380  0.45618407  1
  Fe  Fe70  1  0.96369448  0.81394474  0.79149942  1
  Fe  Fe71  1  0.96417852  0.80792315  0.12218157  1
  Fe  Fe72  1  0.69406581  0.53252678  0.38111864  1
  Fe  Fe73  1  0.69354602  0.53669609  0.05032910  1
  Fe  Fe74  1  0.18458574  0.03605156  0.04307162  1
  Fe  Fe75  1  0.68914576  0.03221298  0.70671089  1
  Fe  Fe76  1  0.19293351  0.53750398  0.71506839  1
  Fe  Fe77  1  0.69351450  0.03435807  0.37912256  1
  Fe  Fe78  1  0.19359068  0.53844055  0.38029414  1
  Fe  Fe79  1  0.69516390  0.53373696  0.71669227  1
  Fe  Fe80  1  0.19584795  0.53677312  0.05014486  1
  Fe  Fe81  1  0.19327140  0.03038439  0.70723752  1
  Fe  Fe82  1  0.03503339  0.19489879  0.88154705  1
  Fe  Fe83  1  0.52599930  0.20467996  0.54238753  1
  Fe  Fe84  1  0.03277533  0.69257908  0.54870578  1
  Fe  Fe85  1  0.53837809  0.69141221  0.54815900  1
  Fe  Fe86  1  0.03959314  0.19184506  0.54900748  1
  Fe  Fe87  1  0.53360888  0.68445987  0.87648544  1
  Fe  Fe88  1  0.53011843  0.18950187  0.21475018  1
  Fe  Fe89  1  0.03497829  0.69301039  0.21552444  1
  Fe  Fe90  1  0.03511051  0.69520812  0.88331849  1
  Fe  Fe91  1  0.54170869  0.68703949  0.21106804  1
  Fe  Fe92  1  0.80763854  0.46487692  0.95556015  1
  Fe  Fe93  1  0.31295288  0.46282952  0.62151804  1
  Fe  Fe94  1  0.31077725  0.46661305  0.95219434  1
  Fe  Fe95  1  0.80992139  0.96389265  0.28551782  1
  Fe  Fe96  1  0.30749410  0.46616460  0.28621554  1
  Fe  Fe97  1  0.80164118  0.46265206  0.27808567  1
  Fe  Fe98  1  0.80887971  0.46424061  0.62080954  1
  Fe  Fe99  1  0.30144638  0.96692695  0.28561314  1
  Fe  Fe100  1  0.80611234  0.96491084  0.61460869  1
  Fe  Fe101  1  0.30737297  0.96889837  0.95575215  1
  S  S102  1  0.35180340  0.14137522  0.08854486  1
  S  S103  1  0.36349270  0.13095578  0.41292462  1
  S  S104  1  0.34840401  0.13923090  0.74150393  1
  S  S105  1  0.36186418  0.64158576  0.08432079  1
  S  S106  1  0.36260902  0.64189461  0.41763589  1
  S  S107  1  0.35835240  0.64304029  0.74672927  1
  S  S108  1  0.86492776  0.14479430  0.07902322  1
  S  S109  1  0.85988261  0.14076325  0.41942503  1
  S  S110  1  0.86230003  0.13825860  0.74770497  1
  S  S111  1  0.86324945  0.63785024  0.08497580  1
  S  S112  1  0.86286640  0.63544008  0.41653686  1
  S  S113  1  0.86116738  0.64041330  0.75021351  1
  S  S114  1  0.13867767  0.36464766  0.25179426  1
  S  S115  1  0.13756842  0.36531111  0.58332284  1
  S  S116  1  0.13830844  0.36404924  0.91616324  1
  S  S117  1  0.14207443  0.85432174  0.24943849  1
  S  S118  1  0.13622422  0.85711247  0.58727602  1
  S  S119  1  0.14201948  0.85847945  0.91603879  1
  S  S120  1  0.63779242  0.35841559  0.25159593  1
  S  S121  1  0.64492522  0.36002128  0.58614531  1
  S  S122  1  0.63786763  0.37157425  0.91642685  1
  S  S123  1  0.63951691  0.86061567  0.24878455  1
  S  S124  1  0.64593334  0.85162070  0.57525988  1
  S  S125  1  0.63807936  0.85165126  0.92080923  1
  S  S126  1  0.06824816  0.17671485  0.04252619  1
  S  S127  1  0.05367431  0.16543996  0.37609279  1
  S  S128  1  0.07314912  0.17441548  0.71509007  1
  S  S129  1  0.06873480  0.67067506  0.04252386  1
  S  S130  1  0.07130394  0.67720750  0.38028463  1
  S  S131  1  0.06350055  0.66654122  0.70997249  1
  S  S132  1  0.55370419  0.16575373  0.05058901  1
  S  S133  1  0.56918358  0.16791367  0.37803062  1
  S  S134  1  0.56916897  0.16844528  0.70074262  1
  S  S135  1  0.57274096  0.67367451  0.04498581  1
  S  S136  1  0.56686521  0.66349447  0.37470531  1
  S  S137  1  0.56983160  0.66622758  0.70702077  1
  S  S138  1  0.32620658  0.43555792  0.12440276  1
  S  S139  1  0.32830535  0.43883086  0.45554955  1
  S  S140  1  0.32682947  0.43677458  0.78597153  1
  S  S141  1  0.33142317  0.93120719  0.12374039  1
  S  S142  1  0.33947662  0.92903436  0.45752501  1
  S  S143  1  0.32390422  0.93143083  0.79133248  1
  S  S144  1  0.82905267  0.42809862  0.12483758  1
  S  S145  1  0.82838730  0.42886926  0.45706934  1
  S  S146  1  0.83898434  0.43623546  0.79452809  1
  S  S147  1  0.84630339  0.93492935  0.13122739  1
  S  S148  1  0.83070043  0.93134590  0.45525160  1
  S  S149  1  0.83090607  0.93580383  0.78598879  1
  S  S150  1  0.43356688  0.33652523  0.29068435  1
  S  S151  1  0.43021091  0.32460095  0.62035350  1
  S  S152  1  0.42235657  0.33152435  0.96214160  1
  S  S153  1  0.43574876  0.82874236  0.28877384  1
  S  S154  1  0.44257195  0.83187498  0.62736831  1
  S  S155  1  0.42824893  0.82671131  0.95656035  1
  S  S156  1  0.92823819  0.33180049  0.28836161  1
  S  S157  1  0.93582416  0.33389415  0.62558823  1
  S  S158  1  0.92766106  0.32540612  0.95531938  1
  S  S159  1  0.93747230  0.83096131  0.29609835  1
  S  S160  1  0.92904212  0.82582814  0.62379264  1
  S  S161  1  0.93880224  0.83375152  0.95954788  1
  S  S162  1  0.16747397  0.06244089  0.20608680  1
  S  S163  1  0.15630918  0.06344018  0.54440410  1
  S  S164  1  0.16738525  0.06706771  0.87304361  1
  S  S165  1  0.17563304  0.57480022  0.21279322  1
  S  S166  1  0.16572508  0.56927852  0.54114203  1
  S  S167  1  0.16884819  0.56901019  0.87594001  1
  S  S168  1  0.66733438  0.06408152  0.21153519  1
  S  S169  1  0.67262966  0.07031826  0.54025863  1
  S  S170  1  0.66000779  0.05682256  0.85616717  1
  S  S171  1  0.67123163  0.56644922  0.21233804  1
  S  S172  1  0.67141291  0.56317367  0.54335924  1
  S  S173  1  0.67765835  0.57342656  0.87865296  1
  O  O174  1  0.35869269  0.22139459  0.08326031  1
  O  O175  1  0.36867214  0.20391925  0.39607003  1
  O  O176  1  0.34763581  0.21868379  0.73725327  1
  O  O177  1  0.36971723  0.72216073  0.07873819  1
  O  O178  1  0.37363530  0.72085411  0.40949086  1
  O  O179  1  0.36948767  0.72210266  0.73853351  1
  O  O180  1  0.87493300  0.22962955  0.07583711  1
  O  O181  1  0.86477461  0.21961207  0.40943505  1
  O  O182  1  0.87370453  0.21634361  0.73718433  1
  O  O183  1  0.87199294  0.71479693  0.07173133  1
  O  O184  1  0.87098613  0.71553255  0.41218671  1
  O  O185  1  0.87145213  0.72007822  0.74417620  1
  O  O186  1  0.27169365  0.12916419  0.09394629  1
  O  O187  1  0.29035270  0.11453604  0.42475636  1
  O  O188  1  0.26582663  0.12252292  0.74894192  1
  O  O189  1  0.28325833  0.63315172  0.09427381  1
  O  O190  1  0.28390180  0.63647896  0.42715557  1
  O  O191  1  0.27890079  0.63689195  0.75492867  1
  O  O192  1  0.78395938  0.13238712  0.07636535  1
  O  O193  1  0.78173890  0.13038640  0.42919267  1
  O  O194  1  0.78117961  0.12955115  0.74856086  1
  O  O195  1  0.78493399  0.62871790  0.09319494  1
  O  O196  1  0.78524917  0.62496192  0.42780601  1
  O  O197  1  0.78140186  0.63180780  0.75619713  1
  O  O198  1  0.13853448  0.29013858  0.26624911  1
  O  O199  1  0.12852092  0.28912000  0.59631511  1
  O  O200  1  0.13078749  0.28610431  0.92594377  1
  O  O201  1  0.13491022  0.77266872  0.25322255  1
  O  O202  1  0.12193731  0.78141128  0.60210975  1
  O  O203  1  0.13462981  0.77910628  0.92426269  1
  O  O204  1  0.62639206  0.28113514  0.26243880  1
  O  O205  1  0.63100737  0.27820187  0.58820259  1
  O  O206  1  0.63095701  0.29310107  0.92239627  1
  O  O207  1  0.62907534  0.78315141  0.25789599  1
  O  O208  1  0.63838919  0.77118021  0.58139042  1
  O  O209  1  0.62413244  0.76988941  0.92337589  1
  O  O210  1  0.21383031  0.37965339  0.23705774  1
  O  O211  1  0.21704909  0.37544832  0.57886559  1
  O  O212  1  0.21536303  0.37507745  0.90621809  1
  O  O213  1  0.21962954  0.86298128  0.23754462  1
  O  O214  1  0.21377111  0.85909036  0.57888716  1
  O  O215  1  0.22179752  0.86861510  0.91002860  1
  O  O216  1  0.71831117  0.36413085  0.24618791  1
  O  O217  1  0.72690505  0.36590097  0.58321796  1
  O  O218  1  0.71774386  0.38118767  0.90402200  1
  O  O219  1  0.71696304  0.87208204  0.24023472  1
  O  O220  1  0.72539061  0.86265865  0.56832311  1
  O  O221  1  0.71420459  0.85919762  0.91088302  1
  O  O222  1  0.40940517  0.13260046  0.15702990  1
  O  O223  1  0.43026505  0.12919562  0.48260904  1
  O  O224  1  0.40342379  0.13114456  0.81020711  1
  O  O225  1  0.42175173  0.63234386  0.15069018  1
  O  O226  1  0.42137619  0.63286573  0.48530798  1
  O  O227  1  0.41625693  0.63565227  0.81534077  1
  O  O228  1  0.92064392  0.13956722  0.14894775  1
  O  O229  1  0.91945077  0.13726663  0.48915750  1
  O  O230  1  0.91809353  0.13248302  0.81808532  1
  O  O231  1  0.92225814  0.63567801  0.15529931  1
  O  O232  1  0.92334977  0.62513190  0.48342923  1
  O  O233  1  0.91916697  0.63000042  0.81781413  1
  O  O234  1  0.36033519  0.08457123  0.01958114  1
  O  O235  1  0.37939544  0.06674874  0.34983571  1
  O  O236  1  0.35848111  0.08255640  0.67401596  1
  O  O237  1  0.36541253  0.58523647  0.01377948  1
  O  O238  1  0.36955307  0.58266219  0.34949747  1
  O  O239  1  0.36458649  0.58371891  0.67860903  1
  O  O240  1  0.88447943  0.09310232  0.01399633  1
  O  O241  1  0.86885461  0.08086097  0.35312220  1
  O  O242  1  0.87614045  0.07753942  0.68259321  1
  O  O243  1  0.87352704  0.57685169  0.01897698  1
  O  O244  1  0.86977258  0.57746270  0.34775967  1
  O  O245  1  0.86989321  0.58198057  0.68178712  1
  O  O246  1  0.07577691  0.36531471  0.18114884  1
  O  O247  1  0.07966695  0.37118934  0.51307243  1
  O  O248  1  0.07685261  0.37130367  0.84876418  1
  O  O249  1  0.08196536  0.86256811  0.18155702  1
  O  O250  1  0.07669397  0.86460079  0.51986649  1
  O  O251  1  0.08412701  0.86366108  0.84624666  1
  O  O252  1  0.58031296  0.36880540  0.18454036  1
  O  O253  1  0.59004923  0.37493084  0.52140766  1
  O  O254  1  0.57865407  0.38770786  0.85626899  1
  O  O255  1  0.57890123  0.87022339  0.18112989  1
  O  O256  1  0.58862140  0.85685191  0.50492344  1
  O  O257  1  0.57697550  0.86326214  0.85382056  1
  O  O258  1  0.12795440  0.42785269  0.31628590  1
  O  O259  1  0.12353708  0.42712602  0.64781916  1
  O  O260  1  0.12898060  0.42417598  0.98395093  1
  O  O261  1  0.13568543  0.91053836  0.31763716  1
  O  O262  1  0.13056644  0.91938241  0.65606093  1
  O  O263  1  0.13216483  0.91680348  0.98303845  1
  O  O264  1  0.63083444  0.41959493  0.32006582  1
  O  O265  1  0.63893222  0.41562451  0.65745683  1
  O  O266  1  0.64092751  0.42867287  0.99144511  1
  O  O267  1  0.62916284  0.92068655  0.31612327  1
  O  O268  1  0.63582138  0.90858782  0.64181107  1
  O  O269  1  0.63016989  0.90711817  0.98985954  1
  O  O270  1  0.03332370  0.21103812  0.10201779  1
  O  O271  1  0.02878067  0.20850115  0.44611952  1
  O  O272  1  0.03391003  0.20109218  0.77521204  1
  O  O273  1  0.03312192  0.69965550  0.10338509  1
  O  O274  1  0.03355559  0.70416803  0.44090633  1
  O  O275  1  0.02851787  0.69689184  0.77147692  1
  O  O276  1  0.51951886  0.20568825  0.11418030  1
  O  O277  1  0.53948683  0.19816332  0.44211304  1
  O  O278  1  0.52861668  0.17851003  0.75461783  1
  O  O279  1  0.53278594  0.70327661  0.10480212  1
  O  O280  1  0.52999053  0.69375027  0.43509970  1
  O  O281  1  0.53310836  0.69437586  0.76732778  1
  O  O282  1  0.29808083  0.47297064  0.06363663  1
  O  O283  1  0.29413334  0.47656961  0.39445276  1
  O  O284  1  0.29136739  0.47815482  0.72714925  1
  O  O285  1  0.30106643  0.96624286  0.06228674  1
  O  O286  1  0.31471986  0.94084965  0.38349960  1
  O  O287  1  0.29041519  0.96834251  0.73265878  1
  O  O288  1  0.80418401  0.46538121  0.06453579  1
  O  O289  1  0.79954306  0.46524887  0.39661807  1
  O  O290  1  0.80866606  0.47329720  0.73371439  1
  O  O291  1  0.83425473  0.97096425  0.07325550  1
  O  O292  1  0.79946256  0.96763846  0.39438857  1
  O  O293  1  0.79753749  0.96363796  0.71860198  1
  O  O294  1  0.46534445  0.30209548  0.22651334  1
  O  O295  1  0.46924304  0.29801900  0.55860044  1
  O  O296  1  0.44656807  0.30407439  0.89680631  1
  O  O297  1  0.47119641  0.79483270  0.22794099  1
  O  O298  1  0.47963061  0.79750389  0.56624521  1
  O  O299  1  0.46040469  0.79699662  0.89329718  1
  O  O300  1  0.96513164  0.31154440  0.22875107  1
  O  O301  1  0.96990829  0.30440223  0.56376492  1
  O  O302  1  0.97046674  0.30016911  0.89801978  1
  O  O303  1  0.97262992  0.79973372  0.23372421  1
  O  O304  1  0.96281103  0.79525563  0.56123767  1
  O  O305  1  0.97493520  0.79756347  0.89716239  1
  O  O306  1  0.20068802  0.02414614  0.26402629  1
  O  O307  1  0.18061796  0.02550060  0.60479569  1
  O  O308  1  0.19418167  0.02790186  0.93254794  1
  O  O309  1  0.20732948  0.53943210  0.27426018  1
  O  O310  1  0.19639726  0.53535414  0.60293682  1
  O  O311  1  0.20052923  0.53602107  0.93873991  1
  O  O312  1  0.70519658  0.03533160  0.27795193  1
  O  O313  1  0.69953498  0.02978998  0.59855106  1
  O  O314  1  0.70389533  0.02836491  0.91664950  1
  O  O315  1  0.70083558  0.52718250  0.27304880  1
  O  O316  1  0.70096105  0.52658809  0.60453102  1
  O  O317  1  0.70951375  0.54233924  0.94257298  1
  O  O318  1  0.08366449  0.09466653  0.04035208  1
  O  O319  1  0.06599740  0.08602923  0.37956795  1
  O  O320  1  0.09204614  0.09277420  0.71070798  1
  O  O321  1  0.08921870  0.58977407  0.03704132  1
  O  O322  1  0.09189346  0.59662845  0.37661076  1
  O  O323  1  0.07955700  0.58351182  0.70424675  1
  O  O324  1  0.57025056  0.08860231  0.05891501  1
  O  O325  1  0.58171548  0.08351391  0.36750752  1
  O  O326  1  0.59035377  0.08580084  0.67780204  1
  O  O327  1  0.59455817  0.59598592  0.04599395  1
  O  O328  1  0.58162742  0.58021207  0.36904896  1
  O  O329  1  0.58912085  0.58475953  0.69963187  1
  O  O330  1  0.40653317  0.41449264  0.13074469  1
  O  O331  1  0.41123000  0.43314383  0.46242754  1
  O  O332  1  0.40335107  0.42001582  0.78417625  1
  O  O333  1  0.41354171  0.91308847  0.12867610  1
  O  O334  1  0.42558614  0.91427896  0.47469900  1
  O  O335  1  0.40316352  0.91164923  0.78917500  1
  O  O336  1  0.90756755  0.40133555  0.12769624  1
  O  O337  1  0.90996938  0.40968143  0.46300634  1
  O  O338  1  0.92291195  0.42218988  0.80025294  1
  O  O339  1  0.93182816  0.91851047  0.15439281  1
  O  O340  1  0.91145805  0.91316726  0.45813170  1
  O  O341  1  0.91341923  0.91734307  0.78940302  1
  O  O342  1  0.41551767  0.41881979  0.29106027  1
  O  O343  1  0.40742391  0.40437832  0.61649671  1
  O  O344  1  0.40583290  0.41526692  0.97769430  1
  O  O345  1  0.42114676  0.91051354  0.29161040  1
  O  O346  1  0.43104311  0.91320782  0.63395053  1
  O  O347  1  0.40875319  0.90799739  0.96366649  1
  O  O348  1  0.90582953  0.41341518  0.30037253  1
  O  O349  1  0.92007118  0.41747302  0.63219989  1
  O  O350  1  0.91231296  0.40771394  0.96148576  1
  O  O351  1  0.91818475  0.91225862  0.30003109  1
  O  O352  1  0.91152696  0.90733578  0.62951759  1
  O  O353  1  0.92994991  0.91489374  0.96367244  1
  O  O354  1  0.08497896  0.07082151  0.19903050  1
  O  O355  1  0.07385282  0.08333118  0.53848165  1
  O  O356  1  0.08455999  0.08331922  0.86451984  1
  O  O357  1  0.09739844  0.59653577  0.21214784  1
  O  O358  1  0.08219011  0.58402535  0.53574540  1
  O  O359  1  0.08720196  0.58766961  0.87249291  1
  O  O360  1  0.58661293  0.08307309  0.21406626  1
  O  O361  1  0.59253545  0.09291321  0.53241170  1
  O  O362  1  0.57893087  0.06531075  0.85678223  1
  O  O363  1  0.58873017  0.58135499  0.20969043  1
  O  O364  1  0.58951855  0.58101064  0.53716544  1
  O  O365  1  0.59674853  0.59017321  0.87173106  1
  O  O366  1  0.14084418  0.22550929  0.05539078  1
  O  O367  1  0.12608488  0.21134425  0.38530121  1
  O  O368  1  0.14270801  0.22860715  0.73372727  1
  O  O369  1  0.13874205  0.72355244  0.05617598  1
  O  O370  1  0.14181775  0.73051673  0.39731383  1
  O  O371  1  0.13554918  0.71638323  0.72526272  1
  O  O372  1  0.62581261  0.21488745  0.06452241  1
  O  O373  1  0.64259599  0.21540464  0.39134246  1
  O  O374  1  0.64000314  0.22558530  0.72530666  1
  O  O375  1  0.64035174  0.72929988  0.06058751  1
  O  O376  1  0.63943222  0.71278181  0.39126582  1
  O  O377  1  0.64061936  0.71976270  0.72306192  1
  O  O378  1  0.27094211  0.36680801  0.10773302  1
  O  O379  1  0.28101960  0.36429653  0.43573874  1
  O  O380  1  0.26998364  0.36711789  0.76693285  1
  O  O381  1  0.27972939  0.85920576  0.10739225  1
  O  O382  1  0.29108351  0.85853521  0.45154598  1
  O  O383  1  0.27267526  0.85920648  0.77689336  1
  O  O384  1  0.77138613  0.36385020  0.11331198  1
  O  O385  1  0.77551868  0.35848548  0.44190326  1
  O  O386  1  0.79094822  0.36320708  0.77739251  1
  O  O387  1  0.79524601  0.86135260  0.10972449  1
  O  O388  1  0.77869227  0.86140297  0.44105960  1
  O  O389  1  0.78220660  0.86352185  0.77452506  1
  O  O390  1  0.36141766  0.28795755  0.27798533  1
  O  O391  1  0.35962602  0.27076427  0.59947340  1
  O  O392  1  0.35026324  0.28241018  0.95441758  1
  O  O393  1  0.36286544  0.77890984  0.27338094  1
  O  O394  1  0.36837401  0.78127541  0.60760396  1
  O  O395  1  0.35869003  0.77316990  0.94344193  1
  O  O396  1  0.85905280  0.27612675  0.27017221  1
  O  O397  1  0.86425132  0.28395801  0.61170365  1
  O  O398  1  0.85582053  0.27345344  0.93244479  1
  O  O399  1  0.86993175  0.77910856  0.28567721  1
  O  O400  1  0.85794485  0.77330809  0.60821196  1
  O  O401  1  0.86540919  0.78413443  0.94168533  1
  O  O402  1  0.21566353  0.13802473  0.22623847  1
  O  O403  1  0.20749116  0.13597829  0.56491347  1
  O  O404  1  0.21957014  0.13835341  0.89253032  1
  O  O405  1  0.23080837  0.64323280  0.22577753  1
  O  O406  1  0.21477709  0.64196270  0.55524206  1
  O  O407  1  0.22006210  0.63909190  0.88756817  1
  O  O408  1  0.71625486  0.13444183  0.22033097  1
  O  O409  1  0.72948383  0.13966152  0.56052061  1
  O  O410  1  0.70100339  0.12945523  0.85809078  1
  O  O411  1  0.72062556  0.63865609  0.23157488  1
  O  O412  1  0.72417918  0.63371493  0.55998368  1
  O  O413  1  0.72960266  0.64457922  0.89167770  1
  O  O414  1  0.48554725  0.32964481  0.03261002  1
  O  O415  1  0.49496455  0.34449185  0.36164357  1
  O  O416  1  0.48757692  0.33274768  0.69204394  1
  O  O417  1  0.49062908  0.83112011  0.02827841  1
  O  O418  1  0.49351744  0.83072225  0.36193106  1
  O  O419  1  0.49817954  0.82698385  0.69926400  1
  O  O420  1  0.98384065  0.32508477  0.02906958  1
  O  O421  1  0.98921454  0.33453669  0.36065621  1
  O  O422  1  0.99530042  0.33678849  0.69838847  1
  O  O423  1  0.99527668  0.82992377  0.03152191  1
  O  O424  1  1.00113679  0.83880635  0.36891909  1
  O  O425  1  0.98937021  0.82718925  0.69557018  1
  O  O426  1  0.17150038  0.00804201  0.13201997  1
  O  O427  1  0.15444086  0.00536879  0.47385076  1
  O  O428  1  0.16706720  0.00884413  0.79975613  1
  O  O429  1  0.16952875  0.51390413  0.13961168  1
  O  O430  1  0.16160540  0.51015380  0.46788410  1
  O  O431  1  0.16235635  0.50793971  0.80311212  1
  O  O432  1  0.65898847  -0.00044745  0.14275794  1
  O  O433  1  0.67076989  0.01027661  0.46784943  1
  O  O434  1  0.65514443  -0.00406408  0.78081108  1
  O  O435  1  0.66984084  0.50782772  0.14093166  1
  O  O436  1  0.66862655  0.50378991  0.47059990  1
  O  O437  1  0.67830421  0.51196678  0.80794150  1
  O  O438  1  -0.01019335  0.16411556  0.30943706  1
  O  O439  1  0.01344134  0.17382410  0.64372978  1
  O  O440  1  0.01001893  0.16854099  0.96689214  1
  O  O441  1  0.01152318  0.67375778  0.30840292  1
  O  O442  1  0.00412600  0.66353929  0.63730470  1
  O  O443  1  0.00795171  0.66614526  0.96966902  1
  O  O444  1  0.50842696  0.17136944  0.30825462  1
  O  O445  1  0.51389344  0.17453293  0.62673282  1
  O  O446  1  0.49551773  0.15853212  0.97880028  1
  O  O447  1  0.50906414  0.66277079  0.30181053  1
  O  O448  1  0.51037763  0.66454977  0.63441629  1
  O  O449  1  0.51190258  0.66717404  0.97163768  1
  O  O450  1  0.32976076  0.49639450  0.19666218  1
  O  O451  1  0.32315052  0.49476417  0.52763027  1
  O  O452  1  0.32608024  0.49326729  0.86000403  1
  O  O453  1  0.33439653  0.98984598  0.19629074  1
  O  O454  1  0.33613700  0.99736507  0.51842025  1
  O  O455  1  0.33097728  0.98901085  0.86636505  1
  O  O456  1  0.83760160  0.49193557  0.19730298  1
  O  O457  1  0.83230416  0.48904833  0.53032066  1
  O  O458  1  0.84168406  0.49469933  0.86754172  1
  O  O459  1  0.83506121  0.99124591  0.20102213  1
  O  O460  1  0.83462749  0.99162987  0.52841230  1
  O  O461  1  0.83520030  0.99908359  0.85385317  1
