# generated using pymatgen
data_Na31Fe20(SO4)36
_symmetry_space_group_name_H-M   'P 1'
_cell_length_a   18.07119861
_cell_length_b   18.07345244
_cell_length_c   19.70342788
_cell_angle_alpha   107.56880562
_cell_angle_beta   107.57820961
_cell_angle_gamma   90.69002313
_symmetry_Int_Tables_number   1
_chemical_formula_structural   Na31Fe20(SO4)36
_chemical_formula_sum   'Na62 Fe40 S72 O288'
_cell_volume   5810.83323707
_cell_formula_units_Z   2
loop_
 _symmetry_equiv_pos_site_id
 _symmetry_equiv_pos_as_xyz
  1  'x, y, z'
loop_
 _atom_site_type_symbol
 _atom_site_label
 _atom_site_symmetry_multiplicity
 _atom_site_fract_x
 _atom_site_fract_y
 _atom_site_fract_z
 _atom_site_occupancy
  Na  Na0  1  0.13442430  0.37521820  0.09924164  1
  Na  Na1  1  0.14745500  0.34826500  0.40870257  1
  Na  Na2  1  0.13645959  0.36830455  0.75235923  1
  Na  Na3  1  0.13275926  0.87497348  0.08920540  1
  Na  Na4  1  0.14260931  0.84479725  0.40182442  1
  Na  Na5  1  0.12819424  0.85339362  0.73433324  1
  Na  Na6  1  0.63300491  0.37050915  0.08519486  1
  Na  Na7  1  0.63472027  0.35966694  0.41481934  1
  Na  Na8  1  0.63369338  0.36607554  0.74808697  1
  Na  Na9  1  0.64785130  0.87482353  0.09489576  1
  Na  Na10  1  0.63055655  0.86303020  0.41180943  1
  Na  Na11  1  0.63499164  0.86447627  0.74909882  1
  Na  Na12  1  0.36687954  0.17564334  0.27915005  1
  Na  Na13  1  0.35579358  0.14057762  0.57038452  1
  Na  Na14  1  0.37070263  0.14166099  0.92804436  1
  Na  Na15  1  0.36267471  0.62344749  0.25532772  1
  Na  Na16  1  0.34991468  0.64027710  0.57194756  1
  Na  Na17  1  0.36886549  0.63567883  0.92050382  1
  Na  Na18  1  0.85541041  0.11419443  0.23750173  1
  Na  Na19  1  0.87031835  0.12397421  0.58292030  1
  Na  Na20  1  0.86925036  0.13610977  0.92411499  1
  Na  Na21  1  0.87220074  0.62318126  0.24050792  1
  Na  Na22  1  0.86734517  0.63614021  0.57930727  1
  Na  Na23  1  0.87056919  0.62988434  0.91691364  1
  Na  Na24  1  0.96778093  -0.00171219  0.42359528  1
  Na  Na25  1  1.00706737  0.00825225  0.73601632  1
  Na  Na26  1  0.99154150  0.50356532  0.76445260  1
  Na  Na27  1  0.49760544  0.45353971  0.20622157  1
  Na  Na28  1  0.99852806  0.53451466  0.40781261  1
  Na  Na29  1  0.48212804  0.01392523  0.75030359  1
  Na  Na30  1  0.48961229  0.02516531  0.41225884  1
  Na  Na31  1  0.49775841  0.01416531  0.07661685  1
  Na  Na32  1  0.48566296  0.51176246  0.73749196  1
  Na  Na33  1  0.50563530  0.99118314  0.57774808  1
  Na  Na34  1  0.53576125  0.48419395  0.96148808  1
  Na  Na35  1  0.00064726  0.51035996  0.57851485  1
  Na  Na36  1  0.51741768  0.99321721  0.24385328  1
  Na  Na37  1  -0.00591564  0.98778804  0.25127460  1
  Na  Na38  1  0.54610137  0.98733569  0.92275414  1
  Na  Na39  1  -0.00380196  0.99120920  0.94037324  1
  Na  Na40  1  -0.00675362  0.53830700  1.09284781  1
  Na  Na41  1  0.48997540  0.47761497  0.42480417  1
  Na  Na42  1  0.76195578  0.75519111  0.32568972  1
  Na  Na43  1  0.74218183  0.73567153  0.00408948  1
  Na  Na44  1  0.25119288  0.75909049  0.64869297  1
  Na  Na45  1  0.26535607  0.26696547  0.00023338  1
  Na  Na46  1  0.25947705  0.26310586  0.65331400  1
  Na  Na47  1  0.74300181  0.23683267  0.00667187  1
  Na  Na48  1  0.74897831  0.24961048  0.66524662  1
  Na  Na49  1  0.74956989  0.75017349  0.66381605  1
  Na  Na50  1  0.24325842  0.74760925  0.00797395  1
  Na  Na51  1  0.75258660  0.24379740  0.33336264  1
  Na  Na52  1  0.75163094  0.74778130  0.16639928  1
  Na  Na53  1  0.23120403  0.74150955  0.19527780  1
  Na  Na54  1  0.25931261  0.26005873  0.82924158  1
  Na  Na55  1  0.75497379  0.75272659  0.49238718  1
  Na  Na56  1  0.24720756  0.74991140  0.82996511  1
  Na  Na57  1  0.74384194  0.73964147  0.83713201  1
  Na  Na58  1  0.26427786  0.27362079  0.17196599  1
  Na  Na59  1  0.74541333  0.24158197  0.83746184  1
  Na  Na60  1  0.74326379  0.23393351  0.16728273  1
  Na  Na61  1  0.75359596  0.24877838  0.50044043  1
  Fe  Fe62  1  0.96218709  0.30553763  0.12130669  1
  Fe  Fe63  1  0.97171040  0.79719416  0.12884692  1
  Fe  Fe64  1  0.46433655  0.31108669  0.78513584  1
  Fe  Fe65  1  0.46320736  0.80795813  0.78163150  1
  Fe  Fe66  1  0.96391028  0.31118911  0.79111234  1
  Fe  Fe67  1  0.96718405  0.30419764  0.45311202  1
  Fe  Fe68  1  0.97716183  0.79216853  0.45523797  1
  Fe  Fe69  1  0.96531074  0.80420656  0.78555727  1
  Fe  Fe70  1  0.46303878  0.80901078  0.11744119  1
  Fe  Fe71  1  0.45480773  0.80434811  0.44321992  1
  Fe  Fe72  1  0.69189247  0.03447569  0.71091344  1
  Fe  Fe73  1  0.19460081  0.53262650  0.71041187  1
  Fe  Fe74  1  0.68666845  0.53467763  0.70796424  1
  Fe  Fe75  1  0.68931152  0.53553821  0.37520583  1
  Fe  Fe76  1  0.19194163  0.53563328  0.05345842  1
  Fe  Fe77  1  0.19524305  0.03770494  0.05265842  1
  Fe  Fe78  1  0.19132646  0.04403931  0.38143577  1
  Fe  Fe79  1  0.19530403  0.53300289  0.37436626  1
  Fe  Fe80  1  0.19274047  0.03728484  0.71261693  1
  Fe  Fe81  1  0.70150079  0.02702263  0.37596246  1
  Fe  Fe82  1  0.52914271  0.68984846  0.54060771  1
  Fe  Fe83  1  0.52886664  0.20598104  0.54103472  1
  Fe  Fe84  1  0.03445282  0.19171348  0.21840978  1
  Fe  Fe85  1  0.03767357  0.69437868  0.88152709  1
  Fe  Fe86  1  0.53367347  0.19487952  0.88216351  1
  Fe  Fe87  1  0.03615709  0.19745722  0.88603698  1
  Fe  Fe88  1  0.03637828  0.18915901  0.54844741  1
  Fe  Fe89  1  0.53393213  0.68524959  0.20878218  1
  Fe  Fe90  1  0.53152419  0.20187831  0.20855057  1
  Fe  Fe91  1  0.53242094  0.69237191  0.88003654  1
  Fe  Fe92  1  0.80337881  0.96297662  0.95854918  1
  Fe  Fe93  1  0.80565160  0.46463283  0.61806393  1
  Fe  Fe94  1  0.80656732  0.96124426  0.62003847  1
  Fe  Fe95  1  0.30050659  0.45201844  0.59207744  1
  Fe  Fe96  1  0.30694351  0.97231486  0.28318982  1
  Fe  Fe97  1  0.31326066  0.46613004  0.95816779  1
  Fe  Fe98  1  0.79977925  0.46762628  0.95543547  1
  Fe  Fe99  1  0.30699996  0.96834477  0.95185917  1
  Fe  Fe100  1  0.30228036  0.96632838  0.60784104  1
  Fe  Fe101  1  0.80645215  0.46386771  0.28241266  1
  S  S102  1  0.36062154  0.14072219  0.08476549  1
  S  S103  1  0.36163634  0.14141664  0.41717565  1
  S  S104  1  0.35910749  0.14052140  0.74825430  1
  S  S105  1  0.35734603  0.64487137  0.08403007  1
  S  S106  1  0.35719049  0.64134762  0.41638210  1
  S  S107  1  0.35804882  0.64245313  0.74757067  1
  S  S108  1  0.86427243  0.13454670  0.08143097  1
  S  S109  1  0.86197292  0.13906149  0.42099190  1
  S  S110  1  0.86186449  0.13904204  0.75148694  1
  S  S111  1  0.85848899  0.63970928  0.07686676  1
  S  S112  1  0.86047302  0.63601569  0.41542519  1
  S  S113  1  0.85870807  0.63775092  0.74853625  1
  S  S114  1  0.13142108  0.36065021  0.25248867  1
  S  S115  1  0.13799591  0.35719898  0.58725034  1
  S  S116  1  0.13913061  0.36243800  0.91681418  1
  S  S117  1  0.14068483  0.87072321  0.24965617  1
  S  S118  1  0.13725407  0.86643842  0.58733861  1
  S  S119  1  0.13959179  0.86370360  0.91429507  1
  S  S120  1  0.64852297  0.35771422  0.25143465  1
  S  S121  1  0.64273545  0.36103192  0.58116416  1
  S  S122  1  0.64238821  0.35289484  0.91301982  1
  S  S123  1  0.63639028  0.85717742  0.24898516  1
  S  S124  1  0.63477644  0.85850982  0.58013339  1
  S  S125  1  0.64025413  0.85324521  0.91299612  1
  S  S126  1  0.07225429  0.17186219  0.04504738  1
  S  S127  1  0.06114365  0.16318661  0.37515219  1
  S  S128  1  0.06835391  0.17514025  0.71516747  1
  S  S129  1  0.07229739  0.67647567  0.04284701  1
  S  S130  1  0.06787237  0.66326692  0.37291498  1
  S  S131  1  0.06352623  0.66390068  0.70965267  1
  S  S132  1  0.56467340  0.16695725  0.04135937  1
  S  S133  1  0.57270009  0.16670333  0.37296789  1
  S  S134  1  0.56559319  0.16911650  0.70471332  1
  S  S135  1  0.56673652  0.67692419  0.04477609  1
  S  S136  1  0.56629601  0.67220551  0.37594334  1
  S  S137  1  0.56487947  0.67244941  0.70759894  1
  S  S138  1  0.32502433  0.43333533  0.11574004  1
  S  S139  1  0.33041324  0.44172081  0.46108619  1
  S  S140  1  0.33118681  0.43694947  0.79342820  1
  S  S141  1  0.33239693  0.93633577  0.12316414  1
  S  S142  1  0.33332898  0.93709605  0.45812070  1
  S  S143  1  0.33256068  0.93664144  0.79126956  1
  S  S144  1  0.82718330  0.42628905  0.11929753  1
  S  S145  1  0.83278167  0.43168852  0.45816527  1
  S  S146  1  0.82665443  0.43238589  0.78897401  1
  S  S147  1  0.83465748  0.91764665  0.12362752  1
  S  S148  1  0.82999932  0.92327972  0.45750454  1
  S  S149  1  0.82911215  0.93031806  0.79183974  1
  S  S150  1  0.45037244  0.34034027  0.29036089  1
  S  S151  1  0.43280309  0.33196566  0.62711000  1
  S  S152  1  0.43792239  0.33192967  0.95512855  1
  S  S153  1  0.43025574  0.83832827  0.28934422  1
  S  S154  1  0.43216317  0.83803536  0.62438489  1
  S  S155  1  0.43300250  0.83329879  0.95563788  1
  S  S156  1  0.92616602  0.32294119  0.29276927  1
  S  S157  1  0.93328670  0.33220217  0.62752944  1
  S  S158  1  0.92948446  0.32945935  0.95790562  1
  S  S159  1  0.93782109  0.82478449  0.29222770  1
  S  S160  1  0.92856940  0.82791209  0.62362702  1
  S  S161  1  0.93132592  0.82404719  0.95626831  1
  S  S162  1  0.17217706  0.07644386  0.21178444  1
  S  S163  1  0.16937173  0.06959821  0.54199404  1
  S  S164  1  0.17152711  0.07167521  0.87728085  1
  S  S165  1  0.16772505  0.57089464  0.21142179  1
  S  S166  1  0.16868547  0.55940835  0.54219253  1
  S  S167  1  0.17370832  0.56934154  0.87643946  1
  S  S168  1  0.66165422  0.06890267  0.20566377  1
  S  S169  1  0.67188177  0.06576754  0.54148136  1
  S  S170  1  0.66910988  0.06335296  0.87163485  1
  S  S171  1  0.66957010  0.56433883  0.20803659  1
  S  S172  1  0.67051740  0.56878814  0.54039152  1
  S  S173  1  0.66502840  0.56326080  0.86977930  1
  O  O174  1  0.36447493  0.21399307  0.06899729  1
  O  O175  1  0.36821037  0.21608855  0.40631594  1
  O  O176  1  0.36724654  0.22038722  0.74233552  1
  O  O177  1  0.36739988  0.72216082  0.07140298  1
  O  O178  1  0.36264804  0.72054580  0.40726036  1
  O  O179  1  0.36652737  0.72266185  0.74038544  1
  O  O180  1  0.87564910  0.21095681  0.06662824  1
  O  O181  1  0.86786018  0.22256596  0.42205783  1
  O  O182  1  0.86908935  0.21711679  0.74119029  1
  O  O183  1  0.88055796  0.71764037  0.06729700  1
  O  O184  1  0.87306258  0.71730947  0.41153189  1
  O  O185  1  0.86854480  0.71747884  0.74208523  1
  O  O186  1  0.28408428  0.12758493  0.09614265  1
  O  O187  1  0.28696413  0.12547826  0.43109347  1
  O  O188  1  0.28116588  0.13151703  0.75871445  1
  O  O189  1  0.27730282  0.63781842  0.08968026  1
  O  O190  1  0.27873321  0.62739729  0.42536943  1
  O  O191  1  0.27806182  0.63290478  0.75360779  1
  O  O192  1  0.78724876  0.12873272  0.09035669  1
  O  O193  1  0.78414894  0.12664235  0.43134857  1
  O  O194  1  0.78152235  0.12853183  0.75693116  1
  O  O195  1  0.77806751  0.64215816  0.07808341  1
  O  O196  1  0.77934068  0.63024452  0.42110460  1
  O  O197  1  0.77905320  0.62932183  0.75535393  1
  O  O198  1  0.11640422  0.28619153  0.26800409  1
  O  O199  1  0.12428572  0.28085311  0.59985346  1
  O  O200  1  0.13141624  0.28256297  0.92430599  1
  O  O201  1  0.14320516  0.79679530  0.26413109  1
  O  O202  1  0.12980212  0.79474977  0.60560549  1
  O  O203  1  0.13448999  0.78516680  0.92406420  1
  O  O204  1  0.63580301  0.27588515  0.25581192  1
  O  O205  1  0.63257690  0.28081028  0.58860047  1
  O  O206  1  0.63563172  0.26960296  0.91389620  1
  O  O207  1  0.62152624  0.77929537  0.25842877  1
  O  O208  1  0.62493673  0.78089903  0.59082758  1
  O  O209  1  0.63277207  0.77039720  0.91360259  1
  O  O210  1  0.20485115  0.36332973  0.23717558  1
  O  O211  1  0.22009959  0.36197667  0.58830016  1
  O  O212  1  0.21798146  0.37095114  0.90740794  1
  O  O213  1  0.21272460  0.88730253  0.23081966  1
  O  O214  1  0.21716532  0.87781751  0.58151575  1
  O  O215  1  0.21801877  0.87474273  0.90534219  1
  O  O216  1  0.72979531  0.36168895  0.24686411  1
  O  O217  1  0.72628412  0.36714516  0.57950355  1
  O  O218  1  0.72094285  0.36449308  0.90449884  1
  O  O219  1  0.71258189  0.86181039  0.23873722  1
  O  O220  1  0.71464844  0.86599875  0.57349339  1
  O  O221  1  0.71731775  0.86395994  0.90135643  1
  O  O222  1  0.42285582  0.13813851  0.15484044  1
  O  O223  1  0.42525466  0.13252278  0.48438508  1
  O  O224  1  0.41992006  0.12997566  0.81459873  1
  O  O225  1  0.41475045  0.64159066  0.15474705  1
  O  O226  1  0.41590526  0.64338947  0.49048499  1
  O  O227  1  0.41552579  0.63775935  0.81876614  1
  O  O228  1  0.92532360  0.12928831  0.14954919  1
  O  O229  1  0.92226191  0.12874356  0.48871650  1
  O  O230  1  0.91957025  0.13371636  0.82136218  1
  O  O231  1  0.91321009  0.62738569  0.14285595  1
  O  O232  1  0.91699159  0.62237175  0.48005834  1
  O  O233  1  0.91765484  0.62749750  0.81555137  1
  O  O234  1  0.37262315  0.07586462  0.02078677  1
  O  O235  1  0.37193641  0.07813155  0.35058709  1
  O  O236  1  0.36600418  0.08232450  0.67921265  1
  O  O237  1  0.36772390  0.58424584  0.01823916  1
  O  O238  1  0.37203736  0.58154351  0.35547108  1
  O  O239  1  0.37034133  0.58357619  0.68293831  1
  O  O240  1  0.87152096  0.07267082  0.01375506  1
  O  O241  1  0.87012991  0.08552849  0.35257384  1
  O  O242  1  0.87254568  0.07835328  0.68552584  1
  O  O243  1  0.86565547  0.57880008  0.00801105  1
  O  O244  1  0.86573610  0.57920023  0.34448902  1
  O  O245  1  0.86650948  0.57955576  0.67981854  1
  O  O246  1  0.06752443  0.36789271  0.18631887  1
  O  O247  1  0.08439771  0.36107932  0.51491581  1
  O  O248  1  0.08012178  0.36849171  0.84752052  1
  O  O249  1  0.07345167  0.87056488  0.18080965  1
  O  O250  1  0.07905691  0.86623341  0.51489626  1
  O  O251  1  0.07946954  0.86860085  0.84529708  1
  O  O252  1  0.59337579  0.37049203  0.18620484  1
  O  O253  1  0.58919649  0.37105553  0.51436538  1
  O  O254  1  0.58332137  0.36206300  0.84519523  1
  O  O255  1  0.57499452  0.87044158  0.18385799  1
  O  O256  1  0.57613277  0.86666926  0.51215374  1
  O  O257  1  0.57933134  0.86424153  0.84591667  1
  O  O258  1  0.12886768  0.42447924  0.32131544  1
  O  O259  1  0.12476564  0.42005792  0.65078569  1
  O  O260  1  0.12985407  0.42046342  0.98373424  1
  O  O261  1  0.13022166  0.93435844  0.31393917  1
  O  O262  1  0.12503740  0.93254234  0.65032312  1
  O  O263  1  0.12924693  0.92335810  0.98117036  1
  O  O264  1  0.64413838  0.41403013  0.32266536  1
  O  O265  1  0.63652974  0.41786658  0.65143612  1
  O  O266  1  0.63361660  0.40629842  0.98130194  1
  O  O267  1  0.63105437  0.91771400  0.31849137  1
  O  O268  1  0.62756273  0.92014456  0.64754903  1
  O  O269  1  0.63273769  0.90769384  0.98151656  1
  O  O270  1  0.03790870  0.20076302  0.10690703  1
  O  O271  1  0.02669068  0.19705121  0.43808388  1
  O  O272  1  0.02934497  0.20409533  0.77453734  1
  O  O273  1  0.03596016  0.70703084  0.10295753  1
  O  O274  1  0.03808833  0.69752213  0.44001096  1
  O  O275  1  0.03086431  0.69840382  0.77450616  1
  O  O276  1  0.53346532  0.20044621  0.10484742  1
  O  O277  1  0.53709871  0.19231633  0.43294951  1
  O  O278  1  0.52879839  0.19689982  0.76525530  1
  O  O279  1  0.52735943  0.70821690  0.10449183  1
  O  O280  1  0.52765543  0.70373407  0.43574446  1
  O  O281  1  0.52677897  0.70188953  0.76776073  1
  O  O282  1  0.28781931  0.47206328  0.05427419  1
  O  O283  1  0.28525995  0.46873339  0.39719666  1
  O  O284  1  0.30016727  0.47363036  0.73375652  1
  O  O285  1  0.29664848  0.96700939  0.05863932  1
  O  O286  1  0.29929934  0.96518359  0.39254473  1
  O  O287  1  0.30305391  0.97189587  0.72982356  1
  O  O288  1  0.80290900  0.46439814  0.06084088  1
  O  O289  1  0.80502785  0.46812935  0.39789961  1
  O  O290  1  0.79826137  0.47103485  0.72935294  1
  O  O291  1  0.81281986  0.94386839  0.05686604  1
  O  O292  1  0.80311038  0.96370882  0.40077978  1
  O  O293  1  0.79929157  0.96721182  0.73075433  1
  O  O294  1  0.48237880  0.29710183  0.22681077  1
  O  O295  1  0.46930713  0.30555701  0.56811179  1
  O  O296  1  0.46937967  0.29774707  0.88863572  1
  O  O297  1  0.46305315  0.80544003  0.22676317  1
  O  O298  1  0.46556235  0.80800451  0.56200990  1
  O  O299  1  0.46978381  0.80239329  0.89493395  1
  O  O300  1  0.95543572  0.29098476  0.22737736  1
  O  O301  1  0.96819396  0.30229712  0.56613978  1
  O  O302  1  0.96751958  0.30089884  0.89656441  1
  O  O303  1  0.97107917  0.79202347  0.22917994  1
  O  O304  1  0.95915900  0.80609195  0.56035822  1
  O  O305  1  0.97214613  0.79683864  0.89701093  1
  O  O306  1  0.20880129  0.04585451  0.27629565  1
  O  O307  1  0.20251889  0.03593068  0.60499483  1
  O  O308  1  0.20178215  0.03677609  0.93938575  1
  O  O309  1  0.18932014  0.53364450  0.27245035  1
  O  O310  1  0.20487093  0.51894386  0.60112122  1
  O  O311  1  0.20152499  0.53458559  0.93800105  1
  O  O312  1  0.68231256  0.04041978  0.27122674  1
  O  O313  1  0.70263024  0.02883795  0.60299083  1
  O  O314  1  0.69557704  0.02453180  0.92908402  1
  O  O315  1  0.70285897  0.52858316  0.27176593  1
  O  O316  1  0.70008458  0.53169067  0.60142228  1
  O  O317  1  0.69140696  0.52417614  0.92693250  1
  O  O318  1  0.08999207  0.08942278  0.03742423  1
  O  O319  1  0.07643814  0.08097080  0.37288591  1
  O  O320  1  0.08814807  0.09485813  0.71299248  1
  O  O321  1  0.09251930  0.59698581  0.04239159  1
  O  O322  1  0.10259770  0.58936157  0.38565539  1
  O  O323  1  0.08565804  0.58393206  0.71110515  1
  O  O324  1  0.57246805  0.08367166  0.03122261  1
  O  O325  1  0.58604577  0.08218665  0.36266378  1
  O  O326  1  0.58018712  0.08505741  0.69686171  1
  O  O327  1  0.58762473  0.59971693  0.04438770  1
  O  O328  1  0.58646674  0.59260128  0.37511768  1
  O  O329  1  0.58132400  0.59075172  0.70289095  1
  O  O330  1  0.39417854  0.40176989  0.09943454  1
  O  O331  1  0.40092465  0.41273689  0.44871922  1
  O  O332  1  0.41323171  0.42073210  0.79789921  1
  O  O333  1  0.41499635  0.92160525  0.12550361  1
  O  O334  1  0.41562379  0.91897259  0.46040258  1
  O  O335  1  0.41616371  0.92153246  0.79823576  1
  O  O336  1  0.90796998  0.40532201  0.12701040  1
  O  O337  1  0.91484761  0.41252235  0.46593154  1
  O  O338  1  0.90886852  0.41593597  0.79359847  1
  O  O339  1  0.91659821  0.89141861  0.13447995  1
  O  O340  1  0.90821883  0.89774875  0.45783863  1
  O  O341  1  0.91188307  0.91410113  0.79934317  1
  O  O342  1  0.44799790  0.42186861  0.29012328  1
  O  O343  1  0.40793049  0.41172259  0.63241771  1
  O  O344  1  0.41667274  0.41143902  0.95262589  1
  O  O345  1  0.42025977  0.92313963  0.29640189  1
  O  O346  1  0.41586976  0.92134394  0.62966378  1
  O  O347  1  0.41617157  0.91529748  0.95947351  1
  O  O348  1  0.90838593  0.40453844  0.29988853  1
  O  O349  1  0.91633725  0.41488697  0.63366340  1
  O  O350  1  0.90802910  0.40903481  0.96223917  1
  O  O351  1  0.93455713  0.90913943  0.30545185  1
  O  O352  1  0.91117192  0.91153410  0.64157609  1
  O  O353  1  0.91185082  0.90424920  0.95801857  1
  O  O354  1  0.09043312  0.08886134  0.21023833  1
  O  O355  1  0.08612368  0.08191820  0.53548572  1
  O  O356  1  0.08909233  0.08877275  0.87070339  1
  O  O357  1  0.09058015  0.59668490  0.20067468  1
  O  O358  1  0.08539802  0.56131418  0.53458076  1
  O  O359  1  0.09170929  0.58846310  0.86890414  1
  O  O360  1  0.58052799  0.09821542  0.19774908  1
  O  O361  1  0.59001888  0.08165336  0.53659347  1
  O  O362  1  0.58697764  0.08369256  0.86669234  1
  O  O363  1  0.59093879  0.58673748  0.21285311  1
  O  O364  1  0.58929907  0.58696325  0.53481484  1
  O  O365  1  0.58343687  0.58465087  0.86387083  1
  O  O366  1  0.14216085  0.22331093  0.05744687  1
  O  O367  1  0.13231353  0.21103320  0.38771033  1
  O  O368  1  0.13905486  0.22800095  0.73212774  1
  O  O369  1  0.14176242  0.73059247  0.05747256  1
  O  O370  1  0.12960560  0.71639025  0.37497146  1
  O  O371  1  0.13338268  0.71640379  0.72295788  1
  O  O372  1  0.63926027  0.21351079  0.05554687  1
  O  O373  1  0.64694930  0.21574766  0.39099209  1
  O  O374  1  0.64015594  0.21802732  0.72390253  1
  O  O375  1  0.63488052  0.73329743  0.06038621  1
  O  O376  1  0.63704913  0.72560356  0.39322693  1
  O  O377  1  0.63836501  0.72336441  0.72675918  1
  O  O378  1  0.26568591  0.36887993  0.10457260  1
  O  O379  1  0.27966529  0.38276799  0.47232524  1
  O  O380  1  0.28070946  0.36336253  0.77598245  1
  O  O381  1  0.28480263  0.86421915  0.11129051  1
  O  O382  1  0.28517945  0.87066851  0.45584354  1
  O  O383  1  0.28303000  0.86351960  0.77498028  1
  O  O384  1  0.77261005  0.35581963  0.10225671  1
  O  O385  1  0.77999155  0.36116348  0.44318670  1
  O  O386  1  0.77607895  0.35896576  0.76954303  1
  O  O387  1  0.77918717  0.84942361  0.11009618  1
  O  O388  1  0.77281101  0.85503852  0.44146841  1
  O  O389  1  0.77749968  0.85783861  0.77291361  1
  O  O390  1  0.37257010  0.29902830  0.27277502  1
  O  O391  1  0.36659520  0.27652869  0.61638266  1
  O  O392  1  0.36603758  0.27996548  0.93935218  1
  O  O393  1  0.35666412  0.79377093  0.27703061  1
  O  O394  1  0.36201495  0.78886898  0.61400911  1
  O  O395  1  0.36065453  0.78268740  0.93935441  1
  O  O396  1  0.85710161  0.27034794  0.28241141  1
  O  O397  1  0.86219541  0.28031645  0.61263234  1
  O  O398  1  0.86012503  0.27322911  0.93925865  1
  O  O399  1  0.86108744  0.77968736  0.27317401  1
  O  O400  1  0.85646267  0.77591524  0.60751592  1
  O  O401  1  0.86036428  0.76973737  0.93510007  1
  O  O402  1  0.21881125  0.14700796  0.21946274  1
  O  O403  1  0.21692917  0.14345323  0.55855770  1
  O  O404  1  0.22326988  0.14270407  0.89217091  1
  O  O405  1  0.22985195  0.63363332  0.22749623  1
  O  O406  1  0.21320365  0.63638826  0.56648309  1
  O  O407  1  0.22576235  0.64111687  0.89215185  1
  O  O408  1  0.71939863  0.13548447  0.21982301  1
  O  O409  1  0.72412175  0.13779961  0.56021961  1
  O  O410  1  0.72248561  0.13404140  0.88806652  1
  O  O411  1  0.72301842  0.63518436  0.22422311  1
  O  O412  1  0.72351413  0.64010600  0.55818713  1
  O  O413  1  0.71934660  0.63371501  0.88641966  1
  O  O414  1  0.49970622  0.33699202  0.02340169  1
  O  O415  1  0.50449904  0.33859352  0.36241502  1
  O  O416  1  0.49441404  0.34097137  0.70224767  1
  O  O417  1  0.49132900  0.83645382  0.02865309  1
  O  O418  1  0.49010109  0.83712051  0.36095065  1
  O  O419  1  0.49396222  0.84282501  0.69725504  1
  O  O420  1  0.98934718  0.32999847  0.02901666  1
  O  O421  1  0.99030534  0.32494208  0.36274049  1
  O  O422  1  0.99245725  0.33539067  0.70063238  1
  O  O423  1  0.98767455  0.82528838  0.02952855  1
  O  O424  1  0.99269287  0.81331016  0.36228679  1
  O  O425  1  0.98916941  0.82339771  0.69347939  1
  O  O426  1  0.16896970  0.01217307  0.14073858  1
  O  O427  1  0.17239574  0.01065116  0.47177958  1
  O  O428  1  0.16873630  0.01097822  0.80502200  1
  O  O429  1  0.16671598  0.50729545  0.13939765  1
  O  O430  1  0.17770708  0.50817721  0.47046350  1
  O  O431  1  0.17219515  0.50955714  0.80422861  1
  O  O432  1  0.65259379  0.00536369  0.13646999  1
  O  O433  1  0.67205959  0.00777580  0.46949520  1
  O  O434  1  0.66305620  0.00650413  0.79578940  1
  O  O435  1  0.66140961  0.50488755  0.13716282  1
  O  O436  1  0.67016721  0.51007445  0.46845128  1
  O  O437  1  0.65963844  0.50651906  0.79404904  1
  O  O438  1  -0.00055361  0.15775218  0.30267446  1
  O  O439  1  0.01002143  0.17124564  0.64170203  1
  O  O440  1  0.01026564  0.16762172  0.97229574  1
  O  O441  1  0.00023168  0.63835483  0.30533544  1
  O  O442  1  0.00152876  0.65399674  0.63898617  1
  O  O443  1  0.01295328  0.66913258  0.96827076  1
  O  O444  1  0.51573758  0.17100837  0.30076678  1
  O  O445  1  0.50947253  0.17096418  0.63270816  1
  O  O446  1  0.50636045  0.17272280  0.97022006  1
  O  O447  1  0.50769136  0.66950873  0.30338786  1
  O  O448  1  0.50816048  0.67430004  0.63617379  1
  O  O449  1  0.50706156  0.67349276  0.97085049  1
  O  O450  1  0.34244409  0.49403475  0.18807207  1
  O  O451  1  0.34949053  0.50940567  0.53403728  1
  O  O452  1  0.33219293  0.49373763  0.86693327  1
  O  O453  1  0.33639684  0.99820941  0.19409225  1
  O  O454  1  0.34334082  1.00338237  0.53006869  1
  O  O455  1  0.33248749  0.99555156  0.86323114  1
  O  O456  1  0.82845699  0.48464260  0.19242587  1
  O  O457  1  0.83613705  0.49166158  0.53147867  1
  O  O458  1  0.82576815  0.48824600  0.86123120  1
  O  O459  1  0.84016647  0.98189997  0.19148447  1
  O  O460  1  0.83694358  0.98133087  0.53332055  1
  O  O461  1  0.82909281  0.98792794  0.86423192  1
