# generated using pymatgen
data_Na31Fe20(SO4)36
_symmetry_space_group_name_H-M   'P 1'
_cell_length_a   18.06557082
_cell_length_b   18.07461597
_cell_length_c   19.71874790
_cell_angle_alpha   107.58947266
_cell_angle_beta   107.55948564
_cell_angle_gamma   90.73702013
_symmetry_Int_Tables_number   1
_chemical_formula_structural   Na31Fe20(SO4)36
_chemical_formula_sum   'Na62 Fe40 S72 O288'
_cell_volume   5813.23767776
_cell_formula_units_Z   2
loop_
 _symmetry_equiv_pos_site_id
 _symmetry_equiv_pos_as_xyz
  1  'x, y, z'
loop_
 _atom_site_type_symbol
 _atom_site_label
 _atom_site_symmetry_multiplicity
 _atom_site_fract_x
 _atom_site_fract_y
 _atom_site_fract_z
 _atom_site_occupancy
  Na  Na0  1  0.14581757  0.37180983  0.09397741  1
  Na  Na1  1  0.13058568  0.36382107  0.41215655  1
  Na  Na2  1  0.13844988  0.38230072  0.75750573  1
  Na  Na3  1  0.13641077  0.86527060  0.07963625  1
  Na  Na4  1  0.14247224  0.86618395  0.41669356  1
  Na  Na5  1  0.13444763  0.87909848  0.76456389  1
  Na  Na6  1  0.62862150  0.36139306  0.08728759  1
  Na  Na7  1  0.62742365  0.36564010  0.41221251  1
  Na  Na8  1  0.62763254  0.37887339  0.74921049  1
  Na  Na9  1  0.63398989  0.85334421  0.08372809  1
  Na  Na10  1  0.64569068  0.84970805  0.41082803  1
  Na  Na11  1  0.64313680  0.80864903  0.71731447  1
  Na  Na12  1  0.37221644  0.14271277  0.25650079  1
  Na  Na13  1  0.35443269  0.12541464  0.56889950  1
  Na  Na14  1  0.36881504  0.13291066  0.92710451  1
  Na  Na15  1  0.37032682  0.63013735  0.24825564  1
  Na  Na16  1  0.36997202  0.62643824  0.58505951  1
  Na  Na17  1  0.36424674  0.64373518  0.91909641  1
  Na  Na18  1  0.86215906  0.13276843  0.24926542  1
  Na  Na19  1  0.86735774  0.13607904  0.58626419  1
  Na  Na20  1  0.87535928  0.12955291  0.91787513  1
  Na  Na21  1  0.85201133  0.64973212  0.25183661  1
  Na  Na22  1  0.86441565  0.64075318  0.59195886  1
  Na  Na23  1  0.86229885  0.63427803  0.90732253  1
  Na  Na24  1  0.47383459  0.53010283  0.44114660  1
  Na  Na25  1  0.99884986  0.51130753  0.05711266  1
  Na  Na26  1  0.49061660  0.50614806  0.08188669  1
  Na  Na27  1  0.50002114  0.00107336  0.75799862  1
  Na  Na28  1  1.01552513  -0.00595785  0.41536570  1
  Na  Na29  1  0.46596181  0.03147179  0.09078910  1
  Na  Na30  1  0.48625296  0.01466550  0.41163849  1
  Na  Na31  1  0.98372831  0.50756799  0.42429689  1
  Na  Na32  1  1.01065216  0.00427298  0.05432782  1
  Na  Na33  1  0.49853103  0.51251037  0.89610587  1
  Na  Na34  1  0.51518137  0.97758569  0.58372731  1
  Na  Na35  1  0.03834883  0.99268027  0.25165038  1
  Na  Na36  1  0.02969394  0.49153546  0.65074110  1
  Na  Na37  1  0.01399076  0.49292209  0.24413857  1
  Na  Na38  1  0.51040785  0.94528432  0.22677868  1
  Na  Na39  1  0.00884200  0.99095560  0.59621024  1
  Na  Na40  1  0.50387870  0.97987243  0.92111012  1
  Na  Na41  1  0.49196060  0.44775055  0.24045656  1
  Na  Na42  1  0.26947399  0.77391360  -0.00481601  1
  Na  Na43  1  0.25713227  0.26022373  0.32616017  1
  Na  Na44  1  0.26358993  0.26120645  -0.00130840  1
  Na  Na45  1  0.25454885  0.74861777  0.32808559  1
  Na  Na46  1  0.75104417  0.25400534  0.66846981  1
  Na  Na47  1  0.24534227  0.74265184  0.67151318  1
  Na  Na48  1  0.73038715  0.23751533  0.33492890  1
  Na  Na49  1  0.74179775  0.24249678  0.00659299  1
  Na  Na50  1  0.25137967  0.25259481  0.66241901  1
  Na  Na51  1  0.74929774  0.74930814  0.00377496  1
  Na  Na52  1  0.25427266  0.74831421  0.50058877  1
  Na  Na53  1  0.72514765  0.23595741  0.17566448  1
  Na  Na54  1  0.26285904  0.76087840  0.15980910  1
  Na  Na55  1  0.24879798  0.25111682  0.49256472  1
  Na  Na56  1  0.73601555  0.73938087  0.51415569  1
  Na  Na57  1  0.74553393  0.24842756  0.50037581  1
  Na  Na58  1  0.25580951  0.76287086  0.83549936  1
  Na  Na59  1  0.75070335  0.24884387  0.83488020  1
  Na  Na60  1  0.25408671  0.25388955  0.83245683  1
  Na  Na61  1  0.29070993  0.28233926  0.17070843  1
  Fe  Fe62  1  0.95760214  0.80867082  0.78399711  1
  Fe  Fe63  1  0.96746951  0.30852090  0.78720316  1
  Fe  Fe64  1  0.47024600  0.79686936  0.45461371  1
  Fe  Fe65  1  0.96272478  0.30444503  0.11584119  1
  Fe  Fe66  1  0.96490309  0.80693248  0.11494888  1
  Fe  Fe67  1  0.96335893  0.80735349  0.44951125  1
  Fe  Fe68  1  0.47065537  0.80317305  0.78302022  1
  Fe  Fe69  1  0.46615137  0.30700341  0.78695499  1
  Fe  Fe70  1  0.96163210  0.30684499  0.45092058  1
  Fe  Fe71  1  0.46436129  0.31328727  0.45878607  1
  Fe  Fe72  1  0.68745929  0.53705044  0.38001229  1
  Fe  Fe73  1  0.19716108  0.03616261  0.04044155  1
  Fe  Fe74  1  0.69191898  0.02997368  0.37772542  1
  Fe  Fe75  1  0.69658373  0.02813214  0.04701146  1
  Fe  Fe76  1  0.69650976  0.03346444  0.71373794  1
  Fe  Fe77  1  0.19155199  0.54002979  0.04524497  1
  Fe  Fe78  1  0.67345122  0.55521408  0.70604095  1
  Fe  Fe79  1  0.69170098  0.53254212  0.04783677  1
  Fe  Fe80  1  0.19760527  0.03331528  0.71837894  1
  Fe  Fe81  1  0.19685504  0.53089010  0.37610038  1
  Fe  Fe82  1  0.03390175  0.69360704  0.54880128  1
  Fe  Fe83  1  0.03086568  0.69398324  0.21275836  1
  Fe  Fe84  1  0.53607180  0.19568853  0.54978347  1
  Fe  Fe85  1  0.53325295  0.19445726  0.88392929  1
  Fe  Fe86  1  0.03831142  0.19430713  0.88032176  1
  Fe  Fe87  1  0.53359254  0.69309166  0.88062664  1
  Fe  Fe88  1  0.53552465  0.69980171  0.21077465  1
  Fe  Fe89  1  0.03334844  0.18836312  0.54435652  1
  Fe  Fe90  1  0.03583765  0.69240153  0.87782510  1
  Fe  Fe91  1  0.03403098  0.19139709  0.21421208  1
  Fe  Fe92  1  0.30850685  0.96394287  0.61912424  1
  Fe  Fe93  1  0.29822709  0.46953810  0.62598152  1
  Fe  Fe94  1  0.80645305  0.46746344  0.62238810  1
  Fe  Fe95  1  0.80656126  0.96189368  0.94568060  1
  Fe  Fe96  1  0.80193909  0.46895871  0.28277805  1
  Fe  Fe97  1  0.29884323  0.96971471  0.28908442  1
  Fe  Fe98  1  0.81435739  0.96524011  0.62099519  1
  Fe  Fe99  1  0.81173744  0.96015701  0.28517706  1
  Fe  Fe100  1  0.80571945  0.46645205  0.94981504  1
  Fe  Fe101  1  0.30613751  0.46998310  0.95189422  1
  S  S102  1  0.35210031  0.14444922  0.08612390  1
  S  S103  1  0.36128529  0.14078309  0.41969226  1
  S  S104  1  0.36113596  0.13925146  0.74881519  1
  S  S105  1  0.36047782  0.64433240  0.08282874  1
  S  S106  1  0.35173450  0.64282364  0.41451494  1
  S  S107  1  0.35796809  0.64398547  0.75078784  1
  S  S108  1  0.86062615  0.13789759  0.08181530  1
  S  S109  1  0.85738867  0.13898770  0.41518993  1
  S  S110  1  0.86223578  0.14147159  0.75073518  1
  S  S111  1  0.85974863  0.63857262  0.08234621  1
  S  S112  1  0.85911289  0.63965138  0.41683920  1
  S  S113  1  0.86163481  0.63722685  0.74898301  1
  S  S114  1  0.13530414  0.35827242  0.24833703  1
  S  S115  1  0.13609253  0.35381304  0.57993206  1
  S  S116  1  0.13986890  0.36215748  0.91687844  1
  S  S117  1  0.13880355  0.85721971  0.25013796  1
  S  S118  1  0.13964270  0.85957521  0.58291747  1
  S  S119  1  0.13168050  0.86442049  0.91822794  1
  S  S120  1  0.64237693  0.36205582  0.24864124  1
  S  S121  1  0.64232422  0.36377358  0.58880119  1
  S  S122  1  0.64254443  0.35741210  0.91671941  1
  S  S123  1  0.65108924  0.85432020  0.25487427  1
  S  S124  1  0.64438986  0.86261432  0.58060713  1
  S  S125  1  0.64318269  0.85732281  0.91455987  1
  S  S126  1  0.07371214  0.17672671  0.04490209  1
  S  S127  1  0.05859504  0.16582344  0.37477521  1
  S  S128  1  0.07042851  0.17247934  0.70944614  1
  S  S129  1  0.06748076  0.67539770  0.04374943  1
  S  S130  1  0.06501333  0.67087435  0.37545140  1
  S  S131  1  0.07066330  0.68235097  0.71435125  1
  S  S132  1  0.56952635  0.15847498  0.03795505  1
  S  S133  1  0.56701964  0.16459702  0.37827987  1
  S  S134  1  0.56724111  0.16696141  0.70882866  1
  S  S135  1  0.56810416  0.66026873  0.03715120  1
  S  S136  1  0.56361530  0.66600282  0.37230825  1
  S  S137  1  0.55511399  0.65273457  0.70608103  1
  S  S138  1  0.32968071  0.44438229  0.11979094  1
  S  S139  1  0.32251864  0.43075085  0.46156372  1
  S  S140  1  0.33029689  0.43061949  0.79124482  1
  S  S141  1  0.32477669  0.94020537  0.12669320  1
  S  S142  1  0.33357388  0.92888492  0.45764205  1
  S  S143  1  0.33654220  0.93536339  0.79172567  1
  S  S144  1  0.83044264  0.43252834  0.12213484  1
  S  S145  1  0.82974884  0.43131400  0.45741669  1
  S  S146  1  0.82959830  0.42776642  0.79068794  1
  S  S147  1  0.83502849  0.93396874  0.12544288  1
  S  S148  1  0.83881563  0.93681381  0.46171301  1
  S  S149  1  0.82696303  0.93236599  0.78773109  1
  S  S150  1  0.43510455  0.34462602  0.30761599  1
  S  S151  1  0.42532497  0.32517274  0.62328398  1
  S  S152  1  0.43534503  0.33158427  0.95638226  1
  S  S153  1  0.43303513  0.83107389  0.29402450  1
  S  S154  1  0.43778284  0.83702019  0.62614768  1
  S  S155  1  0.44365960  0.83267594  0.95924899  1
  S  S156  1  0.92645177  0.33028441  0.28775006  1
  S  S157  1  0.93114632  0.32769006  0.62237408  1
  S  S158  1  0.93266775  0.32834525  0.95692654  1
  S  S159  1  0.93878890  0.83383391  0.29352121  1
  S  S160  1  0.93423786  0.83034991  0.62184787  1
  S  S161  1  0.92961663  0.82996482  0.95874030  1
  S  S162  1  0.16747163  0.06840131  0.20494110  1
  S  S163  1  0.16579099  0.06197052  0.54530408  1
  S  S164  1  0.17109370  0.07439572  0.87741787  1
  S  S165  1  0.15701493  0.56659697  0.20322982  1
  S  S166  1  0.16708261  0.56623421  0.53824567  1
  S  S167  1  0.17360379  0.57491270  0.87940338  1
  S  S168  1  0.66644839  0.05284498  0.20695230  1
  S  S169  1  0.67220951  0.06952449  0.54369803  1
  S  S170  1  0.67390129  0.06857093  0.87476980  1
  S  S171  1  0.66681111  0.56702078  0.20470538  1
  S  S172  1  0.67030535  0.56535987  0.54091383  1
  S  S173  1  0.67361978  0.56901133  0.87731332  1
  O  O174  1  0.35760618  0.22437267  0.08275197  1
  O  O175  1  0.37306390  0.21972841  0.41184669  1
  O  O176  1  0.36909473  0.21933519  0.74315092  1
  O  O177  1  0.36504091  0.71992987  0.07109969  1
  O  O178  1  0.36352724  0.72734169  0.41798235  1
  O  O179  1  0.37510766  0.72011509  0.73757121  1
  O  O180  1  0.86911662  0.21564436  0.07027813  1
  O  O181  1  0.86355973  0.21793548  0.40580467  1
  O  O182  1  0.86983752  0.21947373  0.73950935  1
  O  O183  1  0.86985513  0.71769162  0.07523301  1
  O  O184  1  0.87127142  0.71774021  0.40958933  1
  O  O185  1  0.86796906  0.71420167  0.73687740  1
  O  O186  1  0.26743051  0.13171339  0.08967718  1
  O  O187  1  0.28704155  0.13277152  0.43326150  1
  O  O188  1  0.28387540  0.13098363  0.76060670  1
  O  O189  1  0.28353504  0.63206884  0.09559034  1
  O  O190  1  0.26697195  0.63417801  0.41265411  1
  O  O191  1  0.28140196  0.64525459  0.76148509  1
  O  O192  1  0.78113665  0.12985649  0.08911225  1
  O  O193  1  0.77781994  0.12863772  0.42216311  1
  O  O194  1  0.78275206  0.13297932  0.75851062  1
  O  O195  1  0.77893319  0.62553722  0.08267054  1
  O  O196  1  0.78064301  0.63026608  0.42502545  1
  O  O197  1  0.78549727  0.62226997  0.75876368  1
  O  O198  1  0.12240641  0.28186273  0.26204900  1
  O  O199  1  0.12825555  0.27138262  0.58246212  1
  O  O200  1  0.13260638  0.28361054  0.92708313  1
  O  O201  1  0.12940195  0.77687933  0.25628404  1
  O  O202  1  0.13252580  0.77936509  0.58817537  1
  O  O203  1  0.11968102  0.79041654  0.93568196  1
  O  O204  1  0.63936503  0.28363757  0.25541279  1
  O  O205  1  0.63104757  0.28646482  0.60128831  1
  O  O206  1  0.63209506  0.27675161  0.92137789  1
  O  O207  1  0.63593552  0.77789020  0.26505512  1
  O  O208  1  0.64125324  0.78683897  0.59170028  1
  O  O209  1  0.63381304  0.77931548  0.92393743  1
  O  O210  1  0.21067503  0.36333430  0.23693487  1
  O  O211  1  0.21706527  0.36490903  0.57686208  1
  O  O212  1  0.21927489  0.37075654  0.90900885  1
  O  O213  1  0.21929607  0.86593862  0.24464854  1
  O  O214  1  0.21722311  0.86987665  0.57207939  1
  O  O215  1  0.20801502  0.86716512  0.90694167  1
  O  O216  1  0.72111702  0.37532215  0.23704618  1
  O  O217  1  0.72144358  0.36654253  0.57845563  1
  O  O218  1  0.72228745  0.36546369  0.90997834  1
  O  O219  1  0.73293915  0.86348098  0.25509554  1
  O  O220  1  0.72208096  0.87910203  0.57107432  1
  O  O221  1  0.72332551  0.86882722  0.91145919  1
  O  O222  1  0.40527623  0.13389973  0.15440178  1
  O  O223  1  0.42584658  0.12904628  0.48393175  1
  O  O224  1  0.42286369  0.12750972  0.81337026  1
  O  O225  1  0.42218100  0.63878855  0.15106606  1
  O  O226  1  0.40202132  0.63025930  0.48298193  1
  O  O227  1  0.41819417  0.63438251  0.81792939  1
  O  O228  1  0.91869066  0.13358665  0.15166121  1
  O  O229  1  0.91567882  0.13392599  0.48502288  1
  O  O230  1  0.92069603  0.13767151  0.82015506  1
  O  O231  1  0.91542235  0.63330809  0.15357349  1
  O  O232  1  0.91887881  0.62850651  0.48366377  1
  O  O233  1  0.92326303  0.63363497  0.81781609  1
  O  O234  1  0.36085086  0.08672334  0.01891278  1
  O  O235  1  0.36621517  0.08162466  0.34970911  1
  O  O236  1  0.36545688  0.08234113  0.67811573  1
  O  O237  1  0.37027569  0.58156143  0.01676254  1
  O  O238  1  0.36249415  0.59104216  0.34655262  1
  O  O239  1  0.36032122  0.58124210  0.68258346  1
  O  O240  1  0.87115784  0.07728492  0.01597275  1
  O  O241  1  0.86794474  0.08014850  0.34874974  1
  O  O242  1  0.87083831  0.08163160  0.68378816  1
  O  O243  1  0.87514302  0.57921004  0.01740461  1
  O  O244  1  0.86670395  0.57958792  0.34807752  1
  O  O245  1  0.87274091  0.57694540  0.68217645  1
  O  O246  1  0.07241365  0.36624333  0.18146255  1
  O  O247  1  0.07989057  0.36157694  0.50990607  1
  O  O248  1  0.08203719  0.36543401  0.84631474  1
  O  O249  1  0.08207494  0.86444225  0.17943160  1
  O  O250  1  0.07834308  0.86999876  0.51723518  1
  O  O251  1  0.06972539  0.87139775  0.85202562  1
  O  O252  1  0.58111918  0.37301995  0.18561106  1
  O  O253  1  0.58352246  0.36783980  0.51977655  1
  O  O254  1  0.58449656  0.36725771  0.84901131  1
  O  O255  1  0.59645152  0.86302226  0.18657114  1
  O  O256  1  0.58367285  0.86689401  0.51102412  1
  O  O257  1  0.58590253  0.86502736  0.84535255  1
  O  O258  1  0.12738438  0.42014871  0.31553887  1
  O  O259  1  0.12355734  0.40812323  0.64622042  1
  O  O260  1  0.12924128  0.42178468  0.98259827  1
  O  O261  1  0.12737232  0.91548073  0.31506569  1
  O  O262  1  0.13297112  0.91691427  0.65274921  1
  O  O263  1  0.12757200  0.92951688  0.98642327  1
  O  O264  1  0.63952200  0.42034255  0.32064793  1
  O  O265  1  0.63875149  0.42599443  0.65576121  1
  O  O266  1  0.63531225  0.41420126  0.98571272  1
  O  O267  1  0.63919228  0.91565345  0.32230953  1
  O  O268  1  0.63188151  0.92490813  0.64565836  1
  O  O269  1  0.63173807  0.91723886  0.98110390  1
  O  O270  1  0.03232111  0.19915046  0.10324235  1
  O  O271  1  0.02147082  0.20198935  0.43507729  1
  O  O272  1  0.03371747  0.20279077  0.77019179  1
  O  O273  1  0.02836741  0.70259950  0.10377796  1
  O  O274  1  0.02942207  0.70115625  0.43727315  1
  O  O275  1  0.03103986  0.71440042  0.77347407  1
  O  O276  1  0.53731926  0.16939701  0.09850268  1
  O  O277  1  0.53953119  0.19886096  0.44592210  1
  O  O278  1  0.53188696  0.19847537  0.77012616  1
  O  O279  1  0.53809265  0.68791284  0.10048610  1
  O  O280  1  0.52181351  0.69081261  0.42826859  1
  O  O281  1  0.53612570  0.70036920  0.77633800  1
  O  O282  1  0.28965858  0.47416000  0.05394935  1
  O  O283  1  0.29525714  0.46840728  0.40292822  1
  O  O284  1  0.30125724  0.46275767  0.72958511  1
  O  O285  1  0.28651954  0.97435456  0.06599720  1
  O  O286  1  0.31187698  0.96517959  0.39803473  1
  O  O287  1  0.30272738  0.96624633  0.72543324  1
  O  O288  1  0.80026042  0.46747696  0.06004518  1
  O  O289  1  0.80166081  0.46865002  0.39738565  1
  O  O290  1  0.80502256  0.46067355  0.72853377  1
  O  O291  1  0.80435517  0.97030103  0.06420415  1
  O  O292  1  0.80748766  0.97210343  0.40047556  1
  O  O293  1  0.79896682  0.97175284  0.72760343  1
  O  O294  1  0.46053315  0.32070856  0.24149501  1
  O  O295  1  0.46587023  0.29884198  0.56439242  1
  O  O296  1  0.46825916  0.29772259  0.89108268  1
  O  O297  1  0.47185544  0.80679566  0.23584164  1
  O  O298  1  0.47315215  0.81285962  0.56613538  1
  O  O299  1  0.47317728  0.79730331  0.89124653  1
  O  O300  1  0.96082791  0.29902853  0.22562833  1
  O  O301  1  0.96661476  0.29666316  0.56066145  1
  O  O302  1  0.96981729  0.29966877  0.89654638  1
  O  O303  1  0.97161598  0.80191023  0.22999362  1
  O  O304  1  0.97189957  0.79825853  0.56126222  1
  O  O305  1  0.95823768  0.79656880  0.89363950  1
  O  O306  1  0.19165912  0.02614064  0.26005728  1
  O  O307  1  0.19956534  0.03158960  0.61095381  1
  O  O308  1  0.19095907  0.03773363  0.93758629  1
  O  O309  1  0.17658157  0.52922571  0.26195252  1
  O  O310  1  0.19248073  0.52810357  0.59629763  1
  O  O311  1  0.20533738  0.53807796  0.94198691  1
  O  O312  1  0.70809260  0.02117355  0.27023877  1
  O  O313  1  0.70575058  0.03969798  0.60838701  1
  O  O314  1  0.70419264  0.03112166  0.93464905  1
  O  O315  1  0.69769882  0.53534685  0.26970129  1
  O  O316  1  0.70376763  0.52969140  0.60379960  1
  O  O317  1  0.69917662  0.52365113  0.93276402  1
  O  O318  1  0.09617175  0.09602278  0.03928216  1
  O  O319  1  0.06850222  0.08457778  0.37211329  1
  O  O320  1  0.09098448  0.09208116  0.70553313  1
  O  O321  1  0.08550277  0.59391005  0.03855577  1
  O  O322  1  0.08027672  0.58837113  0.36839877  1
  O  O323  1  0.09470663  0.60689815  0.71697452  1
  O  O324  1  0.59488342  0.07704805  0.01750694  1
  O  O325  1  0.58751611  0.08325551  0.37807545  1
  O  O326  1  0.58207897  0.08405379  0.70345361  1
  O  O327  1  0.58338144  0.57513690  0.02684918  1
  O  O328  1  0.57853242  0.58212966  0.36220448  1
  O  O329  1  0.55448467  0.56893073  0.70163426  1
  O  O330  1  0.40996663  0.43278200  0.11830291  1
  O  O331  1  0.40444448  0.41326657  0.46963571  1
  O  O332  1  0.41234526  0.41076475  0.79929065  1
  O  O333  1  0.40512137  0.93022147  0.12656459  1
  O  O334  1  0.41638322  0.91063783  0.47086637  1
  O  O335  1  0.41722569  0.91370964  0.79132478  1
  O  O336  1  0.91289293  0.41543340  0.12782130  1
  O  O337  1  0.91205320  0.41344516  0.46127770  1
  O  O338  1  0.90917281  0.40383553  0.79893948  1
  O  O339  1  0.91747724  0.91754989  0.13051953  1
  O  O340  1  0.92215571  0.92092899  0.46570051  1
  O  O341  1  0.90557203  0.91027999  0.78818737  1
  O  O342  1  0.42799794  0.42931920  0.32943249  1
  O  O343  1  0.39929685  0.40199683  0.62686982  1
  O  O344  1  0.41334773  0.41139834  0.95582750  1
  O  O345  1  0.41145368  0.91266597  0.29957764  1
  O  O346  1  0.42183952  0.92200210  0.63741750  1
  O  O347  1  0.43388874  0.91522713  0.96595685  1
  O  O348  1  0.91160917  0.41328105  0.29400515  1
  O  O349  1  0.91262304  0.40833551  0.62555210  1
  O  O350  1  0.91017867  0.40815196  0.96076961  1
  O  O351  1  0.92311936  0.91655564  0.29733865  1
  O  O352  1  0.91852194  0.91179734  0.62271618  1
  O  O353  1  0.91053418  0.91137498  0.96153003  1
  O  O354  1  0.08275178  0.08303034  0.19631083  1
  O  O355  1  0.08350458  0.08064870  0.54334932  1
  O  O356  1  0.08990574  0.09444106  0.86375051  1
  O  O357  1  0.07187485  0.58313688  0.18985952  1
  O  O358  1  0.08535279  0.58804667  0.53236669  1
  O  O359  1  0.09580315  0.59845562  0.88269427  1
  O  O360  1  0.58430409  0.05455160  0.20263424  1
  O  O361  1  0.58865453  0.08222040  0.53730387  1
  O  O362  1  0.59258048  0.08794269  0.87009307  1
  O  O363  1  0.58540748  0.58573368  0.19867737  1
  O  O364  1  0.59112444  0.58149561  0.53798172  1
  O  O365  1  0.59312762  0.58836834  0.87497241  1
  O  O366  1  0.14157481  0.23330321  0.06405562  1
  O  O367  1  0.13203518  0.21427400  0.39060999  1
  O  O368  1  0.13995820  0.22616787  0.72375029  1
  O  O369  1  0.13939411  0.72757939  0.06377580  1
  O  O370  1  0.13634689  0.72281317  0.39187222  1
  O  O371  1  0.13747734  0.73999645  0.72816411  1
  O  O372  1  0.63807652  0.21682308  0.05579401  1
  O  O373  1  0.63922701  0.21499129  0.39103854  1
  O  O374  1  0.64017269  0.21631099  0.72466217  1
  O  O375  1  0.63822436  0.70892480  0.04601164  1
  O  O376  1  0.63828343  0.71620567  0.39708267  1
  O  O377  1  0.63763530  0.68013143  0.71642428  1
  O  O378  1  0.28206861  0.36950415  0.10421643  1
  O  O379  1  0.27011852  0.35732702  0.44199692  1
  O  O380  1  0.27804627  0.35994420  0.77864162  1
  O  O381  1  0.27760720  0.86493117  0.11096438  1
  O  O382  1  0.27885017  0.85850207  0.43932852  1
  O  O383  1  0.28426564  0.86505637  0.77841862  1
  O  O384  1  0.77978285  0.36078325  0.10661137  1
  O  O385  1  0.77853399  0.35913468  0.44100734  1
  O  O386  1  0.77272430  0.35986846  0.77708197  1
  O  O387  1  0.78409160  0.86282407  0.10988132  1
  O  O388  1  0.79060380  0.86610447  0.45050515  1
  O  O389  1  0.77160840  0.86626821  0.77432151  1
  O  O390  1  0.36061103  0.29614118  0.29382159  1
  O  O391  1  0.35859461  0.26546420  0.60541745  1
  O  O392  1  0.36455447  0.27829659  0.94069647  1
  O  O393  1  0.36193058  0.77661141  0.27568143  1
  O  O394  1  0.36464974  0.78804125  0.61041164  1
  O  O395  1  0.36699972  0.78612348  0.94054650  1
  O  O396  1  0.85500618  0.27956703  0.27369287  1
  O  O397  1  0.85987961  0.27530742  0.60697842  1
  O  O398  1  0.86383881  0.27332416  0.94191439  1
  O  O399  1  0.87009665  0.78463546  0.28426826  1
  O  O400  1  0.86209057  0.78018494  0.60473398  1
  O  O401  1  0.86293908  0.78004529  0.95474831  1
  O  O402  1  0.21769252  0.14154083  0.22610873  1
  O  O403  1  0.21556329  0.13353723  0.55806074  1
  O  O404  1  0.22701446  0.14370112  0.89549428  1
  O  O405  1  0.20889993  0.63819643  0.22165377  1
  O  O406  1  0.22079776  0.63736691  0.55507300  1
  O  O407  1  0.22809591  0.64546423  0.89670387  1
  O  O408  1  0.70991967  0.13031499  0.22360308  1
  O  O409  1  0.71936221  0.14369903  0.55729362  1
  O  O410  1  0.72699479  0.13979023  0.89198554  1
  O  O411  1  0.71891234  0.63387552  0.21359333  1
  O  O412  1  0.72454675  0.63408597  0.55504245  1
  O  O413  1  0.72903697  0.63926038  0.90191824  1
  O  O414  1  0.49669225  0.33739957  0.02567959  1
  O  O415  1  0.49555906  0.32920162  0.37366631  1
  O  O416  1  0.48642842  0.32802867  0.69581974  1
  O  O417  1  0.50163031  0.82455214  0.02552230  1
  O  O418  1  0.49003490  0.83445445  0.36833036  1
  O  O419  1  0.49777746  0.83670277  0.69784636  1
  O  O420  1  0.99293652  0.33421533  0.03007159  1
  O  O421  1  0.98687290  0.33227542  0.35985042  1
  O  O422  1  0.99087379  0.33049986  0.69442718  1
  O  O423  1  0.99576485  0.84000130  0.03047133  1
  O  O424  1  1.00178885  0.84043825  0.36633051  1
  O  O425  1  0.99147386  0.83427367  0.69512644  1
  O  O426  1  0.16464864  0.01424187  0.12855921  1
  O  O427  1  0.15931323  0.00013803  0.47545435  1
  O  O428  1  0.17502317  0.01336512  0.80751618  1
  O  O429  1  0.15768508  0.50895602  0.13033349  1
  O  O430  1  0.16124881  0.50895500  0.46300023  1
  O  O431  1  0.16654356  0.51522278  0.80841619  1
  O  O432  1  0.67352626  -0.00146260  0.13534925  1
  O  O433  1  0.67454062  0.00895034  0.47425408  1
  O  O434  1  0.66927526  0.01002975  0.80152633  1
  O  O435  1  0.66274462  0.50144158  0.13409456  1
  O  O436  1  0.67010471  0.50421360  0.46891787  1
  O  O437  1  0.67211260  0.51640812  0.80263306  1
  O  O438  1  0.00190593  0.16612553  0.30113102  1
  O  O439  1  0.00896307  0.16771725  0.63696619  1
  O  O440  1  0.01410719  0.17268302  0.97203661  1
  O  O441  1  0.00514172  0.67050511  0.30367391  1
  O  O442  1  0.01024920  0.67434530  0.63957154  1
  O  O443  1  0.00898132  0.67554180  0.97252969  1
  O  O444  1  0.50543519  0.15946036  0.30976338  1
  O  O445  1  0.50886165  0.16566802  0.63624504  1
  O  O446  1  0.50852658  0.16188932  0.96692263  1
  O  O447  1  0.51126964  0.67019682  0.29879182  1
  O  O448  1  0.49879306  0.66572916  0.64170245  1
  O  O449  1  0.50482963  0.65566892  0.96476468  1
  O  O450  1  0.32918895  0.50142082  0.18994214  1
  O  O451  1  0.32165231  0.48688936  0.53465208  1
  O  O452  1  0.33418604  0.49263613  0.86335974  1
  O  O453  1  0.32522332  0.99505786  0.20109608  1
  O  O454  1  0.33032889  0.98793545  0.52929607  1
  O  O455  1  0.34463816  0.99801233  0.86104601  1
  O  O456  1  0.83277289  0.49299109  0.19387653  1
  O  O457  1  0.83304130  0.48910110  0.53062068  1
  O  O458  1  0.83219783  0.48986266  0.86230822  1
  O  O459  1  0.83781834  0.99332636  0.19820932  1
  O  O460  1  0.84431342  0.99846733  0.53483022  1
  O  O461  1  0.83442190  0.99439084  0.86113098  1
