# generated using pymatgen
data_Na31Fe20(SO4)36
_symmetry_space_group_name_H-M   'P 1'
_cell_length_a   18.08502933
_cell_length_b   18.09814260
_cell_length_c   19.71985954
_cell_angle_alpha   107.57348099
_cell_angle_beta   107.56491816
_cell_angle_gamma   90.74315597
_symmetry_Int_Tables_number   1
_chemical_formula_structural   Na31Fe20(SO4)36
_chemical_formula_sum   'Na62 Fe40 S72 O288'
_cell_volume   5827.70731454
_cell_formula_units_Z   2
loop_
 _symmetry_equiv_pos_site_id
 _symmetry_equiv_pos_as_xyz
  1  'x, y, z'
loop_
 _atom_site_type_symbol
 _atom_site_label
 _atom_site_symmetry_multiplicity
 _atom_site_fract_x
 _atom_site_fract_y
 _atom_site_fract_z
 _atom_site_occupancy
  Na  Na0  1  0.12462875  0.35258265  0.06676438  1
  Na  Na1  1  0.14992827  0.36958796  0.42860642  1
  Na  Na2  1  0.11422327  0.30518260  0.73383227  1
  Na  Na3  1  0.15028302  0.86965615  0.09623469  1
  Na  Na4  1  0.02078442  0.94983564  0.46125080  1
  Na  Na5  1  0.13042699  0.87631603  0.74566321  1
  Na  Na6  1  0.63665677  0.36556153  0.08480194  1
  Na  Na7  1  0.64018740  0.36734753  0.42317596  1
  Na  Na8  1  0.63377485  0.36042995  0.74125925  1
  Na  Na9  1  0.63503929  0.86723400  0.08466888  1
  Na  Na10  1  0.63455637  0.87283845  0.41812930  1
  Na  Na11  1  0.63342932  0.86512854  0.74613235  1
  Na  Na12  1  0.35604278  0.13129204  0.24641798  1
  Na  Na13  1  0.35992003  0.13061112  0.57795597  1
  Na  Na14  1  0.35047057  0.14492714  0.90922668  1
  Na  Na15  1  0.36735091  0.62417675  0.24623216  1
  Na  Na16  1  0.35432428  0.63513372  0.57562690  1
  Na  Na17  1  0.36404445  0.62850580  0.90990978  1
  Na  Na18  1  0.87894956  0.12906319  0.25815215  1
  Na  Na19  1  0.87554099  0.13909445  0.58826146  1
  Na  Na20  1  0.86868433  0.13333767  0.91115754  1
  Na  Na21  1  0.87001010  0.64086949  0.26468179  1
  Na  Na22  1  0.86111083  0.63898053  0.57627878  1
  Na  Na23  1  0.87049471  0.63479366  0.91666717  1
  Na  Na24  1  0.99109823  0.04745144  0.75373737  1
  Na  Na25  1  1.01597087  -0.00613474  0.09494203  1
  Na  Na26  1  0.49432858  0.50330505  0.41425195  1
  Na  Na27  1  0.48703908  0.50302289  0.09494078  1
  Na  Na28  1  0.49202490  0.01053105  0.74503590  1
  Na  Na29  1  0.99014732  0.51678763  0.41865990  1
  Na  Na30  1  1.02256887  0.47093306  0.75590275  1
  Na  Na31  1  0.47977926  0.00826898  0.10421312  1
  Na  Na32  1  0.99546385  0.52397530  0.07795821  1
  Na  Na33  1  0.48899655  1.00758432  0.92635652  1
  Na  Na34  1  0.45966577  0.51475367  0.63375460  1
  Na  Na35  1  -0.00192662  0.43177368  0.89616920  1
  Na  Na36  1  0.50403689  1.01085751  0.55465928  1
  Na  Na37  1  0.01208724  0.48496669  0.24572959  1
  Na  Na38  1  0.05888577  1.00221497  0.93513123  1
  Na  Na39  1  0.46675996  1.01154509  0.31313144  1
  Na  Na40  1  0.50548749  0.48930042  0.90258126  1
  Na  Na41  1  0.01026365  0.48439517  0.58365297  1
  Na  Na42  1  0.22810487  0.23352638  0.00027271  1
  Na  Na43  1  0.75404525  0.75219087  -0.00203923  1
  Na  Na44  1  0.75821894  0.76358007  0.65130295  1
  Na  Na45  1  0.26089758  0.76035972  -0.00306355  1
  Na  Na46  1  0.24696002  0.76074887  0.32821984  1
  Na  Na47  1  0.25205966  0.75606856  0.66320433  1
  Na  Na48  1  0.23935963  0.24312021  0.66780194  1
  Na  Na49  1  0.75517865  0.75313796  0.34906936  1
  Na  Na50  1  0.75345809  0.25229874  -0.00469068  1
  Na  Na51  1  0.74704186  0.24146693  0.34473567  1
  Na  Na52  1  0.26345201  0.76154949  0.16542058  1
  Na  Na53  1  0.74149949  0.23435922  0.51320842  1
  Na  Na54  1  0.75672911  0.75996955  0.82842235  1
  Na  Na55  1  0.24245572  0.75522448  0.48988266  1
  Na  Na56  1  0.26518404  0.26298768  0.49558324  1
  Na  Na57  1  0.77350922  0.26327223  0.80900427  1
  Na  Na58  1  0.74399567  0.74684599  0.17134627  1
  Na  Na59  1  0.25379114  0.75268457  0.82841097  1
  Na  Na60  1  0.23497173  0.23185124  0.17515962  1
  Na  Na61  1  0.74350518  0.24186187  0.17319364  1
  Fe  Fe62  1  0.46554372  0.80544560  0.44987979  1
  Fe  Fe63  1  0.96338513  0.81249976  0.12538485  1
  Fe  Fe64  1  0.46154829  0.31101237  0.45407096  1
  Fe  Fe65  1  0.46779029  0.80695019  0.78711631  1
  Fe  Fe66  1  0.96766841  0.81022445  0.78691018  1
  Fe  Fe67  1  0.45984000  0.30371149  0.78042092  1
  Fe  Fe68  1  0.96422318  0.30451670  0.12108650  1
  Fe  Fe69  1  0.46931047  0.80439759  0.12307818  1
  Fe  Fe70  1  0.46500480  0.31107794  0.12004486  1
  Fe  Fe71  1  0.98436825  0.28118764  0.45571010  1
  Fe  Fe72  1  0.20170611  0.53149164  0.70846384  1
  Fe  Fe73  1  0.19482923  0.53329398  0.38191333  1
  Fe  Fe74  1  0.69061736  0.03396618  0.04808087  1
  Fe  Fe75  1  0.20362266  0.02830556  0.37491400  1
  Fe  Fe76  1  0.69120057  0.53640613  0.38274654  1
  Fe  Fe77  1  0.19199355  0.53493491  0.04472824  1
  Fe  Fe78  1  0.69044603  0.53678312  0.71339582  1
  Fe  Fe79  1  0.69209741  0.03719073  0.71493897  1
  Fe  Fe80  1  0.17463335  0.04851963  0.69658724  1
  Fe  Fe81  1  0.69452082  0.53393644  0.04818919  1
  Fe  Fe82  1  0.53488318  0.19546060  0.21830411  1
  Fe  Fe83  1  0.54103321  0.69044148  0.21930550  1
  Fe  Fe84  1  0.53635756  0.69415493  0.54747641  1
  Fe  Fe85  1  0.03983232  0.18883928  0.21686080  1
  Fe  Fe86  1  0.53877752  0.19383103  0.54633747  1
  Fe  Fe87  1  0.53525090  0.19548922  0.88241409  1
  Fe  Fe88  1  0.02909385  0.70035565  0.22123186  1
  Fe  Fe89  1  0.03548678  0.68964550  0.87696349  1
  Fe  Fe90  1  0.03122037  0.70635164  0.54574327  1
  Fe  Fe91  1  0.53620470  0.69065082  0.88040141  1
  Fe  Fe92  1  0.80538807  0.46596298  0.94804089  1
  Fe  Fe93  1  0.80425368  0.96751314  0.61328401  1
  Fe  Fe94  1  0.30746009  0.46126620  0.94820744  1
  Fe  Fe95  1  0.30656862  0.46083746  0.28357391  1
  Fe  Fe96  1  0.30296561  0.96887235  0.95495748  1
  Fe  Fe97  1  0.80067231  0.96950486  0.29642374  1
  Fe  Fe98  1  0.80819520  0.46147912  0.28845437  1
  Fe  Fe99  1  0.80811214  0.96741674  0.95769314  1
  Fe  Fe100  1  0.80768150  0.46941637  0.61920779  1
  Fe  Fe101  1  0.30719817  0.96374254  0.61579525  1
  S  S102  1  0.36332337  0.14277070  0.07953155  1
  S  S103  1  0.36570399  0.14016347  0.42030406  1
  S  S104  1  0.36320956  0.13383929  0.75130544  1
  S  S105  1  0.36184462  0.63584805  0.08227982  1
  S  S106  1  0.36196917  0.63765814  0.41499138  1
  S  S107  1  0.36356227  0.64299071  0.75016604  1
  S  S108  1  0.85609604  0.14119628  0.08645249  1
  S  S109  1  0.85933599  0.14308967  0.41259274  1
  S  S110  1  0.85646406  0.13918108  0.75057166  1
  S  S111  1  0.85999273  0.64042497  0.08261283  1
  S  S112  1  0.86169234  0.63602687  0.41593771  1
  S  S113  1  0.85776713  0.64562704  0.75099974  1
  S  S114  1  0.13970155  0.36010956  0.24889072  1
  S  S115  1  0.14068671  0.36242393  0.58586706  1
  S  S116  1  0.14290749  0.36152191  0.91740090  1
  S  S117  1  0.13748240  0.85987155  0.25010064  1
  S  S118  1  0.14652938  0.86198565  0.58312159  1
  S  S119  1  0.14267381  0.85423302  0.91912263  1
  S  S120  1  0.63961602  0.36082033  0.25075068  1
  S  S121  1  0.63965231  0.36379585  0.58168072  1
  S  S122  1  0.63911211  0.36110239  0.91390082  1
  S  S123  1  0.64074580  0.85497320  0.24881740  1
  S  S124  1  0.63732567  0.86404717  0.58575814  1
  S  S125  1  0.64085948  0.85838719  0.91773307  1
  S  S126  1  0.05657923  0.16638915  0.04690661  1
  S  S127  1  0.08343803  0.17037013  0.37844087  1
  S  S128  1  0.05992064  0.14596772  0.68943556  1
  S  S129  1  0.06892444  0.67289597  0.04391566  1
  S  S130  1  0.06966770  0.65953349  0.37211813  1
  S  S131  1  0.06812145  0.67229509  0.70800564  1
  S  S132  1  0.56884412  0.17303815  0.04372757  1
  S  S133  1  0.56443781  0.17625265  0.37872387  1
  S  S134  1  0.56573224  0.16959646  0.71154107  1
  S  S135  1  0.56613510  0.66322890  0.04016656  1
  S  S136  1  0.56812940  0.66725573  0.37572676  1
  S  S137  1  0.56791450  0.67238990  0.71019611  1
  S  S138  1  0.32602358  0.43013876  0.11964020  1
  S  S139  1  0.33581934  0.43929357  0.45805920  1
  S  S140  1  0.32752231  0.42968206  0.78855950  1
  S  S141  1  0.34341908  0.93363125  0.12814924  1
  S  S142  1  0.33453672  0.92903723  0.45731436  1
  S  S143  1  0.33825086  0.93145956  0.79361458  1
  S  S144  1  0.82896074  0.43303294  0.12581591  1
  S  S145  1  0.83182956  0.43912754  0.45739112  1
  S  S146  1  0.83058119  0.44146390  0.78725830  1
  S  S147  1  0.82445458  0.93199350  0.12529253  1
  S  S148  1  0.82451065  0.93499424  0.45459362  1
  S  S149  1  0.82683144  0.93104234  0.79362620  1
  S  S150  1  0.43261501  0.32986160  0.28923472  1
  S  S151  1  0.43464563  0.32302194  0.62226788  1
  S  S152  1  0.43704363  0.33422738  0.95979461  1
  S  S153  1  0.43385123  0.81683364  0.28674256  1
  S  S154  1  0.43250447  0.82754106  0.62354304  1
  S  S155  1  0.43665189  0.83002188  0.95839357  1
  S  S156  1  0.93271576  0.32783441  0.29449652  1
  S  S157  1  0.93057826  0.34115116  0.61518874  1
  S  S158  1  0.92518181  0.33486001  0.96237449  1
  S  S159  1  0.92060956  0.82776442  0.28830513  1
  S  S160  1  0.93170545  0.83222423  0.62884061  1
  S  S161  1  0.93316745  0.83186709  0.96008829  1
  S  S162  1  0.17065644  0.06421242  0.21095167  1
  S  S163  1  0.17740632  0.06743910  0.53661919  1
  S  S164  1  0.17061647  0.06188169  0.86864123  1
  S  S165  1  0.16633687  0.56865259  0.20827746  1
  S  S166  1  0.16760732  0.57731025  0.54177305  1
  S  S167  1  0.17471170  0.57099955  0.87413054  1
  S  S168  1  0.66940556  0.06642507  0.20837062  1
  S  S169  1  0.67028979  0.06651919  0.54343872  1
  S  S170  1  0.66441796  0.06474619  0.87733903  1
  S  S171  1  0.67221254  0.56546979  0.20910483  1
  S  S172  1  0.66722905  0.56941221  0.54343887  1
  S  S173  1  0.67095543  0.56767028  0.87718980  1
  O  O174  1  0.37806914  0.22061922  0.06998352  1
  O  O175  1  0.36801041  0.22379628  0.42319075  1
  O  O176  1  0.36769492  0.21293363  0.74275292  1
  O  O177  1  0.37177606  0.71560239  0.07595045  1
  O  O178  1  0.36940938  0.71570987  0.40527645  1
  O  O179  1  0.36943090  0.72585280  0.74840110  1
  O  O180  1  0.86412680  0.22174491  0.08141478  1
  O  O181  1  0.88681931  0.21345294  0.39265272  1
  O  O182  1  0.86082728  0.21578239  0.74172621  1
  O  O183  1  0.86871870  0.71804452  0.07234233  1
  O  O184  1  0.86968948  0.70777817  0.39895249  1
  O  O185  1  0.86706504  0.72716082  0.74878663  1
  O  O186  1  0.28556167  0.13700532  0.08623122  1
  O  O187  1  0.28705082  0.12265273  0.42846859  1
  O  O188  1  0.28748969  0.11695111  0.75966367  1
  O  O189  1  0.28359877  0.62896465  0.09269816  1
  O  O190  1  0.28508168  0.62900464  0.42712086  1
  O  O191  1  0.28565754  0.63149615  0.76014652  1
  O  O192  1  0.77610046  0.13087194  0.09249455  1
  O  O193  1  0.77875880  0.15412108  0.41218975  1
  O  O194  1  0.77706505  0.12624025  0.76200887  1
  O  O195  1  0.78044067  0.63114793  0.08939948  1
  O  O196  1  0.78406151  0.62456959  0.42568544  1
  O  O197  1  0.78014045  0.63609966  0.76200146  1
  O  O198  1  0.13240102  0.28055156  0.25304112  1
  O  O199  1  0.12895113  0.29475453  0.60861252  1
  O  O200  1  0.13133589  0.29094002  0.93568807  1
  O  O201  1  0.11986625  0.78410167  0.26259860  1
  O  O202  1  0.13216796  0.78536764  0.59619313  1
  O  O203  1  0.13102600  0.77255544  0.92174237  1
  O  O204  1  0.63326226  0.28124767  0.25851346  1
  O  O205  1  0.63481109  0.28446826  0.58891885  1
  O  O206  1  0.63116292  0.28248414  0.92312139  1
  O  O207  1  0.64075278  0.77225580  0.25182491  1
  O  O208  1  0.62630141  0.78603504  0.59628506  1
  O  O209  1  0.63152614  0.77928995  0.92614231  1
  O  O210  1  0.21595858  0.37085001  0.23586790  1
  O  O211  1  0.21579905  0.37018773  0.57400070  1
  O  O212  1  0.22484461  0.37230186  0.91655074  1
  O  O213  1  0.21235666  0.85729375  0.23569076  1
  O  O214  1  0.23038388  0.86334404  0.58235522  1
  O  O215  1  0.22371378  0.86124815  0.91426768  1
  O  O216  1  0.71773320  0.36976566  0.23985973  1
  O  O217  1  0.71654418  0.37633484  0.57016181  1
  O  O218  1  0.71655490  0.37030540  0.90326636  1
  O  O219  1  0.72143131  0.87246229  0.24434033  1
  O  O220  1  0.71678349  0.87099225  0.58046745  1
  O  O221  1  0.72236086  0.86812190  0.91558451  1
  O  O222  1  0.42356484  0.13341100  0.14749343  1
  O  O223  1  0.42518910  0.12838611  0.48712132  1
  O  O224  1  0.42519749  0.12946993  0.82061748  1
  O  O225  1  0.42223375  0.62411979  0.14767115  1
  O  O226  1  0.42388415  0.63035584  0.48179367  1
  O  O227  1  0.42306772  0.63488470  0.81848503  1
  O  O228  1  0.91445800  0.13137948  0.15328355  1
  O  O229  1  0.91139997  0.13715228  0.48076820  1
  O  O230  1  0.91570411  0.12820849  0.81543739  1
  O  O231  1  0.91866601  0.63245415  0.15088981  1
  O  O232  1  0.92297257  0.63320172  0.48577770  1
  O  O233  1  0.91878314  0.63510453  0.81684212  1
  O  O234  1  0.37276132  0.08208490  0.01205173  1
  O  O235  1  0.37528163  0.09006068  0.35098874  1
  O  O236  1  0.37763159  0.07632831  0.68496751  1
  O  O237  1  0.36745923  0.57798083  0.01262159  1
  O  O238  1  0.36792978  0.57724352  0.34672677  1
  O  O239  1  0.37189341  0.59008363  0.68161922  1
  O  O240  1  0.86225090  0.08435458  0.01640626  1
  O  O241  1  0.86052706  0.07554549  0.34429291  1
  O  O242  1  0.86167049  0.07815159  0.68078804  1
  O  O243  1  0.86975992  0.58023970  0.01586921  1
  O  O244  1  0.87296687  0.56918266  0.35253059  1
  O  O245  1  0.86201144  0.59055175  0.67992271  1
  O  O246  1  0.07696954  0.37364734  0.18515732  1
  O  O247  1  0.07837140  0.35862629  0.51067857  1
  O  O248  1  0.08842664  0.36587530  0.84621282  1
  O  O249  1  0.07548054  0.86912649  0.18381021  1
  O  O250  1  0.09416398  0.86635514  0.51347205  1
  O  O251  1  0.08634900  0.86386402  0.84983036  1
  O  O252  1  0.58032593  0.36806784  0.18268148  1
  O  O253  1  0.57789164  0.37244061  0.51566430  1
  O  O254  1  0.57751435  0.37018568  0.84825334  1
  O  O255  1  0.58574167  0.85520890  0.17501434  1
  O  O256  1  0.57838923  0.87087333  0.51732155  1
  O  O257  1  0.58614214  0.86399605  0.84679453  1
  O  O258  1  0.13506550  0.41750876  0.31985061  1
  O  O259  1  0.12511537  0.43409265  0.64105940  1
  O  O260  1  0.12851803  0.42901278  0.98028882  1
  O  O261  1  0.13832164  0.92339553  0.31878726  1
  O  O262  1  0.14283932  0.92405171  0.65102698  1
  O  O263  1  0.13312094  0.91048760  0.98594998  1
  O  O264  1  0.63269898  0.41875371  0.31918715  1
  O  O265  1  0.63322506  0.42135607  0.65150069  1
  O  O266  1  0.63350747  0.42008488  0.98352756  1
  O  O267  1  0.62325300  0.90797552  0.31136053  1
  O  O268  1  0.62758584  0.92405054  0.65292663  1
  O  O269  1  0.62750650  0.91714010  0.98281451  1
  O  O270  1  0.02457604  0.20580123  0.11220751  1
  O  O271  1  0.04723384  0.19338718  0.44049528  1
  O  O272  1  0.04633625  0.17822938  0.76158859  1
  O  O273  1  0.03033884  0.70099161  0.10318810  1
  O  O274  1  0.04360787  0.69075642  0.43745287  1
  O  O275  1  0.02971555  0.70131542  0.76839872  1
  O  O276  1  0.53812732  0.20467146  0.10775186  1
  O  O277  1  0.52677997  0.21190069  0.43880715  1
  O  O278  1  0.52893098  0.20131658  0.77269181  1
  O  O279  1  0.53182605  0.69280207  0.10207388  1
  O  O280  1  0.53356698  0.70308810  0.43777911  1
  O  O281  1  0.53209029  0.70308073  0.77172654  1
  O  O282  1  0.29859531  0.47122224  0.06201790  1
  O  O283  1  0.29792091  0.46807827  0.39122763  1
  O  O284  1  0.30168065  0.46903961  0.73165899  1
  O  O285  1  0.32345651  0.96368478  0.06317368  1
  O  O286  1  0.30094451  0.96319847  0.39695502  1
  O  O287  1  0.31536574  0.96209170  0.73028913  1
  O  O288  1  0.80022209  0.47042013  0.06553348  1
  O  O289  1  0.78954842  0.46716932  0.39204415  1
  O  O290  1  0.79421374  0.47960173  0.72793384  1
  O  O291  1  0.79443949  0.97027616  0.06490448  1
  O  O292  1  0.79529450  0.97351254  0.39397358  1
  O  O293  1  0.79785449  0.96580742  0.73227606  1
  O  O294  1  0.47094345  0.30081335  0.22898250  1
  O  O295  1  0.47613923  0.29294024  0.56419872  1
  O  O296  1  0.47162808  0.30172758  0.89749143  1
  O  O297  1  0.47459686  0.78519003  0.22761640  1
  O  O298  1  0.46659512  0.79719591  0.56104304  1
  O  O299  1  0.47309094  0.79967111  0.89743013  1
  O  O300  1  0.97279546  0.29859354  0.23651483  1
  O  O301  1  0.95115080  0.32173674  0.54360277  1
  O  O302  1  0.95402105  0.31307467  0.89907544  1
  O  O303  1  0.95318172  0.79760798  0.22251079  1
  O  O304  1  0.96834221  0.80442301  0.56966111  1
  O  O305  1  0.97045692  0.80377056  0.90004577  1
  O  O306  1  0.20298917  0.03812752  0.27846381  1
  O  O307  1  0.21179840  0.03004821  0.59848143  1
  O  O308  1  0.20100429  0.01514275  0.92083517  1
  O  O309  1  0.19692943  0.53309773  0.26974454  1
  O  O310  1  0.19927560  0.55161050  0.60739277  1
  O  O311  1  0.20512700  0.53552613  0.93541254  1
  O  O312  1  0.69943120  0.02687978  0.26497673  1
  O  O313  1  0.70037228  0.03212669  0.60772834  1
  O  O314  1  0.69432433  0.02713511  0.93756833  1
  O  O315  1  0.70041580  0.53001302  0.27028982  1
  O  O316  1  0.69847949  0.53566371  0.60598928  1
  O  O317  1  0.70363059  0.53140852  0.93850617  1
  O  O318  1  0.07029183  0.08709026  0.05023656  1
  O  O319  1  0.10964309  0.09241748  0.37403764  1
  O  O320  1  0.05456011  0.05692699  0.66840346  1
  O  O321  1  0.08542255  0.59063323  0.03880616  1
  O  O322  1  0.08074621  0.57360888  0.36137371  1
  O  O323  1  0.08584897  0.59087373  0.70267876  1
  O  O324  1  0.58410145  0.09023265  0.03665417  1
  O  O325  1  0.58059622  0.09794009  0.37864592  1
  O  O326  1  0.58174414  0.08759148  0.70902758  1
  O  O327  1  0.58239378  0.58033176  0.03353532  1
  O  O328  1  0.58554398  0.58734553  0.37856422  1
  O  O329  1  0.58564258  0.59131063  0.70711950  1
  O  O330  1  0.40804533  0.41396576  0.12366003  1
  O  O331  1  0.41478339  0.41752731  0.45327765  1
  O  O332  1  0.40902886  0.40782896  0.79384330  1
  O  O333  1  0.42521092  0.90894066  0.13729732  1
  O  O334  1  0.41574966  0.91049701  0.45759235  1
  O  O335  1  0.42300807  0.91470463  0.80617135  1
  O  O336  1  0.91059215  0.41433139  0.13204285  1
  O  O337  1  0.91475172  0.43778101  0.46153176  1
  O  O338  1  0.90997757  0.42773067  0.78603290  1
  O  O339  1  0.90553367  0.91598008  0.12843164  1
  O  O340  1  0.90133481  0.91172376  0.45735128  1
  O  O341  1  0.90849136  0.91302236  0.80275496  1
  O  O342  1  0.41351535  0.41098751  0.29278167  1
  O  O343  1  0.41072646  0.39857536  0.62005726  1
  O  O344  1  0.42265802  0.41729497  0.96436093  1
  O  O345  1  0.40945190  0.89190966  0.28434999  1
  O  O346  1  0.41559462  0.90925857  0.62998094  1
  O  O347  1  0.42122970  0.91246502  0.96479268  1
  O  O348  1  0.92034978  0.41161554  0.30035653  1
  O  O349  1  0.91385928  0.42669461  0.63060632  1
  O  O350  1  0.90954009  0.42095265  0.97752054  1
  O  O351  1  0.88998974  0.90422987  0.28563251  1
  O  O352  1  0.90660510  0.91081502  0.63332304  1
  O  O353  1  0.91396354  0.91346261  0.96684197  1
  O  O354  1  0.09012494  0.08797471  0.20811478  1
  O  O355  1  0.09509803  0.07045168  0.52553057  1
  O  O356  1  0.08939618  0.07178770  0.86672016  1
  O  O357  1  0.08355162  0.58489102  0.20276651  1
  O  O358  1  0.08422227  0.59245922  0.53212357  1
  O  O359  1  0.09216454  0.58678417  0.86844047  1
  O  O360  1  0.58936866  0.08837604  0.20644111  1
  O  O361  1  0.59498160  0.09803794  0.55209396  1
  O  O362  1  0.58176741  0.08154468  0.87296467  1
  O  O363  1  0.59040053  0.58438402  0.20238911  1
  O  O364  1  0.58515062  0.58671236  0.53802478  1
  O  O365  1  0.59033715  0.58483509  0.87661514  1
  O  O366  1  0.13084846  0.21511424  0.06284309  1
  O  O367  1  0.14781515  0.22952478  0.39322724  1
  O  O368  1  0.14521904  0.16940060  0.69901121  1
  O  O369  1  0.14152482  0.72343447  0.06125282  1
  O  O370  1  0.14255954  0.70184474  0.37826162  1
  O  O371  1  0.13985353  0.72518647  0.72697751  1
  O  O372  1  0.64072592  0.22241191  0.05598718  1
  O  O373  1  0.63493775  0.22975045  0.39393835  1
  O  O374  1  0.63676836  0.22052576  0.72760413  1
  O  O375  1  0.63804125  0.71341910  0.05442308  1
  O  O376  1  0.63764911  0.71640664  0.38484220  1
  O  O377  1  0.63857920  0.72404388  0.72501655  1
  O  O378  1  0.27441479  0.35851522  0.10092770  1
  O  O379  1  0.28607693  0.37154734  0.45147333  1
  O  O380  1  0.27429759  0.36098062  0.77491897  1
  O  O381  1  0.28806258  0.86349567  0.11083881  1
  O  O382  1  0.28664135  0.85782345  0.44774279  1
  O  O383  1  0.28631213  0.86058940  0.77937830  1
  O  O384  1  0.77613154  0.36192738  0.10831120  1
  O  O385  1  0.79123285  0.36275842  0.44523238  1
  O  O386  1  0.77916411  0.37129691  0.77322263  1
  O  O387  1  0.77277991  0.85886718  0.10497068  1
  O  O388  1  0.76659482  0.86813014  0.43826418  1
  O  O389  1  0.77355172  0.85925886  0.77619184  1
  O  O390  1  0.36269747  0.27685297  0.27251046  1
  O  O391  1  0.36724144  0.26604566  0.60689385  1
  O  O392  1  0.36647182  0.28572145  0.94785390  1
  O  O393  1  0.36618573  0.75921691  0.27031411  1
  O  O394  1  0.36202865  0.77526657  0.60872300  1
  O  O395  1  0.36415482  0.77871832  0.94060049  1
  O  O396  1  0.85792505  0.27974263  0.27309553  1
  O  O397  1  0.86205663  0.28999295  0.60414162  1
  O  O398  1  0.85246537  0.28585562  0.94913077  1
  O  O399  1  0.85374835  0.76994484  0.27342459  1
  O  O400  1  0.86566985  0.77565760  0.61757638  1
  O  O401  1  0.86189531  0.77814186  0.94191953  1
  O  O402  1  0.22280727  0.13107780  0.21823398  1
  O  O403  1  0.22425443  0.14370500  0.55901690  1
  O  O404  1  0.22096877  0.13625380  0.89521835  1
  O  O405  1  0.21693442  0.64042696  0.22357885  1
  O  O406  1  0.21628681  0.64830954  0.54959804  1
  O  O407  1  0.22606268  0.64330253  0.89122260  1
  O  O408  1  0.72274902  0.13662169  0.22308629  1
  O  O409  1  0.72666689  0.13096803  0.55373180  1
  O  O410  1  0.71521737  0.13631829  0.89452348  1
  O  O411  1  0.72499153  0.63534929  0.22395952  1
  O  O412  1  0.71775688  0.63985623  0.55650274  1
  O  O413  1  0.72188012  0.63944122  0.89270592  1
  O  O414  1  0.49862136  0.33913506  0.03275304  1
  O  O415  1  0.49226154  0.33507524  0.36237166  1
  O  O416  1  0.49381768  0.32860271  0.69676563  1
  O  O417  1  0.49458710  0.82888402  0.02996987  1
  O  O418  1  0.49359180  0.82154712  0.36002972  1
  O  O419  1  0.49315235  0.83006721  0.69565783  1
  O  O420  1  0.98625191  0.33413151  0.03357472  1
  O  O421  1  0.98664674  0.32681089  0.36874408  1
  O  O422  1  0.99843073  0.34197316  0.67861004  1
  O  O423  1  0.99074647  0.83473861  0.03370663  1
  O  O424  1  0.98381001  0.83672519  0.35648544  1
  O  O425  1  0.99342515  0.84021442  0.70373511  1
  O  O426  1  0.16030692  -0.00195164  0.14296608  1
  O  O427  1  0.19110329  0.01352375  0.46768867  1
  O  O428  1  0.17178156  0.01487957  0.79189141  1
  O  O429  1  0.16372064  0.50936762  0.13556267  1
  O  O430  1  0.16856667  0.51303678  0.47235326  1
  O  O431  1  0.17212996  0.51310631  0.80130330  1
  O  O432  1  0.66022899  0.00848716  0.13193189  1
  O  O433  1  0.65217002  0.00329185  0.47322766  1
  O  O434  1  0.66099988  0.00666240  0.80405084  1
  O  O435  1  0.66832476  0.50526956  0.13616408  1
  O  O436  1  0.66334361  0.50774794  0.47152359  1
  O  O437  1  0.66745001  0.50927363  0.80457249  1
  O  O438  1  0.01901090  0.16599109  0.30769635  1
  O  O439  1  0.00725699  0.16952444  0.62970268  1
  O  O440  1  -0.00127799  0.16467115  0.97659407  1
  O  O441  1  0.00560698  0.66018322  0.30264126  1
  O  O442  1  0.01014390  0.67242478  0.63603091  1
  O  O443  1  0.01155244  0.67127762  0.97047123  1
  O  O444  1  0.50538134  0.17324444  0.30461486  1
  O  O445  1  0.50652325  0.16473353  0.63863576  1
  O  O446  1  0.50750425  0.17138898  0.97251972  1
  O  O447  1  0.50667379  0.65818388  0.30231488  1
  O  O448  1  0.50772441  0.66813726  0.63765956  1
  O  O449  1  0.50625886  0.66163304  0.96809053  1
  O  O450  1  0.32752118  0.48699038  0.19320154  1
  O  O451  1  0.34790414  0.50474210  0.52710980  1
  O  O452  1  0.33689193  0.48965001  0.86466921  1
  O  O453  1  0.34705889  0.99554865  0.19688533  1
  O  O454  1  0.34584593  0.98930976  0.53282169  1
  O  O455  1  0.33909388  0.99198577  0.86518842  1
  O  O456  1  0.83177149  0.49134171  0.19900202  1
  O  O457  1  0.82648013  0.49809423  0.52742199  1
  O  O458  1  0.83567377  0.49866996  0.86294037  1
  O  O459  1  0.82234495  0.98812602  0.19722289  1
  O  O460  1  0.82567903  0.99558265  0.52637018  1
  O  O461  1  0.82517212  0.98979193  0.86541979  1
