# generated using pymatgen
data_Na31Fe20(SO4)36
_symmetry_space_group_name_H-M   'P 1'
_cell_length_a   18.08884515
_cell_length_b   18.08182406
_cell_length_c   19.70795316
_cell_angle_alpha   107.57271754
_cell_angle_beta   107.57066799
_cell_angle_gamma   90.73705907
_symmetry_Int_Tables_number   1
_chemical_formula_structural   Na31Fe20(SO4)36
_chemical_formula_sum   'Na62 Fe40 S72 O288'
_cell_volume   5820.06289409
_cell_formula_units_Z   2
loop_
 _symmetry_equiv_pos_site_id
 _symmetry_equiv_pos_as_xyz
  1  'x, y, z'
loop_
 _atom_site_type_symbol
 _atom_site_label
 _atom_site_symmetry_multiplicity
 _atom_site_fract_x
 _atom_site_fract_y
 _atom_site_fract_z
 _atom_site_occupancy
  Na  Na0  1  0.13869585  0.36351031  0.08871792  1
  Na  Na1  1  0.13176020  0.37283537  0.42217071  1
  Na  Na2  1  0.12887631  0.37186451  0.75083554  1
  Na  Na3  1  0.12621928  0.85533772  0.07071307  1
  Na  Na4  1  0.14338225  0.85158801  0.41521921  1
  Na  Na5  1  0.15790312  0.86300599  0.77232757  1
  Na  Na6  1  0.62378611  0.38249959  0.08467488  1
  Na  Na7  1  0.63273523  0.36628715  0.41520052  1
  Na  Na8  1  0.64058714  0.37346251  0.76326613  1
  Na  Na9  1  0.64108286  0.86300204  0.08020480  1
  Na  Na10  1  0.62037395  0.84805502  0.38941633  1
  Na  Na11  1  0.63570161  0.86671987  0.74969178  1
  Na  Na12  1  0.35982398  0.12851127  0.24443578  1
  Na  Na13  1  0.35834274  0.13144133  0.57239101  1
  Na  Na14  1  0.37419838  0.12340179  0.92175488  1
  Na  Na15  1  0.35685797  0.65068821  0.25417522  1
  Na  Na16  1  0.37206762  0.64057331  0.59300772  1
  Na  Na17  1  0.36043355  0.67805288  0.95175429  1
  Na  Na18  1  0.86554599  0.12664478  0.24119665  1
  Na  Na19  1  0.86834435  0.12637697  0.57926449  1
  Na  Na20  1  0.86421917  0.13931265  0.91887659  1
  Na  Na21  1  0.87699136  0.63983181  0.26604457  1
  Na  Na22  1  0.87470084  0.63602206  0.59142471  1
  Na  Na23  1  0.86480713  0.62874539  0.91764934  1
  Na  Na24  1  0.48925275  0.00898629  0.76391187  1
  Na  Na25  1  1.04744873  -0.01901571  0.36443156  1
  Na  Na26  1  0.98630195  -0.00034029  0.10411203  1
  Na  Na27  1  0.99804612  0.56668973  0.46159570  1
  Na  Na28  1  0.49111500  0.01167960  0.41018120  1
  Na  Na29  1  1.01444857  -0.01369974  0.74544884  1
  Na  Na30  1  0.96845799  0.51037489  0.07215436  1
  Na  Na31  1  0.48150186  0.50802384  0.77913207  1
  Na  Na32  1  0.48974768  0.51181597  0.40556241  1
  Na  Na33  1  0.00220234  0.92210742  0.53973801  1
  Na  Na34  1  0.00444687  0.98801032  0.92263547  1
  Na  Na35  1  0.48556470  0.54913838  0.18868101  1
  Na  Na36  1  0.00045484  0.49591870  0.90162021  1
  Na  Na37  1  0.50751814  0.49178302  0.58820896  1
  Na  Na38  1  0.50675952  0.98822273  0.58461141  1
  Na  Na39  1  0.00472127  0.48888805  0.25044786  1
  Na  Na40  1  0.50704230  0.92105845  0.18264418  1
  Na  Na41  1  0.54742255  0.99060565  1.02567344  1
  Na  Na42  1  0.23941282  0.73622449  0.68651983  1
  Na  Na43  1  0.25659333  0.25424881  0.32604641  1
  Na  Na44  1  0.74906692  0.74684733  0.00369370  1
  Na  Na45  1  0.74684147  0.24597336  0.32881691  1
  Na  Na46  1  0.24422642  0.24280473  0.01119542  1
  Na  Na47  1  0.75400581  0.25413623  0.66409060  1
  Na  Na48  1  0.23991509  0.23950803  0.67012603  1
  Na  Na49  1  0.76932806  0.76247643  0.33122051  1
  Na  Na50  1  0.74206074  0.24785460  0.00637812  1
  Na  Na51  1  0.75461684  0.75261408  0.66134842  1
  Na  Na52  1  0.75943809  0.75803116  0.48874581  1
  Na  Na53  1  0.74694004  0.74612567  0.83620782  1
  Na  Na54  1  0.26126642  0.76018908  0.14886024  1
  Na  Na55  1  0.23612714  0.23720068  0.49926673  1
  Na  Na56  1  0.75495698  0.25552475  0.49693172  1
  Na  Na57  1  0.75503419  0.25757618  0.83466572  1
  Na  Na58  1  0.24263525  0.74182732  0.50735123  1
  Na  Na59  1  0.73879798  0.23641570  0.16536750  1
  Na  Na60  1  0.24349417  0.24079237  0.83997161  1
  Na  Na61  1  0.74495661  0.74186599  0.16937831  1
  Fe  Fe62  1  0.96797304  0.80743192  0.12493617  1
  Fe  Fe63  1  0.96487930  0.31050004  0.45505639  1
  Fe  Fe64  1  0.96482260  0.80377473  0.78492325  1
  Fe  Fe65  1  0.46161202  0.80562712  0.44683567  1
  Fe  Fe66  1  0.46254921  0.30972227  0.79062379  1
  Fe  Fe67  1  0.96777132  0.30779206  0.11717877  1
  Fe  Fe68  1  0.46022592  0.31202475  0.12170613  1
  Fe  Fe69  1  0.46563414  0.30757589  0.44953796  1
  Fe  Fe70  1  0.96606519  0.30467810  0.78532234  1
  Fe  Fe71  1  0.46228382  0.81584155  0.79079727  1
  Fe  Fe72  1  0.68651703  0.03476727  0.37408789  1
  Fe  Fe73  1  0.19012867  0.53971879  0.71654783  1
  Fe  Fe74  1  0.19632913  0.03496486  0.04590958  1
  Fe  Fe75  1  0.19413904  0.02760118  0.71209650  1
  Fe  Fe76  1  0.69710583  0.53402854  0.71491760  1
  Fe  Fe77  1  0.19361624  0.53498572  0.38305085  1
  Fe  Fe78  1  0.69136862  0.03640286  0.71309190  1
  Fe  Fe79  1  0.69891286  0.53208347  0.04022516  1
  Fe  Fe80  1  0.68472655  0.53362583  0.37339546  1
  Fe  Fe81  1  0.18768945  0.53322310  0.04712851  1
  Fe  Fe82  1  0.04007118  0.68877629  0.88010162  1
  Fe  Fe83  1  0.53070070  0.18759744  0.20846805  1
  Fe  Fe84  1  0.03442854  0.18868243  0.87967253  1
  Fe  Fe85  1  0.53435518  0.19467957  0.54794142  1
  Fe  Fe86  1  0.03486715  0.18633143  0.54253399  1
  Fe  Fe87  1  0.03725332  0.19262044  0.21700232  1
  Fe  Fe88  1  0.53747373  0.69760265  0.88494777  1
  Fe  Fe89  1  0.53538866  0.69279925  0.54716993  1
  Fe  Fe90  1  0.53446596  0.19650867  0.88435474  1
  Fe  Fe91  1  0.03761244  0.69104766  0.21789475  1
  Fe  Fe92  1  0.81218483  0.46292061  0.62120851  1
  Fe  Fe93  1  0.30308992  0.46540226  0.28230203  1
  Fe  Fe94  1  0.79957787  0.97053583  0.95668140  1
  Fe  Fe95  1  0.80828233  0.46445091  0.28620547  1
  Fe  Fe96  1  0.30862786  0.96719764  0.61596539  1
  Fe  Fe97  1  0.30888170  0.46264266  0.62108727  1
  Fe  Fe98  1  0.30647539  0.47041458  0.95486215  1
  Fe  Fe99  1  0.81411037  0.96666122  0.28997807  1
  Fe  Fe100  1  0.29653788  0.96653189  0.28893870  1
  Fe  Fe101  1  0.80530303  0.96602001  0.61878879  1
  S  S102  1  0.35738993  0.14450739  0.08559866  1
  S  S103  1  0.36072908  0.14075302  0.41661100  1
  S  S104  1  0.36068938  0.14048945  0.74955808  1
  S  S105  1  0.35057549  0.63953038  0.08484648  1
  S  S106  1  0.35975866  0.63891574  0.41755270  1
  S  S107  1  0.36619638  0.63743342  0.75124438  1
  S  S108  1  0.86405280  0.14240698  0.08047932  1
  S  S109  1  0.85723968  0.14259650  0.41592196  1
  S  S110  1  0.85710462  0.14072239  0.74982951  1
  S  S111  1  0.86230485  0.64152777  0.08606637  1
  S  S112  1  0.85034817  0.63860325  0.41847793  1
  S  S113  1  0.86094713  0.63902341  0.75025800  1
  S  S114  1  0.13988000  0.36011208  0.25286674  1
  S  S115  1  0.14013065  0.35939438  0.58415329  1
  S  S116  1  0.14124411  0.35824710  0.91521933  1
  S  S117  1  0.14140655  0.85227180  0.24766201  1
  S  S118  1  0.15235956  0.85306289  0.58536630  1
  S  S119  1  0.13019387  0.86667106  0.91829354  1
  S  S120  1  0.63804019  0.35887787  0.24858928  1
  S  S121  1  0.63916414  0.36048783  0.58489554  1
  S  S122  1  0.63945475  0.36027230  0.91471304  1
  S  S123  1  0.65262058  0.85567299  0.25181526  1
  S  S124  1  0.63832753  0.86041550  0.58085026  1
  S  S125  1  0.64204110  0.85916406  0.91182864  1
  S  S126  1  0.06981497  0.17020993  0.04007236  1
  S  S127  1  0.06614008  0.17752554  0.37897725  1
  S  S128  1  0.06619537  0.16602574  0.70871224  1
  S  S129  1  0.06156240  0.66434363  0.04051201  1
  S  S130  1  0.06768113  0.65992473  0.37652524  1
  S  S131  1  0.06782542  0.67365805  0.71372441  1
  S  S132  1  0.56963402  0.18367001  0.04895820  1
  S  S133  1  0.56796483  0.17409234  0.37716951  1
  S  S134  1  0.56514634  0.17076168  0.70835436  1
  S  S135  1  0.57826995  0.66672315  0.03971031  1
  S  S136  1  0.56112677  0.66640484  0.37628469  1
  S  S137  1  0.57047398  0.66929462  0.70929874  1
  S  S138  1  0.32692872  0.43449504  0.12484285  1
  S  S139  1  0.33379803  0.43332459  0.45919316  1
  S  S140  1  0.32320826  0.42920529  0.78788797  1
  S  S141  1  0.31392615  0.93085462  0.12213491  1
  S  S142  1  0.33378644  0.93362557  0.45783252  1
  S  S143  1  0.33291269  0.93747381  0.78645047  1
  S  S144  1  0.83411547  0.43418337  0.12513440  1
  S  S145  1  0.82503139  0.42841902  0.45538031  1
  S  S146  1  0.83133470  0.43189512  0.78892810  1
  S  S147  1  0.83402092  0.93181082  0.12553536  1
  S  S148  1  0.81991685  0.93492386  0.45241859  1
  S  S149  1  0.82733756  0.93435181  0.79095663  1
  S  S150  1  0.43151196  0.33275079  0.29266187  1
  S  S151  1  0.43334543  0.33042832  0.62551699  1
  S  S152  1  0.42457191  0.32434910  0.95544807  1
  S  S153  1  0.42883546  0.84065502  0.29002111  1
  S  S154  1  0.43678582  0.83162733  0.62324164  1
  S  S155  1  0.44590633  0.84269909  0.95455353  1
  S  S156  1  0.93059836  0.32759347  0.28886181  1
  S  S157  1  0.93090928  0.32217474  0.62113430  1
  S  S158  1  0.94198281  0.33155363  0.95538978  1
  S  S159  1  0.94023478  0.83052138  0.29424816  1
  S  S160  1  0.92770666  0.83443333  0.62649976  1
  S  S161  1  0.92540684  0.83203706  0.95887044  1
  S  S162  1  0.17036127  0.06752334  0.20931489  1
  S  S163  1  0.16872453  0.06397227  0.54220615  1
  S  S164  1  0.16620470  0.06711203  0.87660144  1
  S  S165  1  0.16525954  0.56211448  0.20616322  1
  S  S166  1  0.18140965  0.56815028  0.55198239  1
  S  S167  1  0.16792323  0.56592692  0.87750249  1
  S  S168  1  0.67017317  0.06680161  0.20892462  1
  S  S169  1  0.66545555  0.06700176  0.54033557  1
  S  S170  1  0.67029649  0.07105782  0.87409479  1
  S  S171  1  0.68207724  0.57120882  0.21081159  1
  S  S172  1  0.66698478  0.56423012  0.54161210  1
  S  S173  1  0.67276258  0.57170273  0.87486179  1
  O  O174  1  0.36485714  0.22655750  0.08272317  1
  O  O175  1  0.37481987  0.21772944  0.40534553  1
  O  O176  1  0.36924779  0.22069978  0.74355641  1
  O  O177  1  0.35834088  0.71717810  0.07836665  1
  O  O178  1  0.36926204  0.71601830  0.40764759  1
  O  O179  1  0.37649593  0.71367930  0.73793930  1
  O  O180  1  0.87865513  0.21916597  0.06786793  1
  O  O181  1  0.86565405  0.22288720  0.40998324  1
  O  O182  1  0.86701167  0.22109881  0.74484638  1
  O  O183  1  0.86887741  0.72313995  0.08262919  1
  O  O184  1  0.85756504  0.71499183  0.40864783  1
  O  O185  1  0.86780898  0.71728556  0.73949913  1
  O  O186  1  0.27564676  0.13317147  0.08995138  1
  O  O187  1  0.28828173  0.13762703  0.43350012  1
  O  O188  1  0.28161104  0.13091396  0.75693635  1
  O  O189  1  0.26823749  0.62545704  0.08810608  1
  O  O190  1  0.28170645  0.62932773  0.42683662  1
  O  O191  1  0.28679630  0.62913017  0.75652707  1
  O  O192  1  0.78792244  0.14010575  0.09096052  1
  O  O193  1  0.77805386  0.13394822  0.42405566  1
  O  O194  1  0.77752343  0.13297064  0.75746664  1
  O  O195  1  0.78146877  0.62917676  0.09017386  1
  O  O196  1  0.76694304  0.62456282  0.41797222  1
  O  O197  1  0.78163394  0.63065276  0.75870136  1
  O  O198  1  0.13017180  0.28086981  0.25970953  1
  O  O199  1  0.13013418  0.27916511  0.59061694  1
  O  O200  1  0.13353025  0.27699470  0.91869906  1
  O  O201  1  0.13461623  0.76997419  0.24714113  1
  O  O202  1  0.15154189  0.77789709  0.59821082  1
  O  O203  1  0.11333621  0.79325758  0.93329093  1
  O  O204  1  0.62685086  0.27973175  0.25630669  1
  O  O205  1  0.62928408  0.28134453  0.59273921  1
  O  O206  1  0.62833179  0.28137184  0.92413342  1
  O  O207  1  0.64502271  0.78461797  0.27121056  1
  O  O208  1  0.63062209  0.78343640  0.59335681  1
  O  O209  1  0.63767840  0.77608424  0.91423359  1
  O  O210  1  0.21827098  0.36941846  0.24526740  1
  O  O211  1  0.21815018  0.36556311  0.57252528  1
  O  O212  1  0.21874991  0.36893823  0.90532410  1
  O  O213  1  0.22293232  0.86805705  0.24428956  1
  O  O214  1  0.23240268  0.87117171  0.58017261  1
  O  O215  1  0.20304695  0.87178280  0.90403163  1
  O  O216  1  0.71752021  0.36518559  0.24085225  1
  O  O217  1  0.71781867  0.36727620  0.57614010  1
  O  O218  1  0.71134598  0.36593005  0.89680485  1
  O  O219  1  0.73764585  0.86890869  0.25608502  1
  O  O220  1  0.71825577  0.86958114  0.57552858  1
  O  O221  1  0.71979940  0.87099419  0.90073645  1
  O  O222  1  0.41379004  0.14006260  0.15737710  1
  O  O223  1  0.42687510  0.12910785  0.47941183  1
  O  O224  1  0.42058611  0.13065178  0.81646779  1
  O  O225  1  0.40465623  0.62971017  0.15288927  1
  O  O226  1  0.41941539  0.63078914  0.48598609  1
  O  O227  1  0.42536120  0.63146204  0.82052954  1
  O  O228  1  0.92548964  0.13260098  0.14723342  1
  O  O229  1  0.91594298  0.13354506  0.48331803  1
  O  O230  1  0.91508560  0.12979151  0.81657968  1
  O  O231  1  0.91884065  0.63332364  0.15598475  1
  O  O232  1  0.90241246  0.63334007  0.48937314  1
  O  O233  1  0.91960071  0.63363592  0.81881655  1
  O  O234  1  0.36889952  0.08873417  0.02071728  1
  O  O235  1  0.36093863  0.07864203  0.34593320  1
  O  O236  1  0.37023335  0.08397527  0.68083414  1
  O  O237  1  0.35959100  0.58056782  0.01571292  1
  O  O238  1  0.36771860  0.57742503  0.35045307  1
  O  O239  1  0.37782472  0.57441099  0.68620936  1
  O  O240  1  0.86946132  0.08054776  0.01252387  1
  O  O241  1  0.86521117  0.08560949  0.34712679  1
  O  O242  1  0.86299988  0.08394704  0.68009115  1
  O  O243  1  0.87437454  0.58596439  0.02007915  1
  O  O244  1  0.86638913  0.57710618  0.35462697  1
  O  O245  1  0.86651793  0.57919992  0.68206455  1
  O  O246  1  0.07989799  0.36961701  0.18559019  1
  O  O247  1  0.08005381  0.36882821  0.51772868  1
  O  O248  1  0.07976162  0.36871526  0.84929208  1
  O  O249  1  0.08560547  0.86135653  0.17756601  1
  O  O250  1  0.09591184  0.85422183  0.51453992  1
  O  O251  1  0.06471335  0.87858789  0.85390125  1
  O  O252  1  0.57933611  0.36960038  0.18234355  1
  O  O253  1  0.57993621  0.37027240  0.51761433  1
  O  O254  1  0.57285920  0.37027472  0.85190856  1
  O  O255  1  0.60488579  0.85161816  0.17617279  1
  O  O256  1  0.58043478  0.86589576  0.51149040  1
  O  O257  1  0.58202005  0.86684841  0.84411683  1
  O  O258  1  0.13128827  0.41849460  0.32113611  1
  O  O259  1  0.13600057  0.41749470  0.65361885  1
  O  O260  1  0.13389957  0.41382348  0.98513888  1
  O  O261  1  0.13108071  0.90579170  0.31514125  1
  O  O262  1  0.13709645  0.91511197  0.65024518  1
  O  O263  1  0.12429426  0.93196607  0.98677303  1
  O  O264  1  0.63231065  0.41767020  0.31807767  1
  O  O265  1  0.63090368  0.41938532  0.65283616  1
  O  O266  1  0.64039553  0.41916762  0.98667546  1
  O  O267  1  0.63213995  0.92220967  0.30872651  1
  O  O268  1  0.62751393  0.92207875  0.64682199  1
  O  O269  1  0.63751913  0.91357632  0.98127114  1
  O  O270  1  0.03916438  0.20049667  0.10459567  1
  O  O271  1  0.02592087  0.20886539  0.43846597  1
  O  O272  1  0.02853717  0.19784266  0.76909036  1
  O  O273  1  0.02404714  0.69303128  0.10067412  1
  O  O274  1  0.03014363  0.67598138  0.43371890  1
  O  O275  1  0.03351835  0.70558590  0.77906849  1
  O  O276  1  0.52603491  0.21119183  0.10568302  1
  O  O277  1  0.53538306  0.20805610  0.44077096  1
  O  O278  1  0.53077580  0.20120480  0.77028809  1
  O  O279  1  0.54744005  0.68301397  0.10094780  1
  O  O280  1  0.52880131  0.70041579  0.44158075  1
  O  O281  1  0.53533363  0.69684850  0.77027213  1
  O  O282  1  0.29486874  0.46693431  0.06165830  1
  O  O283  1  0.30096471  0.46845945  0.39798654  1
  O  O284  1  0.29504850  0.46733127  0.72779792  1
  O  O285  1  0.28477905  0.97873900  0.07050323  1
  O  O286  1  0.30471678  0.96822259  0.39669683  1
  O  O287  1  0.30076483  0.97248580  0.72269931  1
  O  O288  1  0.80237497  0.47050007  0.06614723  1
  O  O289  1  0.79430752  0.46397347  0.39445768  1
  O  O290  1  0.79865625  0.46436630  0.72382461  1
  O  O291  1  0.81348869  0.96868333  0.06587867  1
  O  O292  1  0.79004309  0.97887845  0.39706922  1
  O  O293  1  0.79658623  0.97169098  0.73033096  1
  O  O294  1  0.46721269  0.30383938  0.23163330  1
  O  O295  1  0.46851193  0.30086512  0.56336586  1
  O  O296  1  0.46484013  0.29483844  0.89659993  1
  O  O297  1  0.47028233  0.83649492  0.23708649  1
  O  O298  1  0.47265258  0.80115356  0.56154435  1
  O  O299  1  0.47903692  0.79238358  0.89014225  1
  O  O300  1  0.96776313  0.29743910  0.22812042  1
  O  O301  1  0.96826200  0.29197177  0.56098297  1
  O  O302  1  0.97493394  0.28960232  0.89293261  1
  O  O303  1  0.97426042  0.79689311  0.23031980  1
  O  O304  1  0.95923231  0.81495225  0.56507846  1
  O  O305  1  0.95431232  0.79998269  0.89390852  1
  O  O306  1  0.19820668  0.02434365  0.26411821  1
  O  O307  1  0.20291496  0.03369929  0.60786496  1
  O  O308  1  0.19297093  0.03729204  0.94072368  1
  O  O309  1  0.19752002  0.52717974  0.26886795  1
  O  O310  1  0.21284370  0.52662959  0.60999241  1
  O  O311  1  0.19598730  0.52523292  0.93606655  1
  O  O312  1  0.70570276  0.03416557  0.27265063  1
  O  O313  1  0.69744015  0.03146970  0.60189021  1
  O  O314  1  0.69938894  0.03537040  0.93327841  1
  O  O315  1  0.70842592  0.52472399  0.26567517  1
  O  O316  1  0.69817147  0.52821528  0.60280529  1
  O  O317  1  0.69739393  0.53619506  0.93455326  1
  O  O318  1  0.09314497  0.08976126  0.03662744  1
  O  O319  1  0.09218121  0.10311468  0.38315302  1
  O  O320  1  0.08516789  0.08575218  0.70757653  1
  O  O321  1  0.07535606  0.58041338  0.03319425  1
  O  O322  1  0.08702418  0.57509350  0.36038207  1
  O  O323  1  0.09349139  0.59621421  0.71669435  1
  O  O324  1  0.60169481  0.11208420  0.05513186  1
  O  O325  1  0.58348820  0.09278686  0.37560882  1
  O  O326  1  0.58085769  0.08776096  0.70185189  1
  O  O327  1  0.60086675  0.58478571  0.01967504  1
  O  O328  1  0.58031810  0.58553655  0.37701549  1
  O  O329  1  0.58909726  0.58704182  0.70100435  1
  O  O330  1  0.40934594  0.41909565  0.13069736  1
  O  O331  1  0.41676063  0.41855398  0.46306153  1
  O  O332  1  0.40397248  0.40944177  0.78923328  1
  O  O333  1  0.38853784  0.90958417  0.11577050  1
  O  O334  1  0.41782330  0.91804624  0.46654188  1
  O  O335  1  0.41373106  0.91895214  0.78441623  1
  O  O336  1  0.91650757  0.41654619  0.12582521  1
  O  O337  1  0.90507016  0.40869590  0.45811275  1
  O  O338  1  0.90972831  0.40663419  0.78724500  1
  O  O339  1  0.91677316  0.91273583  0.13726944  1
  O  O340  1  0.89480753  0.91110590  0.44700213  1
  O  O341  1  0.90958840  0.91856461  0.79743596  1
  O  O342  1  0.40950213  0.41316086  0.29624994  1
  O  O343  1  0.41878941  0.41385083  0.63198165  1
  O  O344  1  0.39817864  0.39988560  0.95183368  1
  O  O345  1  0.39996416  0.92134433  0.31091073  1
  O  O346  1  0.42261927  0.91497666  0.62905038  1
  O  O347  1  0.43604733  0.91719372  0.93983063  1
  O  O348  1  0.91251452  0.40853800  0.29154389  1
  O  O349  1  0.90813526  0.40024095  0.62173786  1
  O  O350  1  0.93737663  0.41264738  0.95626685  1
  O  O351  1  0.91738810  0.90969866  0.29227363  1
  O  O352  1  0.90774662  0.91881113  0.64181782  1
  O  O353  1  0.91202890  0.91596387  0.96666529  1
  O  O354  1  0.08921916  0.08663582  0.20644699  1
  O  O355  1  0.08943622  0.08709857  0.54301356  1
  O  O356  1  0.08134064  0.08188936  0.86538291  1
  O  O357  1  0.08225186  0.57648810  0.20103901  1
  O  O358  1  0.10606668  0.59045680  0.55640215  1
  O  O359  1  0.08539590  0.58105099  0.87433153  1
  O  O360  1  0.59383324  0.09395261  0.21571696  1
  O  O361  1  0.58328472  0.08338531  0.53804215  1
  O  O362  1  0.58922615  0.09209241  0.86878639  1
  O  O363  1  0.60622573  0.59403802  0.21218358  1
  O  O364  1  0.58379431  0.57917162  0.53674746  1
  O  O365  1  0.59155182  0.59496938  0.86386865  1
  O  O366  1  0.13536631  0.22366901  0.04735651  1
  O  O367  1  0.13253892  0.23586870  0.39366245  1
  O  O368  1  0.13772111  0.21878627  0.72602215  1
  O  O369  1  0.13301071  0.71440432  0.05727490  1
  O  O370  1  0.13930292  0.71217721  0.39539980  1
  O  O371  1  0.13566619  0.72909715  0.72903873  1
  O  O372  1  0.63293485  0.24588798  0.06413403  1
  O  O373  1  0.64054739  0.22340869  0.39128025  1
  O  O374  1  0.63736892  0.22052920  0.72292443  1
  O  O375  1  0.64800038  0.72206454  0.05318125  1
  O  O376  1  0.63235983  0.71704211  0.39100801  1
  O  O377  1  0.64119785  0.72151567  0.72368615  1
  O  O378  1  0.27727993  0.36346761  0.11227589  1
  O  O379  1  0.28524365  0.36043106  0.44441914  1
  O  O380  1  0.27078646  0.35755129  0.76987877  1
  O  O381  1  0.25604412  0.86464468  0.10438711  1
  O  O382  1  0.28519160  0.86316644  0.44690239  1
  O  O383  1  0.28438784  0.86425787  0.76936642  1
  O  O384  1  0.78549980  0.36192807  0.11265052  1
  O  O385  1  0.77188519  0.35728120  0.43993320  1
  O  O386  1  0.77670005  0.36270380  0.77477229  1
  O  O387  1  0.78060046  0.86079617  0.10686801  1
  O  O388  1  0.76230300  0.86743772  0.43624134  1
  O  O389  1  0.77642437  0.86130349  0.77178754  1
  O  O390  1  0.36478108  0.27918588  0.28259802  1
  O  O391  1  0.36064374  0.28067761  0.60889116  1
  O  O392  1  0.35874186  0.26563131  0.94067055  1
  O  O393  1  0.36209370  0.78075396  0.26478041  1
  O  O394  1  0.36528710  0.78093706  0.60674925  1
  O  O395  1  0.37449962  0.79760196  0.94508829  1
  O  O396  1  0.85937978  0.27516964  0.27235588  1
  O  O397  1  0.86117514  0.26712389  0.60585131  1
  O  O398  1  0.86624478  0.28776320  0.94119627  1
  O  O399  1  0.87068341  0.77652816  0.27928958  1
  O  O400  1  0.85644504  0.78171572  0.61176432  1
  O  O401  1  0.85345673  0.78375625  0.94794916  1
  O  O402  1  0.22348076  0.13843939  0.22908577  1
  O  O403  1  0.22119801  0.13511049  0.55592150  1
  O  O404  1  0.21551838  0.13896494  0.88980173  1
  O  O405  1  0.21461010  0.63235187  0.21905738  1
  O  O406  1  0.23884410  0.63569032  0.56838762  1
  O  O407  1  0.21745967  0.63750841  0.89508232  1
  O  O408  1  0.72471163  0.13537228  0.22031590  1
  O  O409  1  0.71550823  0.13940936  0.55616351  1
  O  O410  1  0.72278688  0.14192999  0.88759260  1
  O  O411  1  0.74111147  0.63887702  0.23214818  1
  O  O412  1  0.71609657  0.63715752  0.55805382  1
  O  O413  1  0.72799214  0.64067667  0.89017064  1
  O  O414  1  0.48399555  0.33429618  0.02990399  1
  O  O415  1  0.49503052  0.34141896  0.36591779  1
  O  O416  1  0.49201432  0.33155787  0.69772142  1
  O  O417  1  0.50808861  0.85313095  0.02666511  1
  O  O418  1  0.48620471  0.83718631  0.36324529  1
  O  O419  1  0.49522319  0.83234405  0.69559284  1
  O  O420  1  0.99854153  0.32936644  0.02815582  1
  O  O421  1  0.98905198  0.33138034  0.36186984  1
  O  O422  1  0.99043019  0.32627611  0.69398544  1
  O  O423  1  0.98697388  0.83237634  0.02975973  1
  O  O424  1  1.00189629  0.83983834  0.36497288  1
  O  O425  1  0.98807068  0.83602839  0.69931788  1
  O  O426  1  0.16365369  0.01377249  0.13202842  1
  O  O427  1  0.16167213  0.00185202  0.47250262  1
  O  O428  1  0.16533606  0.00579597  0.80529514  1
  O  O429  1  0.16161594  0.50031233  0.13408055  1
  O  O430  1  0.17490818  0.51024227  0.47659124  1
  O  O431  1  0.16570262  0.50757133  0.80430252  1
  O  O432  1  0.65691743  0.00488656  0.13756041  1
  O  O433  1  0.66076412  0.00878905  0.46715267  1
  O  O434  1  0.66364999  0.01135514  0.79901676  1
  O  O435  1  0.67905195  0.51584695  0.13504859  1
  O  O436  1  0.66493029  0.50587775  0.46900886  1
  O  O437  1  0.67034873  0.51070769  0.80254829  1
  O  O438  1  0.00642900  0.16991500  0.30451545  1
  O  O439  1  0.00834076  0.16374664  0.63596694  1
  O  O440  1  0.00459103  0.15988683  0.96824911  1
  O  O441  1  0.01111837  0.66144426  0.30262382  1
  O  O442  1  0.00551935  0.66564366  0.64441828  1
  O  O443  1  0.00360912  0.66371897  0.96731245  1
  O  O444  1  0.50798939  0.17316708  0.30643897  1
  O  O445  1  0.50527302  0.16874945  0.63604748  1
  O  O446  1  0.51070333  0.17183388  0.97315544  1
  O  O447  1  0.49941120  0.66000027  0.30643159  1
  O  O448  1  0.51057017  0.66698715  0.63638709  1
  O  O449  1  0.51614266  0.67127675  0.96895170  1
  O  O450  1  0.32922373  0.49607417  0.19640011  1
  O  O451  1  0.33834600  0.49170853  0.53273247  1
  O  O452  1  0.32710653  0.48728689  0.86010077  1
  O  O453  1  0.32302523  0.98557822  0.20171985  1
  O  O454  1  0.33779994  0.99601587  0.53049482  1
  O  O455  1  0.33476738  0.99693863  0.85525481  1
  O  O456  1  0.84326398  0.49188427  0.20104686  1
  O  O457  1  0.82791957  0.48699593  0.52841881  1
  O  O458  1  0.84080981  0.49401696  0.85897212  1
  O  O459  1  0.83112298  0.99062192  0.19647624  1
  O  O460  1  0.82817619  0.99132587  0.52905432  1
  O  O461  1  0.82735926  0.99182745  0.86331992  1
