# generated using pymatgen
data_Na31Fe20(SO4)36
_symmetry_space_group_name_H-M   'P 1'
_cell_length_a   18.05676275
_cell_length_b   18.05981402
_cell_length_c   19.67570592
_cell_angle_alpha   107.58751914
_cell_angle_beta   107.59374770
_cell_angle_gamma   90.67806052
_symmetry_Int_Tables_number   1
_chemical_formula_structural   Na31Fe20(SO4)36
_chemical_formula_sum   'Na62 Fe40 S72 O288'
_cell_volume   5792.56218593
_cell_formula_units_Z   2
loop_
 _symmetry_equiv_pos_site_id
 _symmetry_equiv_pos_as_xyz
  1  'x, y, z'
loop_
 _atom_site_type_symbol
 _atom_site_label
 _atom_site_symmetry_multiplicity
 _atom_site_fract_x
 _atom_site_fract_y
 _atom_site_fract_z
 _atom_site_occupancy
  Na  Na0  1  0.14254139  0.36310842  0.07736235  1
  Na  Na1  1  0.13629090  0.36112098  0.41696951  1
  Na  Na2  1  0.14032507  0.36629882  0.75210126  1
  Na  Na3  1  0.12212009  0.85803214  0.06732961  1
  Na  Na4  1  0.12820007  0.86235362  0.41142509  1
  Na  Na5  1  0.15101783  0.86153738  0.76376218  1
  Na  Na6  1  0.62488534  0.37448673  0.08528129  1
  Na  Na7  1  0.63654806  0.37407505  0.42464116  1
  Na  Na8  1  0.63478323  0.36301570  0.74710414  1
  Na  Na9  1  0.64194524  0.87027547  0.09237365  1
  Na  Na10  1  0.62838494  0.85413870  0.39992897  1
  Na  Na11  1  0.63225820  0.86605811  0.74744859  1
  Na  Na12  1  0.36510040  0.12523670  0.24209952  1
  Na  Na13  1  0.36512967  0.13307698  0.58461223  1
  Na  Na14  1  0.36890539  0.15703886  0.94142057  1
  Na  Na15  1  0.36836976  0.64546283  0.24540374  1
  Na  Na16  1  0.36536832  0.63538735  0.58373562  1
  Na  Na17  1  0.37312298  0.65904873  0.93569478  1
  Na  Na18  1  0.85265835  0.12076875  0.23541625  1
  Na  Na19  1  0.86524686  0.13010591  0.58302127  1
  Na  Na20  1  0.87354630  0.12852539  0.92144178  1
  Na  Na21  1  0.84974566  0.62728136  0.23584367  1
  Na  Na22  1  0.85917721  0.63490730  0.58292436  1
  Na  Na23  1  0.86080798  0.63579504  0.92016778  1
  Na  Na24  1  1.01281770  -0.02368133  0.79406499  1
  Na  Na25  1  0.51650956  -0.00074341  0.39928652  1
  Na  Na26  1  0.51033879  0.59205895  0.11888889  1
  Na  Na27  1  0.95225535  0.00751910  0.39961006  1
  Na  Na28  1  0.49338140  0.01366799  0.74380713  1
  Na  Na29  1  0.98642711  0.50624522  0.42833969  1
  Na  Na30  1  0.99129726  0.50946204  0.07051138  1
  Na  Na31  1  0.48910150  0.51112231  0.74682894  1
  Na  Na32  1  0.51395443  -0.03767952  0.14126096  1
  Na  Na33  1  0.00830643  0.99051011  0.59016896  1
  Na  Na34  1  -0.03857060  0.51605948  0.64028987  1
  Na  Na35  1  -0.00000209  0.98850953  0.23865164  1
  Na  Na36  1  0.52830290  0.48444754  0.93192873  1
  Na  Na37  1  0.52116319  0.49443686  0.56359768  1
  Na  Na38  1  0.53853180  0.99131855  0.94848436  1
  Na  Na39  1  -0.01682822  0.54053498  0.86053329  1
  Na  Na40  1  0.51087317  0.47663915  0.24175471  1
  Na  Na41  1  0.00961626  0.49070495  0.25143572  1
  Na  Na42  1  0.25760156  0.25397491  0.32486420  1
  Na  Na43  1  0.74254836  0.23925877  0.00591284  1
  Na  Na44  1  0.24364262  0.74097388  0.67749199  1
  Na  Na45  1  0.74524781  0.74339881  0.67198511  1
  Na  Na46  1  0.75882667  0.26218620  0.66176869  1
  Na  Na47  1  0.25624782  0.75844624  0.31874652  1
  Na  Na48  1  0.74903608  0.74723655  0.00209440  1
  Na  Na49  1  0.23336668  0.74158086  0.00015080  1
  Na  Na50  1  0.74074895  0.75291942  0.32602689  1
  Na  Na51  1  0.75089033  0.25329945  0.33233903  1
  Na  Na52  1  0.25372221  0.75727145  0.49400973  1
  Na  Na53  1  0.73994105  0.24089662  0.16608035  1
  Na  Na54  1  0.74579947  0.74898138  0.49940298  1
  Na  Na55  1  0.76502792  0.26850366  0.49996823  1
  Na  Na56  1  0.74762177  0.24436327  0.83587633  1
  Na  Na57  1  0.23929359  0.23796439  0.51176930  1
  Na  Na58  1  0.74530876  0.74327469  0.83416023  1
  Na  Na59  1  0.25393594  0.25303040  0.83135686  1
  Na  Na60  1  0.74117727  0.75331967  0.16584528  1
  Na  Na61  1  0.27341585  0.26124395  0.14547038  1
  Fe  Fe62  1  0.96611149  0.30924470  0.45769441  1
  Fe  Fe63  1  0.46360602  0.81174473  0.78681270  1
  Fe  Fe64  1  0.96377834  0.80649940  0.45093002  1
  Fe  Fe65  1  0.96588895  0.31094540  0.78912214  1
  Fe  Fe66  1  0.46284265  0.30413988  0.44926985  1
  Fe  Fe67  1  0.96898424  0.79841371  0.79350373  1
  Fe  Fe68  1  0.96947728  0.30356509  0.11730823  1
  Fe  Fe69  1  0.96494390  0.79944241  0.11603891  1
  Fe  Fe70  1  0.46550574  0.80876700  0.44721851  1
  Fe  Fe71  1  0.46246589  0.30835347  0.78340770  1
  Fe  Fe72  1  0.19439311  0.53384504  0.38199858  1
  Fe  Fe73  1  0.19494043  0.03586312  0.72016699  1
  Fe  Fe74  1  0.69898592  0.03451315  0.37490327  1
  Fe  Fe75  1  0.69028981  0.53711246  0.37954751  1
  Fe  Fe76  1  0.69055305  0.03539009  0.71090532  1
  Fe  Fe77  1  0.69796652  0.52968387  0.70919461  1
  Fe  Fe78  1  0.18966014  0.03240934  0.38063283  1
  Fe  Fe79  1  0.19351566  0.53597667  0.71741495  1
  Fe  Fe80  1  0.19362964  0.03591942  0.04860526  1
  Fe  Fe81  1  0.19127966  0.53644174  0.04418407  1
  Fe  Fe82  1  0.53582592  0.69631962  0.88216429  1
  Fe  Fe83  1  0.53153207  0.19787672  0.20535333  1
  Fe  Fe84  1  0.53331385  0.18958449  0.54405962  1
  Fe  Fe85  1  0.03811010  0.19052101  0.55046886  1
  Fe  Fe86  1  0.03491574  0.69390905  0.55092923  1
  Fe  Fe87  1  0.53199379  0.19368437  0.88331776  1
  Fe  Fe88  1  0.03644826  0.68768431  0.21433015  1
  Fe  Fe89  1  0.53291720  0.69304404  0.54102454  1
  Fe  Fe90  1  0.03620016  0.18786670  0.21196829  1
  Fe  Fe91  1  0.03767058  0.19586289  0.88421834  1
  Fe  Fe92  1  0.30611295  0.46418406  0.61867916  1
  Fe  Fe93  1  0.79601084  0.46509370  0.95490311  1
  Fe  Fe94  1  0.30557218  0.96574451  0.61941755  1
  Fe  Fe95  1  0.31399062  0.46779366  0.95532454  1
  Fe  Fe96  1  0.31480714  0.96123050  0.95476753  1
  Fe  Fe97  1  0.31089319  0.46790555  0.28245862  1
  Fe  Fe98  1  0.80879493  0.46143260  0.28427193  1
  Fe  Fe99  1  0.81043525  0.96412577  0.62549661  1
  Fe  Fe100  1  0.30249654  0.96217832  0.27915495  1
  Fe  Fe101  1  0.80361144  0.96663752  0.96121281  1
  S  S102  1  0.36089364  0.13657183  0.08535870  1
  S  S103  1  0.35667070  0.13888509  0.41531650  1
  S  S104  1  0.35988803  0.14061329  0.74826428  1
  S  S105  1  0.35250223  0.64488170  0.07867331  1
  S  S106  1  0.35634520  0.64265755  0.41746065  1
  S  S107  1  0.36101944  0.63973289  0.74722313  1
  S  S108  1  0.86169142  0.14036186  0.08204712  1
  S  S109  1  0.85982272  0.14456769  0.42050248  1
  S  S110  1  0.86095392  0.14045483  0.75261571  1
  S  S111  1  0.86019066  0.63450315  0.08648958  1
  S  S112  1  0.86094826  0.64075091  0.41633413  1
  S  S113  1  0.85735230  0.63844905  0.74798804  1
  S  S114  1  0.14192234  0.35937028  0.25177722  1
  S  S115  1  0.14167968  0.35826288  0.58222057  1
  S  S116  1  0.14190170  0.36053038  0.91604869  1
  S  S117  1  0.13678321  0.85863477  0.25048758  1
  S  S118  1  0.13935933  0.86008877  0.58438217  1
  S  S119  1  0.13886207  0.86897914  0.91455070  1
  S  S120  1  0.64265756  0.36014116  0.25397180  1
  S  S121  1  0.63664430  0.35723278  0.58230659  1
  S  S122  1  0.63934968  0.35260755  0.91201000  1
  S  S123  1  0.64171349  0.86625293  0.25498105  1
  S  S124  1  0.64135107  0.86020728  0.58252930  1
  S  S125  1  0.64238333  0.85689742  0.91137597  1
  S  S126  1  0.07449054  0.17458706  0.04712886  1
  S  S127  1  0.06329532  0.16682968  0.37550073  1
  S  S128  1  0.06681667  0.16802711  0.71105506  1
  S  S129  1  0.06061605  0.66310789  0.03986013  1
  S  S130  1  0.06509881  0.66545955  0.37684269  1
  S  S131  1  0.06740101  0.67038883  0.70656962  1
  S  S132  1  0.57093119  0.17516719  0.04480278  1
  S  S133  1  0.57370349  0.17533868  0.37753596  1
  S  S134  1  0.56525197  0.16776729  0.70732185  1
  S  S135  1  0.57534572  0.67274364  0.03894141  1
  S  S136  1  0.56366155  0.66921271  0.37368011  1
  S  S137  1  0.56490695  0.66701789  0.70418002  1
  S  S138  1  0.33224435  0.44209130  0.12568384  1
  S  S139  1  0.32943135  0.43306897  0.45621694  1
  S  S140  1  0.33421910  0.43596417  0.79140902  1
  S  S141  1  0.31940141  0.92682972  0.11664707  1
  S  S142  1  0.32362867  0.93068051  0.45651560  1
  S  S143  1  0.33395906  0.93691456  0.78994932  1
  S  S144  1  0.83794831  0.42565383  0.12621240  1
  S  S145  1  0.83587273  0.43789409  0.45890759  1
  S  S146  1  0.82598075  0.43066175  0.79340503  1
  S  S147  1  0.83369333  0.92744123  0.12545858  1
  S  S148  1  0.83138673  0.93498588  0.46110376  1
  S  S149  1  0.82548941  0.92827262  0.79141606  1
  S  S150  1  0.43193659  0.32763365  0.28933969  1
  S  S151  1  0.43089958  0.32894915  0.62089647  1
  S  S152  1  0.43648104  0.33423090  0.95368378  1
  S  S153  1  0.42885834  0.83863263  0.29594194  1
  S  S154  1  0.43198019  0.83012519  0.62195076  1
  S  S155  1  0.44238870  0.84103157  0.95750760  1
  S  S156  1  0.93559500  0.32821140  0.29251450  1
  S  S157  1  0.93406499  0.32277485  0.62348467  1
  S  S158  1  0.93141216  0.32960549  0.95696367  1
  S  S159  1  0.93496396  0.82440876  0.28826257  1
  S  S160  1  0.93414568  0.82998405  0.62701563  1
  S  S161  1  0.92323853  0.82733166  0.95630810  1
  S  S162  1  0.16712594  0.06441840  0.21095805  1
  S  S163  1  0.16541491  0.06237323  0.54065760  1
  S  S164  1  0.17302801  0.07425881  0.87590734  1
  S  S165  1  0.16691314  0.56219323  0.20938695  1
  S  S166  1  0.17000020  0.56622652  0.54299060  1
  S  S167  1  0.17780661  0.56627059  0.87711231  1
  S  S168  1  0.66744051  0.07525025  0.21062822  1
  S  S169  1  0.67436213  0.07138755  0.54283884  1
  S  S170  1  0.67067917  0.06481735  0.87359210  1
  S  S171  1  0.67175811  0.55877408  0.21491077  1
  S  S172  1  0.66739681  0.56969059  0.54115275  1
  S  S173  1  0.66640015  0.56364836  0.86982891  1
  O  O174  1  0.36349135  0.21230068  0.07370596  1
  O  O175  1  0.36541291  0.21908116  0.40904611  1
  O  O176  1  0.37003215  0.21791666  0.73852962  1
  O  O177  1  0.35670294  0.71542110  0.05795587  1
  O  O178  1  0.36364986  0.72430178  0.41491162  1
  O  O179  1  0.37215255  0.71665674  0.73509213  1
  O  O180  1  0.87763805  0.21571292  0.06770795  1
  O  O181  1  0.86547606  0.22840494  0.42199510  1
  O  O182  1  0.86918456  0.21919679  0.74383728  1
  O  O183  1  0.87092325  0.71158670  0.07429167  1
  O  O184  1  0.86872124  0.72092957  0.40998207  1
  O  O185  1  0.86799219  0.72005139  0.74340747  1
  O  O186  1  0.28644509  0.12400903  0.10256632  1
  O  O187  1  0.27856775  0.12982608  0.42581207  1
  O  O188  1  0.27933540  0.13098942  0.75215762  1
  O  O189  1  0.27121312  0.63059567  0.08225546  1
  O  O190  1  0.27743795  0.63131319  0.42673963  1
  O  O191  1  0.27988202  0.63118669  0.74856207  1
  O  O192  1  0.78515054  0.13937873  0.09241070  1
  O  O193  1  0.78177156  0.13254000  0.43179012  1
  O  O194  1  0.78103857  0.13003494  0.75889586  1
  O  O195  1  0.78857089  0.63001681  0.10519017  1
  O  O196  1  0.78315008  0.63196150  0.42667221  1
  O  O197  1  0.77310908  0.63169935  0.74765021  1
  O  O198  1  0.13033578  0.28168616  0.26198935  1
  O  O199  1  0.13407797  0.27733758  0.58574006  1
  O  O200  1  0.13079214  0.28294509  0.92599240  1
  O  O201  1  0.12651350  0.78182490  0.26340152  1
  O  O202  1  0.13134139  0.78024431  0.59072936  1
  O  O203  1  0.13483510  0.79343157  0.92582673  1
  O  O204  1  0.62901979  0.27969441  0.25947505  1
  O  O205  1  0.62361000  0.27966470  0.59349355  1
  O  O206  1  0.63313881  0.26976174  0.91297502  1
  O  O207  1  0.62435189  0.79591867  0.27278841  1
  O  O208  1  0.63242444  0.78162605  0.59221567  1
  O  O209  1  0.63722906  0.77286082  0.90854023  1
  O  O210  1  0.22205984  0.36732728  0.24669463  1
  O  O211  1  0.21937638  0.36915468  0.57094837  1
  O  O212  1  0.22054255  0.36874643  0.90759359  1
  O  O213  1  0.21734390  0.86654805  0.24805327  1
  O  O214  1  0.21734454  0.86921508  0.57450970  1
  O  O215  1  0.21376978  0.88504063  0.90003137  1
  O  O216  1  0.72475147  0.36287945  0.25004733  1
  O  O217  1  0.71378661  0.36294541  0.57398349  1
  O  O218  1  0.71913948  0.36399792  0.90522796  1
  O  O219  1  0.72190709  0.87003027  0.25116014  1
  O  O220  1  0.72264765  0.86955748  0.57828196  1
  O  O221  1  0.72076812  0.87049283  0.90206028  1
  O  O222  1  0.42482917  0.13165872  0.15339914  1
  O  O223  1  0.41750859  0.13083249  0.48260321  1
  O  O224  1  0.41685726  0.13250082  0.81775551  1
  O  O225  1  0.40917860  0.64646086  0.15045580  1
  O  O226  1  0.41575631  0.63286991  0.48431313  1
  O  O227  1  0.41771054  0.63409340  0.81731497  1
  O  O228  1  0.92247823  0.13321567  0.14993752  1
  O  O229  1  0.92036859  0.13128133  0.48582184  1
  O  O230  1  0.91960233  0.13380198  0.82160856  1
  O  O231  1  0.92727282  0.62196560  0.14820198  1
  O  O232  1  0.92124650  0.63166936  0.48380300  1
  O  O233  1  0.90837833  0.62974164  0.81791967  1
  O  O234  1  0.36784381  0.07480295  0.01807116  1
  O  O235  1  0.36279427  0.08153756  0.34601207  1
  O  O236  1  0.37097619  0.07932794  0.68200798  1
  O  O237  1  0.36956733  0.57853373  0.01764770  1
  O  O238  1  0.36167788  0.58731604  0.34698649  1
  O  O239  1  0.37337612  0.57735278  0.68176232  1
  O  O240  1  0.86524812  0.07687787  0.01396787  1
  O  O241  1  0.86638167  0.09235760  0.35042242  1
  O  O242  1  0.86911001  0.08061160  0.68494914  1
  O  O243  1  0.86119929  0.57391641  0.01532976  1
  O  O244  1  0.87032178  0.58307596  0.34835322  1
  O  O245  1  0.86745579  0.58276370  0.68080779  1
  O  O246  1  0.08409564  0.36775151  0.18304842  1
  O  O247  1  0.08128124  0.36790740  0.51520830  1
  O  O248  1  0.08269811  0.36605250  0.84637296  1
  O  O249  1  0.08007829  0.86418473  0.18022230  1
  O  O250  1  0.07846311  0.86935654  0.51743230  1
  O  O251  1  0.07530108  0.87255191  0.84498761  1
  O  O252  1  0.58739814  0.37415804  0.18947246  1
  O  O253  1  0.57579850  0.36639072  0.51457175  1
  O  O254  1  0.58171432  0.36203946  0.84273590  1
  O  O255  1  0.58568992  0.87800633  0.18912654  1
  O  O256  1  0.58534283  0.86572078  0.51248685  1
  O  O257  1  0.58214412  0.86787422  0.84432572  1
  O  O258  1  0.13143382  0.42003010  0.31879621  1
  O  O259  1  0.13630089  0.41525022  0.65202812  1
  O  O260  1  0.13243536  0.42109550  0.98268669  1
  O  O261  1  0.12382280  0.92042306  0.31546842  1
  O  O262  1  0.13209821  0.91846178  0.65338611  1
  O  O263  1  0.12811586  0.93061203  0.98001367  1
  O  O264  1  0.63748830  0.41723323  0.32505713  1
  O  O265  1  0.62775734  0.41842426  0.64919447  1
  O  O266  1  0.62915663  0.40717518  0.97904181  1
  O  O267  1  0.63665260  0.93462262  0.32559277  1
  O  O268  1  0.63183752  0.91979603  0.64938198  1
  O  O269  1  0.63433450  0.90866073  0.98076342  1
  O  O270  1  0.03731516  0.20440004  0.10860995  1
  O  O271  1  0.02690715  0.19808268  0.43654952  1
  O  O272  1  0.02863277  0.19709673  0.77065266  1
  O  O273  1  0.03393382  0.70046866  0.10830665  1
  O  O274  1  0.03067874  0.69888287  0.43899021  1
  O  O275  1  0.03355196  0.70007255  0.76731831  1
  O  O276  1  0.53405838  0.20543466  0.10465455  1
  O  O277  1  0.53143470  0.20071011  0.43537333  1
  O  O278  1  0.52722346  0.19703236  0.76690994  1
  O  O279  1  0.55112783  0.70707845  0.10468555  1
  O  O280  1  0.52902192  0.70343236  0.43820784  1
  O  O281  1  0.52879925  0.69535177  0.76505242  1
  O  O282  1  0.29289767  0.47230507  0.06119656  1
  O  O283  1  0.30232061  0.47075000  0.39565953  1
  O  O284  1  0.30045012  0.46969545  0.72786299  1
  O  O285  1  0.28908316  0.96616167  0.05607447  1
  O  O286  1  0.29402618  0.96931194  0.39718344  1
  O  O287  1  0.29907027  0.97217611  0.72753444  1
  O  O288  1  0.80794545  0.45616234  0.06342687  1
  O  O289  1  0.80611491  0.47107108  0.39499523  1
  O  O290  1  0.79657456  0.46539445  0.73292552  1
  O  O291  1  0.80502521  0.95828568  0.06064403  1
  O  O292  1  0.80340331  0.97700911  0.40553705  1
  O  O293  1  0.79872945  0.96971397  0.73284770  1
  O  O294  1  0.47045396  0.29696908  0.23164659  1
  O  O295  1  0.46597105  0.29850004  0.55901611  1
  O  O296  1  0.47105177  0.29939572  0.88910468  1
  O  O297  1  0.45545463  0.81615393  0.23221152  1
  O  O298  1  0.47015764  0.80319813  0.56214731  1
  O  O299  1  0.47324241  0.80200798  0.89107838  1
  O  O300  1  0.97005464  0.29846722  0.23025421  1
  O  O301  1  0.97611641  0.29190273  0.56572464  1
  O  O302  1  0.96827231  0.30141631  0.89553735  1
  O  O303  1  0.96875476  0.78594785  0.22632542  1
  O  O304  1  0.97001704  0.80077195  0.56495805  1
  O  O305  1  0.95700768  0.80375942  0.89496444  1
  O  O306  1  0.19944095  0.02675602  0.27171977  1
  O  O307  1  0.19662314  0.02818021  0.60327610  1
  O  O308  1  0.20631484  0.04746541  0.94174818  1
  O  O309  1  0.19960672  0.52633899  0.27117554  1
  O  O310  1  0.19877371  0.52989230  0.60401448  1
  O  O311  1  0.20849133  0.52426746  0.93454461  1
  O  O312  1  0.69417504  0.05673471  0.28335153  1
  O  O313  1  0.70038960  0.03118872  0.60148364  1
  O  O314  1  0.69984681  0.02660599  0.93165906  1
  O  O315  1  0.71236239  0.52598854  0.27981897  1
  O  O316  1  0.68727115  0.53198826  0.59991711  1
  O  O317  1  0.69247632  0.52537891  0.92798878  1
  O  O318  1  0.09386592  0.09525349  0.04421762  1
  O  O319  1  0.07869137  0.08409135  0.37068787  1
  O  O320  1  0.08637861  0.08636966  0.70643737  1
  O  O321  1  0.08645391  0.58570056  0.04676983  1
  O  O322  1  0.08264471  0.58362918  0.37509117  1
  O  O323  1  0.08786726  0.58907005  0.70144587  1
  O  O324  1  0.59675575  0.09883712  0.04291748  1
  O  O325  1  0.59660385  0.09563810  0.37710393  1
  O  O326  1  0.58260446  0.08606307  0.70312605  1
  O  O327  1  0.58538153  0.58938101  0.02879839  1
  O  O328  1  0.58382378  0.58886127  0.37335409  1
  O  O329  1  0.58081114  0.58404700  0.69595301  1
  O  O330  1  0.41256196  0.43110612  0.12814899  1
  O  O331  1  0.41093445  0.41383299  0.46406271  1
  O  O332  1  0.41673957  0.42037218  0.79264592  1
  O  O333  1  0.39550320  0.90388886  0.11551665  1
  O  O334  1  0.40332588  0.90989072  0.46176073  1
  O  O335  1  0.41662702  0.92440576  0.79271013  1
  O  O336  1  0.92275544  0.41149717  0.13497711  1
  O  O337  1  0.91558443  0.41306115  0.45808300  1
  O  O338  1  0.90870433  0.41385250  0.79973658  1
  O  O339  1  0.91369231  0.90148038  0.12892513  1
  O  O340  1  0.91379219  0.91709070  0.46304756  1
  O  O341  1  0.90486553  0.90629734  0.79354338  1
  O  O342  1  0.41088218  0.40728149  0.28865937  1
  O  O343  1  0.41426250  0.41149799  0.62648243  1
  O  O344  1  0.41832047  0.41470575  0.95104601  1
  O  O345  1  0.40568943  0.92166846  0.31128280  1
  O  O346  1  0.41297901  0.91186182  0.62989253  1
  O  O347  1  0.42339689  0.92071417  0.95151501  1
  O  O348  1  0.92124797  0.41212629  0.29982909  1
  O  O349  1  0.90859376  0.39757819  0.61973110  1
  O  O350  1  0.90809909  0.40901210  0.96170891  1
  O  O351  1  0.92889427  0.90641483  0.29251853  1
  O  O352  1  0.92022977  0.91357978  0.63464843  1
  O  O353  1  0.90103569  0.90810939  0.96615922  1
  O  O354  1  0.08669218  0.08241271  0.21219500  1
  O  O355  1  0.08279206  0.07872805  0.53643488  1
  O  O356  1  0.09109254  0.09308779  0.87149135  1
  O  O357  1  0.08325640  0.57530976  0.20594832  1
  O  O358  1  0.08854197  0.58561907  0.53634857  1
  O  O359  1  0.10165419  0.58967388  0.87930079  1
  O  O360  1  0.58548333  0.09793878  0.20021811  1
  O  O361  1  0.59092326  0.08587796  0.53122568  1
  O  O362  1  0.58922237  0.08497564  0.87000487  1
  O  O363  1  0.59180604  0.56738699  0.21830870  1
  O  O364  1  0.58435764  0.58782202  0.52846201  1
  O  O365  1  0.58423721  0.58364295  0.86281020  1
  O  O366  1  0.14339629  0.22908337  0.06308572  1
  O  O367  1  0.13658386  0.21675207  0.39283950  1
  O  O368  1  0.13621848  0.22112695  0.72613025  1
  O  O369  1  0.12455467  0.71528161  0.04280994  1
  O  O370  1  0.13641201  0.71577872  0.39022759  1
  O  O371  1  0.13542111  0.72214536  0.71459884  1
  O  O372  1  0.63694304  0.23377471  0.05724088  1
  O  O373  1  0.64377168  0.23111514  0.39850339  1
  O  O374  1  0.63763594  0.21884622  0.72418639  1
  O  O375  1  0.64798776  0.71838465  0.04400417  1
  O  O376  1  0.63700653  0.72065269  0.39249579  1
  O  O377  1  0.63683300  0.71897933  0.72141882  1
  O  O378  1  0.28334579  0.37130295  0.11649569  1
  O  O379  1  0.27584115  0.36203319  0.43764464  1
  O  O380  1  0.28578801  0.36402679  0.77826081  1
  O  O381  1  0.26058614  0.86217647  0.10261295  1
  O  O382  1  0.26829881  0.86053179  0.43903310  1
  O  O383  1  0.28695711  0.86223170  0.77199189  1
  O  O384  1  0.79037119  0.35371798  0.11612139  1
  O  O385  1  0.78153129  0.36862987  0.44484146  1
  O  O386  1  0.77625883  0.35720328  0.77787334  1
  O  O387  1  0.77893003  0.85860682  0.11197547  1
  O  O388  1  0.78026110  0.86283296  0.44359983  1
  O  O389  1  0.76952500  0.85846868  0.77051308  1
  O  O390  1  0.36097170  0.27434998  0.27391935  1
  O  O391  1  0.36027959  0.27767506  0.60622321  1
  O  O392  1  0.36376110  0.28426465  0.93626848  1
  O  O393  1  0.36417938  0.78496514  0.29295688  1
  O  O394  1  0.36065918  0.77689657  0.60367286  1
  O  O395  1  0.37138957  0.79381019  0.94725152  1
  O  O396  1  0.86312081  0.27882905  0.27746506  1
  O  O397  1  0.86625987  0.26494124  0.60682122  1
  O  O398  1  0.86374619  0.27315328  0.94154854  1
  O  O399  1  0.86053877  0.77835917  0.27436918  1
  O  O400  1  0.86061401  0.78010752  0.60818269  1
  O  O401  1  0.85343994  0.77234217  0.94120986  1
  O  O402  1  0.21841653  0.13630272  0.22810132  1
  O  O403  1  0.21586765  0.13289056  0.55368110  1
  O  O404  1  0.22236242  0.14050477  0.87794544  1
  O  O405  1  0.21389923  0.63583466  0.22583543  1
  O  O406  1  0.22285959  0.63712086  0.55924245  1
  O  O407  1  0.23425513  0.63289018  0.89116135  1
  O  O408  1  0.72129735  0.14368124  0.22096320  1
  O  O409  1  0.72616851  0.14421680  0.56494332  1
  O  O410  1  0.72405276  0.13545644  0.88911184  1
  O  O411  1  0.71702910  0.63524507  0.23233151  1
  O  O412  1  0.72046847  0.64201837  0.56090379  1
  O  O413  1  0.71991847  0.63466668  0.88673819  1
  O  O414  1  0.49531990  0.33800300  0.02357414  1
  O  O415  1  0.48895252  0.33494024  0.36511524  1
  O  O416  1  0.49132082  0.33174410  0.69337202  1
  O  O417  1  0.50644743  0.85218100  0.02721733  1
  O  O418  1  0.49520866  0.84648035  0.36963888  1
  O  O419  1  0.49025608  0.83049395  0.69481868  1
  O  O420  1  0.99387347  0.33470670  0.02903736  1
  O  O421  1  0.99519250  0.32906618  0.36456389  1
  O  O422  1  0.99230774  0.32901669  0.69830369  1
  O  O423  1  0.98506415  0.82541929  0.02608285  1
  O  O424  1  0.99263377  0.82222817  0.36155376  1
  O  O425  1  0.99194863  0.82936637  0.69885786  1
  O  O426  1  0.16242670  0.00700846  0.13771459  1
  O  O427  1  0.16182386  0.00175731  0.46813916  1
  O  O428  1  0.16354195  0.00618106  0.80468491  1
  O  O429  1  0.16444818  0.50380525  0.13690934  1
  O  O430  1  0.16778816  0.50611311  0.47052034  1
  O  O431  1  0.17003861  0.50606142  0.80152283  1
  O  O432  1  0.66538494  0.00673809  0.14814382  1
  O  O433  1  0.67809896  0.01554449  0.47013975  1
  O  O434  1  0.66372221  0.00741466  0.79760707  1
  O  O435  1  0.67389314  0.50269170  0.14499776  1
  O  O436  1  0.67325197  0.51215202  0.47076383  1
  O  O437  1  0.66227606  0.50628142  0.79473354  1
  O  O438  1  0.00548129  0.16551348  0.30269181  1
  O  O439  1  0.00727100  0.16162928  0.63673638  1
  O  O440  1  0.01353918  0.17228327  0.97499592  1
  O  O441  1  0.00540883  0.65924716  0.30350707  1
  O  O442  1  0.00395543  0.66217905  0.63221171  1
  O  O443  1  -0.00746731  0.64641901  0.97175531  1
  O  O444  1  0.51692501  0.17226564  0.30405082  1
  O  O445  1  0.50748290  0.16618430  0.63399491  1
  O  O446  1  0.50870627  0.16891334  0.97074962  1
  O  O447  1  0.50424531  0.66699654  0.30438905  1
  O  O448  1  0.50680384  0.66722051  0.63135168  1
  O  O449  1  0.51148341  0.67605720  0.96811692  1
  O  O450  1  0.33212922  0.50364799  0.19817708  1
  O  O451  1  0.32982446  0.49200837  0.52865369  1
  O  O452  1  0.33818406  0.49707285  0.86265185  1
  O  O453  1  0.32543619  0.98883819  0.19056112  1
  O  O454  1  0.32557609  0.98998721  0.52964891  1
  O  O455  1  0.33198791  0.99470280  0.86077795  1
  O  O456  1  0.84128716  0.48724186  0.19894157  1
  O  O457  1  0.84557654  0.49939265  0.52999372  1
  O  O458  1  0.82776881  0.48901411  0.86669315  1
  O  O459  1  0.84288256  0.99044353  0.19547042  1
  O  O460  1  0.83894336  0.99006413  0.53793959  1
  O  O461  1  0.82750931  0.98527598  0.86490038  1
