# generated using pymatgen
data_Na31Fe20(SO4)36
_symmetry_space_group_name_H-M   'P 1'
_cell_length_a   18.08788600
_cell_length_b   18.08285147
_cell_length_c   19.72158496
_cell_angle_alpha   107.56975610
_cell_angle_beta   107.57817873
_cell_angle_gamma   90.74209946
_symmetry_Int_Tables_number   1
_chemical_formula_structural   Na31Fe20(SO4)36
_chemical_formula_sum   'Na62 Fe40 S72 O288'
_cell_volume   5823.87984977
_cell_formula_units_Z   2
loop_
 _symmetry_equiv_pos_site_id
 _symmetry_equiv_pos_as_xyz
  1  'x, y, z'
loop_
 _atom_site_type_symbol
 _atom_site_label
 _atom_site_symmetry_multiplicity
 _atom_site_fract_x
 _atom_site_fract_y
 _atom_site_fract_z
 _atom_site_occupancy
  Na  Na0  1  0.13544232  0.36985359  0.08337339  1
  Na  Na1  1  0.13706741  0.36913169  0.42106600  1
  Na  Na2  1  0.19684210  0.34553493  0.77992078  1
  Na  Na3  1  0.14018966  0.86779118  0.09321709  1
  Na  Na4  1  0.12505445  0.86066640  0.40146995  1
  Na  Na5  1  0.12574022  0.87182307  0.74934564  1
  Na  Na6  1  0.63346739  0.36634288  0.08335919  1
  Na  Na7  1  0.63179195  0.35647299  0.41448217  1
  Na  Na8  1  0.62599909  0.36654403  0.75057356  1
  Na  Na9  1  0.62642651  0.85869075  0.06852235  1
  Na  Na10  1  0.63851213  0.86612934  0.41241399  1
  Na  Na11  1  0.63476893  0.87504525  0.75759692  1
  Na  Na12  1  0.37164223  0.13857791  0.26181810  1
  Na  Na13  1  0.36909399  0.16519867  0.61323019  1
  Na  Na14  1  0.35754961  0.13726857  0.90444546  1
  Na  Na15  1  0.33876520  0.62969289  0.22280160  1
  Na  Na16  1  0.36587604  0.63444990  0.58116514  1
  Na  Na17  1  0.36989017  0.63707289  0.91907638  1
  Na  Na18  1  0.87301576  0.12525759  0.25243894  1
  Na  Na19  1  0.86614327  0.12272251  0.57517501  1
  Na  Na20  1  0.86385836  0.12865228  0.91654600  1
  Na  Na21  1  0.87175255  0.64030964  0.25764103  1
  Na  Na22  1  0.86230684  0.62997390  0.57874597  1
  Na  Na23  1  0.86515340  0.63872025  0.92073077  1
  Na  Na24  1  0.49262180  0.55235076  0.76687394  1
  Na  Na25  1  1.02307394  0.46839573  0.75088998  1
  Na  Na26  1  0.98317578  0.00064420  0.42990398  1
  Na  Na27  1  0.43297123  0.50274573  0.05628135  1
  Na  Na28  1  0.48836599  0.50424097  0.41652019  1
  Na  Na29  1  1.00302247  0.56822850  0.12236995  1
  Na  Na30  1  0.50538829  0.00960902  0.41490330  1
  Na  Na31  1  0.49435718  0.01401242  0.07387834  1
  Na  Na32  1  0.95282686  -0.00096075  0.08029534  1
  Na  Na33  1  -0.00244956  0.99500978  0.90912087  1
  Na  Na34  1  0.51713132  0.99706271  0.88812950  1
  Na  Na35  1  0.51104380  0.49384151  0.24714770  1
  Na  Na36  1  0.51208547  0.46864594  0.90439765  1
  Na  Na37  1  0.01579614  0.49716366  0.56545473  1
  Na  Na38  1  0.48198222  1.00843379  0.59959279  1
  Na  Na39  1  0.50797526  0.45050281  0.57110795  1
  Na  Na40  1  0.53862225  0.98934140  0.25006879  1
  Na  Na41  1  0.06902137  0.50388268  0.95125599  1
  Na  Na42  1  0.26304033  0.27243981  -0.02029839  1
  Na  Na43  1  0.23543959  0.72944278  0.01991269  1
  Na  Na44  1  0.24131775  0.74746861  0.66895176  1
  Na  Na45  1  0.75466172  0.25203163  0.00221700  1
  Na  Na46  1  0.74696345  0.24366411  0.66929893  1
  Na  Na47  1  0.74437547  0.23424619  0.34046579  1
  Na  Na48  1  0.75330297  0.75577198  0.66203458  1
  Na  Na49  1  0.73075503  0.74264983  0.00032056  1
  Na  Na50  1  0.26336088  0.25847999  0.33438357  1
  Na  Na51  1  0.24439616  0.74816660  0.31908842  1
  Na  Na52  1  0.24476505  0.74565536  0.83905950  1
  Na  Na53  1  0.25644297  0.25380392  0.16011611  1
  Na  Na54  1  0.74791975  0.76305547  0.83608793  1
  Na  Na55  1  0.73920823  0.74171432  0.17842537  1
  Na  Na56  1  0.73604476  0.23022348  0.50365749  1
  Na  Na57  1  0.75062112  0.25002620  0.83542965  1
  Na  Na58  1  0.75138585  0.24639479  0.16990414  1
  Na  Na59  1  0.24967892  0.24578807  0.51158538  1
  Na  Na60  1  0.75981564  0.75846313  0.48484529  1
  Na  Na61  1  0.24559011  0.74937009  0.49552322  1
  Fe  Fe62  1  0.46675533  0.80619194  0.11668604  1
  Fe  Fe63  1  0.96291330  0.80634356  0.78770826  1
  Fe  Fe64  1  0.46731379  0.79950118  0.78682993  1
  Fe  Fe65  1  0.96800375  0.30446625  0.78766132  1
  Fe  Fe66  1  0.96696103  0.30426824  0.45199471  1
  Fe  Fe67  1  0.96717560  0.31248425  0.12477726  1
  Fe  Fe68  1  0.46521329  0.80613058  0.45073850  1
  Fe  Fe69  1  0.96294837  0.80972459  0.12641700  1
  Fe  Fe70  1  0.46697069  0.30649464  0.11576582  1
  Fe  Fe71  1  0.96372245  0.80745736  0.45221911  1
  Fe  Fe72  1  0.69424668  0.53465943  0.38229441  1
  Fe  Fe73  1  0.19256042  0.03423285  0.38091164  1
  Fe  Fe74  1  0.69086403  0.53582658  0.04873250  1
  Fe  Fe75  1  0.18382333  0.53557364  0.37523244  1
  Fe  Fe76  1  0.69307735  0.03347168  0.71173075  1
  Fe  Fe77  1  0.19643309  0.53497546  0.71740464  1
  Fe  Fe78  1  0.69345430  0.53358374  0.71685161  1
  Fe  Fe79  1  0.18926872  0.03881960  0.71365513  1
  Fe  Fe80  1  0.70003331  0.03164873  0.04097327  1
  Fe  Fe81  1  0.19421512  0.03464155  0.04798727  1
  Fe  Fe82  1  0.53465109  0.69123907  0.54587589  1
  Fe  Fe83  1  0.52892554  0.20370991  0.54490380  1
  Fe  Fe84  1  0.53287073  0.68841058  0.21084408  1
  Fe  Fe85  1  0.03468938  0.18573933  0.87701298  1
  Fe  Fe86  1  0.04002215  0.19242357  0.55251023  1
  Fe  Fe87  1  0.03657409  0.19186162  0.21554844  1
  Fe  Fe88  1  0.03179242  0.69027993  0.88106711  1
  Fe  Fe89  1  0.53339068  0.19527149  0.21528887  1
  Fe  Fe90  1  0.53228809  0.19714176  0.87159326  1
  Fe  Fe91  1  0.03399311  0.69228862  0.54431121  1
  Fe  Fe92  1  0.80828923  0.96475418  0.62001970  1
  Fe  Fe93  1  0.31167832  0.46464997  0.61865102  1
  Fe  Fe94  1  0.30702506  0.46350158  0.28444294  1
  Fe  Fe95  1  0.81414294  0.46747469  0.95858915  1
  Fe  Fe96  1  0.30744663  0.96277228  0.28369313  1
  Fe  Fe97  1  0.81121580  0.46495663  0.62346529  1
  Fe  Fe98  1  0.81138160  0.46474879  0.28867467  1
  Fe  Fe99  1  0.79629632  0.96707166  0.29028568  1
  Fe  Fe100  1  0.30638415  0.96319204  0.62031848  1
  Fe  Fe101  1  0.30512211  0.96475148  0.95050932  1
  S  S102  1  0.36080765  0.14039393  0.07936270  1
  S  S103  1  0.35980886  0.13532266  0.41835811  1
  S  S104  1  0.36380849  0.13183640  0.74998325  1
  S  S105  1  0.35784883  0.64686038  0.08378316  1
  S  S106  1  0.35998548  0.63971076  0.41396326  1
  S  S107  1  0.35411506  0.64566988  0.74524968  1
  S  S108  1  0.86301239  0.14262759  0.08657711  1
  S  S109  1  0.86348501  0.13918556  0.41763194  1
  S  S110  1  0.86017761  0.14024633  0.75016501  1
  S  S111  1  0.85277573  0.64684788  0.08453216  1
  S  S112  1  0.85988519  0.63790432  0.41879173  1
  S  S113  1  0.85490388  0.64133442  0.74985628  1
  S  S114  1  0.14270959  0.35416604  0.25208425  1
  S  S115  1  0.13788523  0.36280456  0.58351194  1
  S  S116  1  0.13856593  0.35259477  0.91416247  1
  S  S117  1  0.13747040  0.86573667  0.24826743  1
  S  S118  1  0.13898866  0.86271069  0.58348802  1
  S  S119  1  0.13910640  0.85901164  0.91789536  1
  S  S120  1  0.64287946  0.35929428  0.25217216  1
  S  S121  1  0.64901440  0.35944302  0.58496531  1
  S  S122  1  0.64832454  0.35979198  0.92132789  1
  S  S123  1  0.63610501  0.85544166  0.24817699  1
  S  S124  1  0.63948382  0.85723274  0.58197593  1
  S  S125  1  0.63660050  0.86519832  0.91290337  1
  S  S126  1  0.06682191  0.16666178  0.04218345  1
  S  S127  1  0.07304700  0.17281320  0.38073995  1
  S  S128  1  0.06660822  0.16815368  0.70838556  1
  S  S129  1  0.05893865  0.67713635  0.04594265  1
  S  S130  1  0.06555252  0.67535179  0.37966149  1
  S  S131  1  0.06418589  0.66932312  0.70723841  1
  S  S132  1  0.56935070  0.17021772  0.03907574  1
  S  S133  1  0.56405853  0.16602150  0.37458888  1
  S  S134  1  0.57285536  0.17301629  0.70793374  1
  S  S135  1  0.56375254  0.66666859  0.03983867  1
  S  S136  1  0.56627352  0.66637512  0.37518517  1
  S  S137  1  0.56765945  0.66810682  0.70576319  1
  S  S138  1  0.33369913  0.42825928  0.12481059  1
  S  S139  1  0.33020783  0.43998738  0.45567773  1
  S  S140  1  0.34317360  0.45322054  0.78934921  1
  S  S141  1  0.33526400  0.93652089  0.12509084  1
  S  S142  1  0.33061687  0.92785385  0.45694637  1
  S  S143  1  0.32768541  0.92615795  0.78966681  1
  S  S144  1  0.82964539  0.43413494  0.12570203  1
  S  S145  1  0.82871598  0.42843119  0.45734661  1
  S  S146  1  0.83466320  0.43317233  0.79339567  1
  S  S147  1  0.82153391  0.92844153  0.12454378  1
  S  S148  1  0.82837927  0.92947819  0.45799932  1
  S  S149  1  0.82972262  0.93383054  0.78935502  1
  S  S150  1  0.43810861  0.33387947  0.29137442  1
  S  S151  1  0.43833878  0.33828039  0.62662494  1
  S  S152  1  0.44078445  0.32947044  0.95547745  1
  S  S153  1  0.43246736  0.83010726  0.29183966  1
  S  S154  1  0.43153363  0.82645295  0.62059055  1
  S  S155  1  0.42811367  0.83375175  0.95657059  1
  S  S156  1  0.93254257  0.32530112  0.29021036  1
  S  S157  1  0.92998767  0.32369663  0.62156217  1
  S  S158  1  0.93207463  0.32603379  0.95946018  1
  S  S159  1  0.92630786  0.83579533  0.29236022  1
  S  S160  1  0.92898161  0.82398976  0.62240444  1
  S  S161  1  0.93559307  0.83230628  0.95720319  1
  S  S162  1  0.17509067  0.07300048  0.20944347  1
  S  S163  1  0.17284943  0.06753359  0.54253617  1
  S  S164  1  0.16966355  0.06572919  0.87862933  1
  S  S165  1  0.16608340  0.55875933  0.21621397  1
  S  S166  1  0.17022663  0.56841193  0.54189206  1
  S  S167  1  0.16336855  0.57056740  0.87188437  1
  S  S168  1  0.66783830  0.06717404  0.20300565  1
  S  S169  1  0.66492371  0.06438537  0.54216064  1
  S  S170  1  0.67062629  0.07682684  0.87431035  1
  S  S171  1  0.67022051  0.56519278  0.21109599  1
  S  S172  1  0.66896951  0.56384909  0.54227717  1
  S  S173  1  0.67266086  0.56086572  0.87909517  1
  O  O174  1  0.37018433  0.21912128  0.07148300  1
  O  O175  1  0.36420447  0.20759424  0.40068992  1
  O  O176  1  0.37071335  0.20652842  0.73891308  1
  O  O177  1  0.37298685  0.72833369  0.08022614  1
  O  O178  1  0.37063091  0.71903787  0.40693562  1
  O  O179  1  0.36511913  0.72347739  0.73413067  1
  O  O180  1  0.87129256  0.22483772  0.08476425  1
  O  O181  1  0.87615490  0.21668354  0.40591370  1
  O  O182  1  0.86930322  0.22090464  0.74479587  1
  O  O183  1  0.86134411  0.72567437  0.07495125  1
  O  O184  1  0.86797024  0.71802850  0.41471357  1
  O  O185  1  0.86449173  0.72076185  0.74262891  1
  O  O186  1  0.28180072  0.13119262  0.08677448  1
  O  O187  1  0.28125690  0.12317046  0.42762196  1
  O  O188  1  0.28840386  0.11646040  0.76323473  1
  O  O189  1  0.28345373  0.64261407  0.09754447  1
  O  O190  1  0.28157823  0.63243333  0.42278520  1
  O  O191  1  0.27098502  0.63940537  0.74560099  1
  O  O192  1  0.78343643  0.13207637  0.09348016  1
  O  O193  1  0.78882427  0.13604170  0.43120289  1
  O  O194  1  0.78125159  0.13197663  0.75867474  1
  O  O195  1  0.76995244  0.63587007  0.08428960  1
  O  O196  1  0.78194447  0.62752550  0.43018916  1
  O  O197  1  0.77551405  0.63313070  0.75763330  1
  O  O198  1  0.13326268  0.27540288  0.26144712  1
  O  O199  1  0.12901102  0.28343781  0.58905775  1
  O  O200  1  0.12351049  0.27100957  0.91747363  1
  O  O201  1  0.13228740  0.79120279  0.26135309  1
  O  O202  1  0.13028394  0.78423241  0.59344179  1
  O  O203  1  0.13076039  0.77871642  0.92226083  1
  O  O204  1  0.63254742  0.28062568  0.26080035  1
  O  O205  1  0.63698523  0.27826954  0.58747203  1
  O  O206  1  0.63561004  0.27981556  0.92718585  1
  O  O207  1  0.62714906  0.77449218  0.25146519  1
  O  O208  1  0.63028202  0.77758299  0.58921311  1
  O  O209  1  0.62880221  0.79022969  0.92576218  1
  O  O210  1  0.22311494  0.36134985  0.24636230  1
  O  O211  1  0.21363074  0.37213881  0.56971234  1
  O  O212  1  0.21468332  0.35774515  0.90359773  1
  O  O213  1  0.21356100  0.87969262  0.23505352  1
  O  O214  1  0.21790909  0.86942236  0.57361589  1
  O  O215  1  0.21620130  0.86932304  0.90665601  1
  O  O216  1  0.72243015  0.36714450  0.24553326  1
  O  O217  1  0.73118301  0.36692250  0.58274792  1
  O  O218  1  0.73104022  0.36604562  0.92019885  1
  O  O219  1  0.71594174  0.86711111  0.24316503  1
  O  O220  1  0.71905366  0.86584863  0.57521875  1
  O  O221  1  0.70955289  0.87835278  0.89850727  1
  O  O222  1  0.41983602  0.13214660  0.14769432  1
  O  O223  1  0.41892519  0.13505549  0.48995040  1
  O  O224  1  0.42659184  0.12465912  0.81793066  1
  O  O225  1  0.42087280  0.63308905  0.14933467  1
  O  O226  1  0.41936005  0.63078192  0.48218611  1
  O  O227  1  0.40807578  0.64046102  0.81466371  1
  O  O228  1  0.92098644  0.13237304  0.15526311  1
  O  O229  1  0.92739442  0.12859312  0.48200578  1
  O  O230  1  0.91882063  0.13136453  0.81778244  1
  O  O231  1  0.90668222  0.64105543  0.15408731  1
  O  O232  1  0.91996313  0.62615505  0.48430138  1
  O  O233  1  0.91308872  0.63230649  0.81685644  1
  O  O234  1  0.37014757  0.08107388  0.01197732  1
  O  O235  1  0.37253690  0.06936434  0.35597691  1
  O  O236  1  0.37206457  0.06900262  0.68234659  1
  O  O237  1  0.36227067  0.59116890  0.01420390  1
  O  O238  1  0.36986528  0.58058985  0.34714431  1
  O  O239  1  0.36561144  0.58593689  0.67893721  1
  O  O240  1  0.87301921  0.08689174  0.01986035  1
  O  O241  1  0.86568352  0.07828067  0.34794349  1
  O  O242  1  0.86586732  0.08329600  0.68080885  1
  O  O243  1  0.86572630  0.58732000  0.01857693  1
  O  O244  1  0.86328326  0.58095408  0.34823260  1
  O  O245  1  0.86105109  0.58337119  0.68014473  1
  O  O246  1  0.08592590  0.35797914  0.18128338  1
  O  O247  1  0.07511984  0.37383869  0.51752386  1
  O  O248  1  0.07728782  0.36624919  0.84798172  1
  O  O249  1  0.07502751  0.87106709  0.18040942  1
  O  O250  1  0.07984008  0.87012294  0.51602196  1
  O  O251  1  0.07743358  0.87037753  0.85246450  1
  O  O252  1  0.58490224  0.36720517  0.18376174  1
  O  O253  1  0.59460107  0.37343929  0.51964985  1
  O  O254  1  0.59407917  0.37156649  0.85499341  1
  O  O255  1  0.57968577  0.86440636  0.17733351  1
  O  O256  1  0.58123408  0.86430259  0.51333071  1
  O  O257  1  0.57079030  0.87209062  0.84587863  1
  O  O258  1  0.13272734  0.41326211  0.31817477  1
  O  O259  1  0.13074891  0.42132233  0.65204711  1
  O  O260  1  0.13270952  0.40795537  0.98344229  1
  O  O261  1  0.13084167  0.92875437  0.31540569  1
  O  O262  1  0.13424042  0.92212724  0.65246482  1
  O  O263  1  0.13458863  0.91644496  0.98829964  1
  O  O264  1  0.63347231  0.41927221  0.31911872  1
  O  O265  1  0.64092832  0.41533612  0.65527510  1
  O  O266  1  0.63956331  0.41770821  0.99032748  1
  O  O267  1  0.62297011  0.91259060  0.31260111  1
  O  O268  1  0.63061602  0.91545601  0.64990740  1
  O  O269  1  0.62708331  0.92862473  0.97942497  1
  O  O270  1  0.03017223  0.19522132  0.10296734  1
  O  O271  1  0.03582165  0.20435280  0.44109740  1
  O  O272  1  0.02717688  0.19829557  0.76768344  1
  O  O273  1  0.01660636  0.71196676  0.10061860  1
  O  O274  1  0.03143063  0.70911000  0.44470386  1
  O  O275  1  0.02575177  0.69782902  0.76665332  1
  O  O276  1  0.53277144  0.19941851  0.10050532  1
  O  O277  1  0.53391235  0.19984892  0.43754447  1
  O  O278  1  0.54207980  0.19959164  0.77113351  1
  O  O279  1  0.53168714  0.69831778  0.10497374  1
  O  O280  1  0.52979018  0.69662449  0.43620378  1
  O  O281  1  0.52991814  0.69549201  0.76436250  1
  O  O282  1  0.31315619  0.45785586  0.06197007  1
  O  O283  1  0.29202558  0.47368391  0.39393839  1
  O  O284  1  0.29423774  0.47571827  0.71895423  1
  O  O285  1  0.30431846  0.97380901  0.06428419  1
  O  O286  1  0.29733427  0.96030447  0.39420863  1
  O  O287  1  0.29690784  0.95782851  0.72609249  1
  O  O288  1  0.80058706  0.47473378  0.06766252  1
  O  O289  1  0.80010910  0.46600897  0.39709574  1
  O  O290  1  0.80344200  0.47186571  0.73377912  1
  O  O291  1  0.79915150  0.96882313  0.06719919  1
  O  O292  1  0.80383512  0.96734061  0.39976319  1
  O  O293  1  0.79886461  0.96680934  0.72453083  1
  O  O294  1  0.46979023  0.30032381  0.22608217  1
  O  O295  1  0.47412797  0.30883893  0.56503358  1
  O  O296  1  0.47967706  0.29338060  0.89858744  1
  O  O297  1  0.46813974  0.80058591  0.23077526  1
  O  O298  1  0.46967617  0.79705347  0.56017630  1
  O  O299  1  0.45919979  0.80882939  0.89402839  1
  O  O300  1  0.97241966  0.29760463  0.23117357  1
  O  O301  1  0.96666570  0.29398366  0.56099736  1
  O  O302  1  0.96640522  0.29615593  0.89738934  1
  O  O303  1  0.96268209  0.81714693  0.23227129  1
  O  O304  1  0.96796456  0.79582244  0.56304420  1
  O  O305  1  0.97258004  0.79281453  0.89705780  1
  O  O306  1  0.20702171  0.04111813  0.27287557  1
  O  O307  1  0.20229189  0.03284751  0.60504439  1
  O  O308  1  0.20080720  0.02693124  0.93867946  1
  O  O309  1  0.20862852  0.52171085  0.27727566  1
  O  O310  1  0.19909651  0.53126647  0.60180984  1
  O  O311  1  0.18420661  0.54274058  0.93583370  1
  O  O312  1  0.69388634  0.03050180  0.26240289  1
  O  O313  1  0.69755273  0.03054110  0.60622608  1
  O  O314  1  0.69462028  0.04475510  0.93652773  1
  O  O315  1  0.70163982  0.52834773  0.27235979  1
  O  O316  1  0.69768971  0.52759724  0.60338036  1
  O  O317  1  0.70916602  0.52364707  0.93908991  1
  O  O318  1  0.08509788  0.08441983  0.03584171  1
  O  O319  1  0.09094055  0.09291967  0.37914131  1
  O  O320  1  0.08621834  0.08869597  0.70803672  1
  O  O321  1  0.07756846  0.60095608  0.05448534  1
  O  O322  1  0.09205578  0.59965730  0.38640019  1
  O  O323  1  0.08524611  0.58858633  0.70215835  1
  O  O324  1  0.58351207  0.08714964  0.03119502  1
  O  O325  1  0.57150428  0.08248411  0.36340955  1
  O  O326  1  0.58953441  0.08974885  0.69593422  1
  O  O327  1  0.58528501  0.58572839  0.03848910  1
  O  O328  1  0.58238280  0.58330207  0.37106111  1
  O  O329  1  0.58656324  0.58596975  0.70110234  1
  O  O330  1  0.41896154  0.41125014  0.14062845  1
  O  O331  1  0.41197843  0.43288721  0.45828274  1
  O  O332  1  0.42548456  0.46285735  0.79239975  1
  O  O333  1  0.41794380  0.92122896  0.13033060  1
  O  O334  1  0.41420160  0.91464733  0.46294780  1
  O  O335  1  0.40813954  0.90589505  0.79445352  1
  O  O336  1  0.90861776  0.41258711  0.12646369  1
  O  O337  1  0.91008236  0.40994743  0.46352874  1
  O  O338  1  0.91465558  0.41350938  0.79372021  1
  O  O339  1  0.90224353  0.90594236  0.12697630  1
  O  O340  1  0.91105767  0.91093845  0.46744196  1
  O  O341  1  0.90894021  0.90875330  0.79007480  1
  O  O342  1  0.41650539  0.41469719  0.29155998  1
  O  O343  1  0.41947338  0.42054623  0.62650355  1
  O  O344  1  0.42772935  0.40838380  0.95211817  1
  O  O345  1  0.41687287  0.91320330  0.29841992  1
  O  O346  1  0.41373602  0.90749084  0.62432832  1
  O  O347  1  0.41085479  0.91788078  0.96879237  1
  O  O348  1  0.90761728  0.40267268  0.29067331  1
  O  O349  1  0.91327662  0.40601687  0.62644701  1
  O  O350  1  0.91224314  0.40660625  0.96373719  1
  O  O351  1  0.90422744  0.91710649  0.30674731  1
  O  O352  1  0.90728730  0.90278207  0.62608832  1
  O  O353  1  0.93076834  0.91381179  0.95848913  1
  O  O354  1  0.09336301  0.08952420  0.20271700  1
  O  O355  1  0.09119152  0.08627896  0.53684418  1
  O  O356  1  0.08786059  0.08013450  0.87571257  1
  O  O357  1  0.09226151  0.57693806  0.22988493  1
  O  O358  1  0.08969865  0.58841553  0.54019207  1
  O  O359  1  0.07747188  0.58649443  0.85480886  1
  O  O360  1  0.58471495  0.08586842  0.19683268  1
  O  O361  1  0.58712129  0.09171701  0.54328486  1
  O  O362  1  0.58852362  0.09700590  0.86476392  1
  O  O363  1  0.58857664  0.58140688  0.20899275  1
  O  O364  1  0.58632361  0.58036578  0.53420390  1
  O  O365  1  0.59219346  0.57091364  0.87732071  1
  O  O366  1  0.13735647  0.21909729  0.05831019  1
  O  O367  1  0.14397454  0.22572383  0.39693704  1
  O  O368  1  0.13518256  0.22055006  0.72170240  1
  O  O369  1  0.12760914  0.73003209  0.05816955  1
  O  O370  1  0.13439706  0.73065208  0.39396069  1
  O  O371  1  0.13331625  0.72489538  0.72451701  1
  O  O372  1  0.64291684  0.22081651  0.05898990  1
  O  O373  1  0.63954038  0.21204181  0.38842416  1
  O  O374  1  0.64475614  0.22445223  0.72282041  1
  O  O375  1  0.63521283  0.71966428  0.05664406  1
  O  O376  1  0.63805801  0.71634403  0.39167878  1
  O  O377  1  0.63852798  0.72052081  0.72106234  1
  O  O378  1  0.28331338  0.35576200  0.11093949  1
  O  O379  1  0.28503991  0.36488873  0.44155194  1
  O  O380  1  0.31479128  0.37269419  0.77591976  1
  O  O381  1  0.28405932  0.86542133  0.10822714  1
  O  O382  1  0.28257835  0.85472534  0.44299705  1
  O  O383  1  0.27385105  0.85775044  0.77858595  1
  O  O384  1  0.77488036  0.36390789  0.10814646  1
  O  O385  1  0.77571665  0.35770671  0.44041181  1
  O  O386  1  0.78179298  0.36236837  0.77714531  1
  O  O387  1  0.76636528  0.85885111  0.10599591  1
  O  O388  1  0.77563812  0.85903559  0.44128289  1
  O  O389  1  0.77473838  0.86447322  0.77383928  1
  O  O390  1  0.36729926  0.28186155  0.27726976  1
  O  O391  1  0.36429295  0.28927844  0.60785445  1
  O  O392  1  0.36990283  0.27933995  0.94266982  1
  O  O393  1  0.36157569  0.78053572  0.27886559  1
  O  O394  1  0.35911097  0.77457996  0.60128520  1
  O  O395  1  0.35712554  0.78333545  0.94393510  1
  O  O396  1  0.86501945  0.26779438  0.27373111  1
  O  O397  1  0.85936763  0.27145327  0.60590912  1
  O  O398  1  0.86205175  0.27243729  0.94488922  1
  O  O399  1  0.85934301  0.77821077  0.27453283  1
  O  O400  1  0.85888157  0.76811256  0.60383055  1
  O  O401  1  0.85955374  0.78685949  0.93864429  1
  O  O402  1  0.22662855  0.14363367  0.22162927  1
  O  O403  1  0.22476452  0.13721241  0.55619630  1
  O  O404  1  0.22053215  0.13766102  0.89734657  1
  O  O405  1  0.21740464  0.62964533  0.23019972  1
  O  O406  1  0.22213596  0.63999958  0.55765297  1
  O  O407  1  0.21334731  0.64205483  0.88355586  1
  O  O408  1  0.71942938  0.13962599  0.22063658  1
  O  O409  1  0.72190639  0.13206696  0.55661103  1
  O  O410  1  0.72436919  0.14653720  0.88863978  1
  O  O411  1  0.72101973  0.63569249  0.22553677  1
  O  O412  1  0.72027235  0.63566794  0.55923522  1
  O  O413  1  0.72108605  0.63486112  0.89510266  1
  O  O414  1  0.49695684  0.33683088  0.03305026  1
  O  O415  1  0.49943453  0.34266930  0.36179952  1
  O  O416  1  0.49443200  0.34274026  0.69875142  1
  O  O417  1  0.49004730  0.83425640  0.02744282  1
  O  O418  1  0.49385040  0.83285029  0.36438634  1
  O  O419  1  0.48863218  0.82650540  0.69270213  1
  O  O420  1  0.99206670  0.32884359  0.03166895  1
  O  O421  1  0.99210512  0.33156235  0.36362554  1
  O  O422  1  0.98936322  0.32831380  0.69460196  1
  O  O423  1  0.98823717  0.83133380  0.03186667  1
  O  O424  1  0.98805099  0.83602363  0.36393509  1
  O  O425  1  0.98739279  0.82527851  0.69515705  1
  O  O426  1  0.17395119  0.01107608  0.13840306  1
  O  O427  1  0.16882381  0.00518014  0.47104474  1
  O  O428  1  0.16886730  0.00855183  0.80599291  1
  O  O429  1  0.15586783  0.50086245  0.14308813  1
  O  O430  1  0.16625872  0.50977089  0.46894328  1
  O  O431  1  0.16282636  0.50749596  0.80069331  1
  O  O432  1  0.66390700  0.01026287  0.12879040  1
  O  O433  1  0.65404538  0.00227523  0.47136374  1
  O  O434  1  0.66969333  0.01541920  0.80308289  1
  O  O435  1  0.66681508  0.50550741  0.13850355  1
  O  O436  1  0.66861890  0.50495390  0.47003837  1
  O  O437  1  0.67344856  0.50492463  0.80525276  1
  O  O438  1  0.01432625  0.16945524  0.30758106  1
  O  O439  1  0.00621210  0.16226299  0.63460872  1
  O  O440  1  0.00713778  0.16289910  0.96909147  1
  O  O441  1  0.00381877  0.66742268  0.31048773  1
  O  O442  1  0.00576809  0.66397652  0.63304897  1
  O  O443  1  0.00336704  0.66328031  0.96711506  1
  O  O444  1  0.50690118  0.17263120  0.30292675  1
  O  O445  1  0.51129084  0.17509823  0.63821055  1
  O  O446  1  0.51265766  0.17191915  0.96711616  1
  O  O447  1  0.50729397  0.66307138  0.30260352  1
  O  O448  1  0.50925532  0.66348647  0.63134333  1
  O  O449  1  0.50382846  0.66259557  0.97034172  1
  O  O450  1  0.33148417  0.48895025  0.19566119  1
  O  O451  1  0.32827328  0.49645655  0.52854033  1
  O  O452  1  0.32953804  0.50929161  0.85417509  1
  O  O453  1  0.33724920  0.99542326  0.19796911  1
  O  O454  1  0.33337704  0.98776008  0.52928859  1
  O  O455  1  0.33187577  0.98922541  0.86107189  1
  O  O456  1  0.83371423  0.49151043  0.19943275  1
  O  O457  1  0.83117440  0.48801147  0.53006500  1
  O  O458  1  0.83952861  0.49149330  0.86692351  1
  O  O459  1  0.82648877  0.98527927  0.19900868  1
  O  O460  1  0.82856644  0.98830420  0.53094067  1
  O  O461  1  0.83818565  0.99564173  0.85938926  1
