# generated using pymatgen
data_Na31Fe20(SO4)36
_symmetry_space_group_name_H-M   'P 1'
_cell_length_a   18.08766608
_cell_length_b   18.09406374
_cell_length_c   19.73565947
_cell_angle_alpha   107.57776956
_cell_angle_beta   107.59559485
_cell_angle_gamma   90.74053711
_symmetry_Int_Tables_number   1
_chemical_formula_structural   Na31Fe20(SO4)36
_chemical_formula_sum   'Na62 Fe40 S72 O288'
_cell_volume   5830.67294824
_cell_formula_units_Z   2
loop_
 _symmetry_equiv_pos_site_id
 _symmetry_equiv_pos_as_xyz
  1  'x, y, z'
loop_
 _atom_site_type_symbol
 _atom_site_label
 _atom_site_symmetry_multiplicity
 _atom_site_fract_x
 _atom_site_fract_y
 _atom_site_fract_z
 _atom_site_occupancy
  Na  Na0  1  0.13120526  0.35061046  0.07042192  1
  Na  Na1  1  0.13383893  0.36928198  0.42214230  1
  Na  Na2  1  0.13092239  0.36711812  0.75720593  1
  Na  Na3  1  0.15578744  0.86595499  0.08108747  1
  Na  Na4  1  0.13729670  0.86926127  0.41661442  1
  Na  Na5  1  0.14845048  0.87683570  0.77221171  1
  Na  Na6  1  0.63726446  0.36749077  0.08265921  1
  Na  Na7  1  0.64820124  0.33063520  0.43841849  1
  Na  Na8  1  0.62290844  0.35052535  0.72749419  1
  Na  Na9  1  0.62096334  0.87466412  0.08296354  1
  Na  Na10  1  0.62411247  0.87600264  0.41992311  1
  Na  Na11  1  0.63656315  0.85975781  0.74505398  1
  Na  Na12  1  0.37501914  0.13489171  0.26014362  1
  Na  Na13  1  0.37879754  0.11701506  0.56521210  1
  Na  Na14  1  0.35749099  0.13377590  0.91431912  1
  Na  Na15  1  0.36313947  0.62975825  0.24581546  1
  Na  Na16  1  0.37069783  0.63273126  0.58395522  1
  Na  Na17  1  0.36814641  0.64768270  0.93636440  1
  Na  Na18  1  0.86896964  0.13469778  0.25295265  1
  Na  Na19  1  0.85610867  0.13398281  0.57552106  1
  Na  Na20  1  0.87078697  0.13414859  0.91462333  1
  Na  Na21  1  0.86573345  0.63625636  0.25090870  1
  Na  Na22  1  0.85565099  0.63942703  0.58585724  1
  Na  Na23  1  0.86997349  0.62284134  0.90990600  1
  Na  Na24  1  0.48770857  0.01215492  0.74793531  1
  Na  Na25  1  1.01546069  0.49518740  0.06250813  1
  Na  Na26  1  1.02142169  -0.01345927  0.07484147  1
  Na  Na27  1  0.99010967  0.05087466  0.76182329  1
  Na  Na28  1  0.52329700  0.45777412  0.43715488  1
  Na  Na29  1  0.49349779  0.52308358  0.74721565  1
  Na  Na30  1  0.48867713  0.51148671  0.08523065  1
  Na  Na31  1  0.99570205  0.01231448  0.41730761  1
  Na  Na32  1  0.39998645  -0.02157087  0.03707433  1
  Na  Na33  1  0.51017562  0.48777459  0.25704068  1
  Na  Na34  1  0.00976891  0.48525761  0.25942844  1
  Na  Na35  1  -0.03981238  0.51415138  0.63194498  1
  Na  Na36  1  0.49097843  0.44036695  0.57359284  1
  Na  Na37  1  0.01010415  0.99152850  0.58637871  1
  Na  Na38  1  0.50866385  0.49100568  0.91393042  1
  Na  Na39  1  0.05148092  0.99616814  0.26684153  1
  Na  Na40  1  0.06766953  1.01068410  0.93557588  1
  Na  Na41  1  0.50072643  0.96851417  0.25945941  1
  Na  Na42  1  0.24387669  0.24401171  0.67973082  1
  Na  Na43  1  0.75793009  0.75450863  -0.00427591  1
  Na  Na44  1  0.25772136  0.75422925  0.32517515  1
  Na  Na45  1  0.22886209  0.22507791  -0.00350455  1
  Na  Na46  1  0.75306940  0.25259789  0.33978881  1
  Na  Na47  1  0.24784788  0.75021249  0.67320196  1
  Na  Na48  1  0.75181818  0.25125193  -0.00270611  1
  Na  Na49  1  0.74638048  0.26431231  0.63310609  1
  Na  Na50  1  0.25148625  0.23351526  0.34704485  1
  Na  Na51  1  0.74165402  0.74824715  0.33847816  1
  Na  Na52  1  0.24817759  0.23558997  0.50958425  1
  Na  Na53  1  0.24639427  0.75065687  0.85205579  1
  Na  Na54  1  0.76361021  0.75762565  0.81683527  1
  Na  Na55  1  0.74906906  0.75295856  0.16479021  1
  Na  Na56  1  0.27022430  0.75539621  0.14880784  1
  Na  Na57  1  0.74275225  0.74519690  0.51029690  1
  Na  Na58  1  0.24440086  0.23396572  0.17385626  1
  Na  Na59  1  0.75403424  0.25672101  0.82180921  1
  Na  Na60  1  0.74562884  0.24450682  0.17116477  1
  Na  Na61  1  0.25120241  0.75201996  0.49882796  1
  Fe  Fe62  1  0.46490188  0.30709969  0.78294551  1
  Fe  Fe63  1  0.96156893  0.31340014  0.45866795  1
  Fe  Fe64  1  0.46589343  0.81008950  0.45997883  1
  Fe  Fe65  1  0.96948535  0.80714815  0.11963610  1
  Fe  Fe66  1  0.46288403  0.82101323  0.79406787  1
  Fe  Fe67  1  0.96316801  0.30142878  0.78697085  1
  Fe  Fe68  1  0.96208218  0.80938875  0.78467737  1
  Fe  Fe69  1  0.96527905  0.30562748  0.11996189  1
  Fe  Fe70  1  0.46716267  0.30982541  0.11448464  1
  Fe  Fe71  1  0.96447239  0.80696553  0.45106207  1
  Fe  Fe72  1  0.19264982  0.53412512  0.04474502  1
  Fe  Fe73  1  0.19354670  0.53556238  0.38184397  1
  Fe  Fe74  1  0.68852458  0.03303198  0.04102025  1
  Fe  Fe75  1  0.70079768  0.52956478  0.70692933  1
  Fe  Fe76  1  0.19280604  0.53711945  0.71731613  1
  Fe  Fe77  1  0.19220693  0.03892400  0.71716187  1
  Fe  Fe78  1  0.69630195  0.53597922  0.04865191  1
  Fe  Fe79  1  0.69639460  0.53356852  0.38545554  1
  Fe  Fe80  1  0.69171633  0.03807544  0.38417521  1
  Fe  Fe81  1  0.68030890  0.03736808  0.70496157  1
  Fe  Fe82  1  0.53805822  0.69149877  0.88130463  1
  Fe  Fe83  1  0.03610765  0.68777699  0.87913674  1
  Fe  Fe84  1  0.03668031  0.19463526  0.55030589  1
  Fe  Fe85  1  0.03827481  0.68886726  0.21221330  1
  Fe  Fe86  1  0.53337449  0.19363479  0.88056172  1
  Fe  Fe87  1  0.52981350  0.70328533  0.21253043  1
  Fe  Fe88  1  0.53295525  0.19250575  0.21045548  1
  Fe  Fe89  1  0.03659117  0.18876523  0.21640595  1
  Fe  Fe90  1  0.53670246  0.68974546  0.54799514  1
  Fe  Fe91  1  0.03248066  0.69299292  0.54608958  1
  Fe  Fe92  1  0.80663301  0.46580758  0.95209877  1
  Fe  Fe93  1  0.80629579  0.96602185  0.61964495  1
  Fe  Fe94  1  0.30307301  0.97385243  0.29772736  1
  Fe  Fe95  1  0.30373374  0.96696967  0.61824261  1
  Fe  Fe96  1  0.81250023  0.46626108  0.29094283  1
  Fe  Fe97  1  0.80850282  0.96714049  0.95087604  1
  Fe  Fe98  1  0.31373499  0.45986741  0.28827751  1
  Fe  Fe99  1  0.30236865  0.46985460  0.61826013  1
  Fe  Fe100  1  0.80518734  0.96538139  0.28242491  1
  Fe  Fe101  1  0.30452338  0.46099614  0.94796180  1
  S  S102  1  0.35977143  0.15035300  0.07875287  1
  S  S103  1  0.36925245  0.14528006  0.41770949  1
  S  S104  1  0.35998476  0.14068484  0.74814214  1
  S  S105  1  0.36319958  0.63169340  0.08553549  1
  S  S106  1  0.36023302  0.63992620  0.41579513  1
  S  S107  1  0.36037707  0.64301064  0.75068682  1
  S  S108  1  0.85753330  0.14001015  0.08480103  1
  S  S109  1  0.86216824  0.13618891  0.41550686  1
  S  S110  1  0.85086217  0.14114984  0.74598955  1
  S  S111  1  0.86186148  0.64151625  0.08489994  1
  S  S112  1  0.85877194  0.64371014  0.41554917  1
  S  S113  1  0.86350187  0.64115133  0.75022643  1
  S  S114  1  0.14111804  0.35910694  0.25252258  1
  S  S115  1  0.14038904  0.36294364  0.58366766  1
  S  S116  1  0.13691140  0.36299797  0.91939105  1
  S  S117  1  0.14208478  0.85490441  0.24817403  1
  S  S118  1  0.13783249  0.85839298  0.58161366  1
  S  S119  1  0.13329322  0.85614297  0.91648795  1
  S  S120  1  0.64059767  0.36383336  0.24711437  1
  S  S121  1  0.63243946  0.36481710  0.58369063  1
  S  S122  1  0.63990252  0.36216728  0.91730996  1
  S  S123  1  0.64283335  0.86144691  0.25120195  1
  S  S124  1  0.64121571  0.85740693  0.58552673  1
  S  S125  1  0.64569586  0.85655980  0.91398364  1
  S  S126  1  0.05876884  0.16888479  0.04953066  1
  S  S127  1  0.06201474  0.17406906  0.38084694  1
  S  S128  1  0.05996687  0.16963047  0.70311086  1
  S  S129  1  0.06907420  0.67101008  0.04539803  1
  S  S130  1  0.06703777  0.67000412  0.37458200  1
  S  S131  1  0.06836742  0.67310195  0.70922002  1
  S  S132  1  0.57278479  0.17503681  0.04294814  1
  S  S133  1  0.57885656  0.16269029  0.36342785  1
  S  S134  1  0.56135363  0.17037686  0.71286777  1
  S  S135  1  0.56991740  0.66445455  0.04143732  1
  S  S136  1  0.56936864  0.67189490  0.37584368  1
  S  S137  1  0.57175371  0.66558718  0.71029361  1
  S  S138  1  0.32958976  0.42923502  0.12433732  1
  S  S139  1  0.32763105  0.43433187  0.45293931  1
  S  S140  1  0.33097863  0.43844753  0.79269896  1
  S  S141  1  0.33018107  0.93815048  0.13551470  1
  S  S142  1  0.32612072  0.92465839  0.45700022  1
  S  S143  1  0.32967326  0.93904305  0.78682073  1
  S  S144  1  0.83227961  0.43489859  0.12653127  1
  S  S145  1  0.83082274  0.43744739  0.45731149  1
  S  S146  1  0.82343113  0.42685669  0.78890118  1
  S  S147  1  0.83586464  0.93276407  0.12433313  1
  S  S148  1  0.83380508  0.93312869  0.45757043  1
  S  S149  1  0.83101598  0.93485771  0.79081225  1
  S  S150  1  0.43991570  0.33234935  0.28743117  1
  S  S151  1  0.41792611  0.33852398  0.63007728  1
  S  S152  1  0.43499085  0.33627759  0.95613267  1
  S  S153  1  0.42671450  0.82628486  0.29371568  1
  S  S154  1  0.43074130  0.82733538  0.62548681  1
  S  S155  1  0.43827807  0.82563164  0.94657229  1
  S  S156  1  0.93382498  0.33122730  0.29176369  1
  S  S157  1  0.93135729  0.32242585  0.62203840  1
  S  S158  1  0.92683722  0.33064903  0.95952963  1
  S  S159  1  0.93429751  0.83049154  0.28932844  1
  S  S160  1  0.93431290  0.83322107  0.62339831  1
  S  S161  1  0.93000955  0.82819372  0.95735042  1
  S  S162  1  0.17021465  0.06216357  0.21236925  1
  S  S163  1  0.16438936  0.06319758  0.54198627  1
  S  S164  1  0.16778594  0.06802051  0.87168667  1
  S  S165  1  0.16738131  0.56122956  0.20861848  1
  S  S166  1  0.17180241  0.57266926  0.54439531  1
  S  S167  1  0.17464931  0.57144883  0.87708079  1
  S  S168  1  0.67472835  0.07021825  0.20702866  1
  S  S169  1  0.66822548  0.06459000  0.54557629  1
  S  S170  1  0.67033858  0.06778438  0.87387928  1
  S  S171  1  0.66985105  0.56937944  0.21023722  1
  S  S172  1  0.66872675  0.56956948  0.53980516  1
  S  S173  1  0.67322124  0.56659834  0.87434331  1
  O  O174  1  0.37608567  0.22822131  0.06769919  1
  O  O175  1  0.37837930  0.20727137  0.38564714  1
  O  O176  1  0.37131445  0.21992371  0.74206160  1
  O  O177  1  0.36774944  0.70627526  0.07326210  1
  O  O178  1  0.37045694  0.71872865  0.40795036  1
  O  O179  1  0.37253872  0.72184082  0.74420402  1
  O  O180  1  0.86527068  0.22076828  0.08001125  1
  O  O181  1  0.86936683  0.21473925  0.40695728  1
  O  O182  1  0.85903650  0.22074567  0.73901187  1
  O  O183  1  0.86986615  0.72146333  0.07909722  1
  O  O184  1  0.86836124  0.72165252  0.40437847  1
  O  O185  1  0.86802225  0.72342379  0.74797554  1
  O  O186  1  0.28050902  0.14865781  0.08324153  1
  O  O187  1  0.29075821  0.14412659  0.42792836  1
  O  O188  1  0.27953031  0.13263112  0.75116921  1
  O  O189  1  0.28721458  0.61854414  0.09964625  1
  O  O190  1  0.28067589  0.63281438  0.42385359  1
  O  O191  1  0.27986583  0.63515970  0.75563197  1
  O  O192  1  0.77757278  0.12876434  0.09042888  1
  O  O193  1  0.78664556  0.12477219  0.42774073  1
  O  O194  1  0.76959530  0.12961525  0.74878520  1
  O  O195  1  0.78282677  0.63168758  0.09359919  1
  O  O196  1  0.77813683  0.63594675  0.42018192  1
  O  O197  1  0.78442074  0.62684846  0.75813384  1
  O  O198  1  0.13271463  0.28110071  0.26216388  1
  O  O199  1  0.13596914  0.28225996  0.58923912  1
  O  O200  1  0.13509430  0.29322941  0.94147638  1
  O  O201  1  0.13413735  0.77255812  0.25012593  1
  O  O202  1  0.12967057  0.77833124  0.58790606  1
  O  O203  1  0.12298225  0.77510806  0.92149766  1
  O  O204  1  0.63285896  0.28378233  0.25157030  1
  O  O205  1  0.61465283  0.29490094  0.60118543  1
  O  O206  1  0.63009353  0.28522393  0.92847365  1
  O  O207  1  0.63222606  0.78113129  0.25730424  1
  O  O208  1  0.63051140  0.77902508  0.59365369  1
  O  O209  1  0.63824416  0.77729731  0.92164915  1
  O  O210  1  0.22018618  0.36860125  0.24523499  1
  O  O211  1  0.21586363  0.37436390  0.56910965  1
  O  O212  1  0.21320864  0.37707455  0.90712748  1
  O  O213  1  0.22374050  0.86851998  0.24712532  1
  O  O214  1  0.21645535  0.86758259  0.57342556  1
  O  O215  1  0.20930214  0.86690995  0.90720310  1
  O  O216  1  0.71952372  0.37453262  0.23871020  1
  O  O217  1  0.71074832  0.36841137  0.57650865  1
  O  O218  1  0.71937512  0.36930383  0.91060978  1
  O  O219  1  0.72458312  0.86794192  0.24629549  1
  O  O220  1  0.72040188  0.86627089  0.57786241  1
  O  O221  1  0.72510203  0.86706398  0.90642845  1
  O  O222  1  0.41595880  0.14548101  0.15084975  1
  O  O223  1  0.43043710  0.14616908  0.48515159  1
  O  O224  1  0.41686458  0.13163522  0.81722734  1
  O  O225  1  0.42596665  0.62578507  0.15393055  1
  O  O226  1  0.41863669  0.63244174  0.48406040  1
  O  O227  1  0.41790602  0.62946503  0.81673783  1
  O  O228  1  0.91539425  0.13112201  0.15262200  1
  O  O229  1  0.92546244  0.12506371  0.47918609  1
  O  O230  1  0.90726690  0.13317279  0.81347830  1
  O  O231  1  0.92057700  0.63265430  0.15254468  1
  O  O232  1  0.91495962  0.64041356  0.48647133  1
  O  O233  1  0.92188241  0.63457015  0.81976293  1
  O  O234  1  0.37080243  0.08981368  0.01515196  1
  O  O235  1  0.37109876  0.06871488  0.35520328  1
  O  O236  1  0.37154675  0.08127270  0.68158425  1
  O  O237  1  0.37269999  0.56762633  0.02043791  1
  O  O238  1  0.36626508  0.58067150  0.34724618  1
  O  O239  1  0.36772976  0.58406409  0.68150582  1
  O  O240  1  0.86570809  0.08348667  0.01582530  1
  O  O241  1  0.86799428  0.07739483  0.34533604  1
  O  O242  1  0.86321709  0.08293278  0.67852061  1
  O  O243  1  0.86871959  0.58371876  0.01619947  1
  O  O244  1  0.86912871  0.58390932  0.34956184  1
  O  O245  1  0.87387549  0.58759361  0.68302942  1
  O  O246  1  0.08208880  0.36732145  0.18418031  1
  O  O247  1  0.07742343  0.37282297  0.51971581  1
  O  O248  1  0.07574148  0.35967154  0.84841063  1
  O  O249  1  0.08658140  0.86310326  0.17771191  1
  O  O250  1  0.07884745  0.86584995  0.51249921  1
  O  O251  1  0.07218267  0.86392870  0.84692693  1
  O  O252  1  0.58162788  0.37434074  0.17951712  1
  O  O253  1  0.57417244  0.37637816  0.51733598  1
  O  O254  1  0.58127555  0.37125065  0.84977096  1
  O  O255  1  0.58618181  0.87252322  0.18620364  1
  O  O256  1  0.58282688  0.86361180  0.51645196  1
  O  O257  1  0.58706396  0.86415972  0.84606838  1
  O  O258  1  0.13033470  0.41936928  0.31914170  1
  O  O259  1  0.13820108  0.41912970  0.65545266  1
  O  O260  1  0.12517137  0.43046281  0.98174691  1
  O  O261  1  0.12663567  0.90847975  0.31325635  1
  O  O262  1  0.12718764  0.91654719  0.64791683  1
  O  O263  1  0.11973809  0.91237824  0.98185054  1
  O  O264  1  0.63104238  0.42215532  0.31453448  1
  O  O265  1  0.62589780  0.43359201  0.65145505  1
  O  O266  1  0.63225475  0.42356996  0.98493988  1
  O  O267  1  0.63811969  0.91852529  0.32205455  1
  O  O268  1  0.63306427  0.91698646  0.65286407  1
  O  O269  1  0.63978992  0.91478634  0.98324158  1
  O  O270  1  0.02625509  0.20672279  0.11488115  1
  O  O271  1  0.02766438  0.21298390  0.44186229  1
  O  O272  1  0.02428739  0.19797947  0.76293660  1
  O  O273  1  0.02823213  0.69973288  0.10405759  1
  O  O274  1  0.02919019  0.69835820  0.43434973  1
  O  O275  1  0.03002447  0.70082971  0.76831316  1
  O  O276  1  0.53752652  0.20509118  0.10429995  1
  O  O277  1  0.56538476  0.20151474  0.43292249  1
  O  O278  1  0.53187159  0.20589824  0.78054053  1
  O  O279  1  0.53674094  0.68958765  0.10275204  1
  O  O280  1  0.53271914  0.69780933  0.43665752  1
  O  O281  1  0.53204386  0.68726123  0.76882505  1
  O  O282  1  0.29562893  0.46030822  0.06073297  1
  O  O283  1  0.29323385  0.47309598  0.39318987  1
  O  O284  1  0.29972755  0.47531857  0.73208553  1
  O  O285  1  0.29432928  0.97395064  0.07865506  1
  O  O286  1  0.30021877  0.95761141  0.39480260  1
  O  O287  1  0.29381053  0.96985128  0.72056730  1
  O  O288  1  0.80237466  0.47176637  0.06593185  1
  O  O289  1  0.79876917  0.47242185  0.39295748  1
  O  O290  1  0.79631110  0.46860965  0.73302073  1
  O  O291  1  0.80558029  0.96684891  0.06209149  1
  O  O292  1  0.80325752  0.96736743  0.39578133  1
  O  O293  1  0.80124610  0.97172029  0.73067820  1
  O  O294  1  0.47179451  0.30474253  0.22228383  1
  O  O295  1  0.43750658  0.31457625  0.56157494  1
  O  O296  1  0.47001549  0.30363552  0.89449770  1
  O  O297  1  0.46735562  0.80353667  0.23674192  1
  O  O298  1  0.46867842  0.79642011  0.56563719  1
  O  O299  1  0.47984478  0.78884743  0.88734037  1
  O  O300  1  0.96982790  0.29858901  0.23090087  1
  O  O301  1  0.97251868  0.29116953  0.56241827  1
  O  O302  1  0.95744059  0.30592128  0.89690845  1
  O  O303  1  0.97193108  0.80157488  0.22938992  1
  O  O304  1  0.97049266  0.80308843  0.56155372  1
  O  O305  1  0.96317885  0.79890498  0.89526250  1
  O  O306  1  0.20200860  0.02939482  0.27609185  1
  O  O307  1  0.19647500  0.03056776  0.60646231  1
  O  O308  1  0.19372062  0.03013933  0.92870787  1
  O  O309  1  0.19836811  0.52599986  0.26988639  1
  O  O310  1  0.20022187  0.53572714  0.60547146  1
  O  O311  1  0.20912942  0.53863031  0.94025166  1
  O  O312  1  0.70204843  0.03126127  0.26676079  1
  O  O313  1  0.70404377  0.02176396  0.60316105  1
  O  O314  1  0.70034610  0.02960170  0.93409231  1
  O  O315  1  0.70084425  0.53490420  0.27192326  1
  O  O316  1  0.69940870  0.54426029  0.60589500  1
  O  O317  1  0.70201701  0.53032291  0.93600296  1
  O  O318  1  0.07352962  0.08982141  0.05221602  1
  O  O319  1  0.06864194  0.09251489  0.37871208  1
  O  O320  1  0.08115210  0.08832125  0.70031255  1
  O  O321  1  0.08835089  0.59075108  0.04458380  1
  O  O322  1  0.08671074  0.58889198  0.36904640  1
  O  O323  1  0.08733971  0.59163848  0.70369007  1
  O  O324  1  0.59264648  0.09517998  0.03779423  1
  O  O325  1  0.58660477  0.07615229  0.35155828  1
  O  O326  1  0.57857112  0.08910113  0.71359924  1
  O  O327  1  0.58710523  0.58027421  0.03137895  1
  O  O328  1  0.59030339  0.59052928  0.36844395  1
  O  O329  1  0.59405718  0.58466409  0.70366644  1
  O  O330  1  0.41388443  0.41908987  0.12993507  1
  O  O331  1  0.40724827  0.42096257  0.45339587  1
  O  O332  1  0.41329410  0.42166702  0.79775167  1
  O  O333  1  0.41413269  0.93306048  0.14446013  1
  O  O334  1  0.40748754  0.90644544  0.46963550  1
  O  O335  1  0.41017139  0.92077214  0.78368617  1
  O  O336  1  0.91433585  0.41750684  0.13300541  1
  O  O337  1  0.90843591  0.41224984  0.45431349  1
  O  O338  1  0.89997956  0.40061604  0.78867789  1
  O  O339  1  0.91861131  0.91656498  0.13147633  1
  O  O340  1  0.91717129  0.91766271  0.46263997  1
  O  O341  1  0.91195495  0.91626540  0.79436953  1
  O  O342  1  0.42269284  0.41680509  0.29462375  1
  O  O343  1  0.40747245  0.42610890  0.64736462  1
  O  O344  1  0.42066308  0.41952603  0.95974433  1
  O  O345  1  0.40127515  0.90523747  0.29853795  1
  O  O346  1  0.41154339  0.90777841  0.62946047  1
  O  O347  1  0.41635480  0.89871596  0.93324500  1
  O  O348  1  0.91660841  0.41212144  0.29162695  1
  O  O349  1  0.91093586  0.39916580  0.62040806  1
  O  O350  1  0.90808281  0.41384572  0.97301923  1
  O  O351  1  0.91645532  0.91238023  0.29581502  1
  O  O352  1  0.91813387  0.91571737  0.62819072  1
  O  O353  1  0.91177046  0.91019490  0.96462121  1
  O  O354  1  0.09074448  0.08677741  0.21710475  1
  O  O355  1  0.08343060  0.08475252  0.54237980  1
  O  O356  1  0.08804799  0.09042753  0.86712894  1
  O  O357  1  0.08460203  0.57773951  0.20407419  1
  O  O358  1  0.09299724  0.59479734  0.54105233  1
  O  O359  1  0.09525715  0.58982164  0.87624654  1
  O  O360  1  0.59474848  0.09047615  0.19876004  1
  O  O361  1  0.59089023  0.07837548  0.54740801  1
  O  O362  1  0.58957638  0.08676187  0.87012964  1
  O  O363  1  0.58773599  0.58597098  0.20422234  1
  O  O364  1  0.58485267  0.58504730  0.52922793  1
  O  O365  1  0.58999069  0.58203680  0.86930124  1
  O  O366  1  0.13215261  0.21870318  0.06612727  1
  O  O367  1  0.13720933  0.21958245  0.39623464  1
  O  O368  1  0.12855414  0.22140934  0.71294908  1
  O  O369  1  0.13975174  0.72341462  0.06399063  1
  O  O370  1  0.13730517  0.72318631  0.39087817  1
  O  O371  1  0.13915065  0.72612583  0.72620124  1
  O  O372  1  0.64354053  0.22886548  0.05890368  1
  O  O373  1  0.65045251  0.19994522  0.35896510  1
  O  O374  1  0.63402948  0.21905517  0.72754596  1
  O  O375  1  0.64144039  0.71521239  0.05547193  1
  O  O376  1  0.63950141  0.72686849  0.39392495  1
  O  O377  1  0.63993813  0.72183692  0.72905672  1
  O  O378  1  0.28327393  0.35672459  0.11334465  1
  O  O379  1  0.27591112  0.36310497  0.43651815  1
  O  O380  1  0.28005419  0.36761033  0.77765181  1
  O  O381  1  0.28755189  0.86168687  0.12097816  1
  O  O382  1  0.27263251  0.85342919  0.44052565  1
  O  O383  1  0.28098081  0.86568367  0.77208310  1
  O  O384  1  0.78024691  0.36349529  0.10934242  1
  O  O385  1  0.77601299  0.36926702  0.44208312  1
  O  O386  1  0.76478308  0.36022462  0.77276818  1
  O  O387  1  0.78501395  0.86076111  0.10940891  1
  O  O388  1  0.78464100  0.86109263  0.44394802  1
  O  O389  1  0.77838957  0.86526057  0.77668718  1
  O  O390  1  0.36693181  0.28410116  0.27162688  1
  O  O391  1  0.34728527  0.29409206  0.62702945  1
  O  O392  1  0.36408831  0.28887299  0.94445228  1
  O  O393  1  0.35820288  0.76789477  0.27335869  1
  O  O394  1  0.35985816  0.77396169  0.60819658  1
  O  O395  1  0.36992562  0.76979451  0.92977512  1
  O  O396  1  0.86091223  0.28126842  0.27600287  1
  O  O397  1  0.86305652  0.26648379  0.60387844  1
  O  O398  1  0.85627097  0.27857261  0.94671148  1
  O  O399  1  0.86291908  0.77793158  0.27188728  1
  O  O400  1  0.86256644  0.78220296  0.60595568  1
  O  O401  1  0.85973176  0.77557071  0.94348484  1
  O  O402  1  0.22180903  0.13217756  0.22405917  1
  O  O403  1  0.21637031  0.13378053  0.55650875  1
  O  O404  1  0.22201731  0.13595774  0.88263763  1
  O  O405  1  0.21789456  0.63264848  0.22358226  1
  O  O406  1  0.22781879  0.64137252  0.56037168  1
  O  O407  1  0.22649883  0.63968554  0.88669051  1
  O  O408  1  0.73065237  0.14027558  0.22614813  1
  O  O409  1  0.72306755  0.13421622  0.56367166  1
  O  O410  1  0.72349910  0.13878081  0.89169729  1
  O  O411  1  0.72116480  0.64115143  0.22503072  1
  O  O412  1  0.71737435  0.63872275  0.54580684  1
  O  O413  1  0.72388250  0.63899285  0.89285656  1
  O  O414  1  0.49702852  0.34264049  0.02918786  1
  O  O415  1  0.50220435  0.33393221  0.35529438  1
  O  O416  1  0.48534988  0.33666333  0.69731545  1
  O  O417  1  0.49444709  0.83594343  0.02039554  1
  O  O418  1  0.48452159  0.83015534  0.36780740  1
  O  O419  1  0.48978828  0.82915182  0.69796383  1
  O  O420  1  0.98914823  0.33291907  0.03154952  1
  O  O421  1  0.99125806  0.33487233  0.36467036  1
  O  O422  1  0.99012497  0.32593535  0.69559692  1
  O  O423  1  0.99144035  0.83198306  0.02964032  1
  O  O424  1  0.99259932  0.83186748  0.36208088  1
  O  O425  1  0.99280692  0.83376939  0.69491705  1
  O  O426  1  0.15566435  0.00060734  0.14069998  1
  O  O427  1  0.15465085  0.00209036  0.47105862  1
  O  O428  1  0.16083785  0.00814165  0.79483309  1
  O  O429  1  0.16269741  0.50215554  0.13515455  1
  O  O430  1  0.16832294  0.51251142  0.47204377  1
  O  O431  1  0.16885668  0.50868022  0.80486937  1
  O  O432  1  0.67540041  0.01094524  0.13503863  1
  O  O433  1  0.66913930  0.00800754  0.47141720  1
  O  O434  1  0.66790157  0.00922419  0.80134001  1
  O  O435  1  0.66880085  0.50988354  0.13792531  1
  O  O436  1  0.66571599  0.50396217  0.46969770  1
  O  O437  1  0.67197511  0.50935049  0.80213666  1
  O  O438  1  0.00593602  0.17479823  0.30714320  1
  O  O439  1  -0.00129264  0.15950675  0.62854809  1
  O  O440  1  0.00028404  0.16718215  0.97961976  1
  O  O441  1  0.00793413  0.66682798  0.30147388  1
  O  O442  1  0.00856747  0.66942175  0.63614904  1
  O  O443  1  0.01072389  0.66700751  0.97241409  1
  O  O444  1  0.51114177  0.16312042  0.29560122  1
  O  O445  1  0.49964532  0.16894873  0.64607689  1
  O  O446  1  0.51282826  0.17464617  0.97150090  1
  O  O447  1  0.51045648  0.66985709  0.30350528  1
  O  O448  1  0.51245565  0.66347884  0.63741270  1
  O  O449  1  0.51029877  0.66218154  0.96869962  1
  O  O450  1  0.33103469  0.49004568  0.19623369  1
  O  O451  1  0.33033959  0.49187105  0.52717327  1
  O  O452  1  0.33502862  0.49823488  0.86566919  1
  O  O453  1  0.32638566  0.99241943  0.21196000  1
  O  O454  1  0.32220377  0.98534280  0.52676457  1
  O  O455  1  0.33332097  0.99947704  0.85520487  1
  O  O456  1  0.83385293  0.49386104  0.19904438  1
  O  O457  1  0.84079042  0.50032150  0.52734959  1
  O  O458  1  0.83246493  0.48559657  0.86502756  1
  O  O459  1  0.83608331  0.99207362  0.19588290  1
  O  O460  1  0.83714000  0.99223690  0.53019569  1
  O  O461  1  0.83521670  0.99447551  0.86451397  1
