# generated using pymatgen
data_Na31Fe20(SO4)36
_symmetry_space_group_name_H-M   'P 1'
_cell_length_a   18.07727549
_cell_length_b   18.07035438
_cell_length_c   19.70576725
_cell_angle_alpha   107.59088442
_cell_angle_beta   107.57707465
_cell_angle_gamma   90.73626895
_symmetry_Int_Tables_number   1
_chemical_formula_structural   Na31Fe20(SO4)36
_chemical_formula_sum   'Na62 Fe40 S72 O288'
_cell_volume   5811.12466139
_cell_formula_units_Z   2
loop_
 _symmetry_equiv_pos_site_id
 _symmetry_equiv_pos_as_xyz
  1  'x, y, z'
loop_
 _atom_site_type_symbol
 _atom_site_label
 _atom_site_symmetry_multiplicity
 _atom_site_fract_x
 _atom_site_fract_y
 _atom_site_fract_z
 _atom_site_occupancy
  Na  Na0  1  0.12942371  0.36334949  0.07952480  1
  Na  Na1  1  0.12731444  0.36913008  0.42034403  1
  Na  Na2  1  0.13879299  0.36664649  0.75476280  1
  Na  Na3  1  0.13121913  0.86909184  0.08375745  1
  Na  Na4  1  0.13230262  0.86812749  0.41793603  1
  Na  Na5  1  0.12934079  0.85934045  0.74747662  1
  Na  Na6  1  0.64140110  0.35800917  0.08259887  1
  Na  Na7  1  0.65008660  0.37237129  0.43288394  1
  Na  Na8  1  0.64470280  0.36605706  0.75174160  1
  Na  Na9  1  0.63766955  0.86506983  0.08582449  1
  Na  Na10  1  0.63859775  0.85721466  0.41150259  1
  Na  Na11  1  0.63492308  0.87330134  0.75421658  1
  Na  Na12  1  0.37328731  0.13389323  0.25318598  1
  Na  Na13  1  0.36494555  0.14152420  0.58557388  1
  Na  Na14  1  0.36511987  0.13648413  0.91302693  1
  Na  Na15  1  0.36786105  0.63412851  0.25187452  1
  Na  Na16  1  0.36994548  0.61942597  0.58339648  1
  Na  Na17  1  0.37031958  0.63248223  0.91657408  1
  Na  Na18  1  0.87604274  0.14892375  0.26065961  1
  Na  Na19  1  0.85504574  0.14875493  0.58787883  1
  Na  Na20  1  0.86595290  0.13226749  0.91836277  1
  Na  Na21  1  0.85544033  0.62733349  0.23961683  1
  Na  Na22  1  0.87008516  0.62976665  0.58860393  1
  Na  Na23  1  0.85629317  0.62680644  0.89682346  1
  Na  Na24  1  0.49600764  0.01031747  0.08313660  1
  Na  Na25  1  0.49877063  0.01447670  0.40055544  1
  Na  Na26  1  0.52352519  0.48996971  0.06887918  1
  Na  Na27  1  0.49243975  0.04680659  0.78220251  1
  Na  Na28  1  0.99045293  0.00049736  0.74985144  1
  Na  Na29  1  0.99446503  0.01938446  0.39141957  1
  Na  Na30  1  0.50230777  0.48249190  0.42920050  1
  Na  Na31  1  0.92503444  0.49816022  0.72784006  1
  Na  Na32  1  0.98684521  0.04162179  0.11759790  1
  Na  Na33  1  0.51461264  0.48714668  0.24798743  1
  Na  Na34  1  0.50760232  0.99318335  0.58392699  1
  Na  Na35  1  0.00812215  0.45757718  0.56000818  1
  Na  Na36  1  -0.00656336  0.48843455  0.94698712  1
  Na  Na37  1  0.55417039  0.48709340  0.65263990  1
  Na  Na38  1  0.00131110  0.95204961  0.90768593  1
  Na  Na39  1  0.53674655  0.48816731  0.90552071  1
  Na  Na40  1  0.00330965  0.47940149  0.25864843  1
  Na  Na41  1  -0.00259205  1.00227675  0.57539354  1
  Na  Na42  1  0.73319445  0.23479600  0.00857079  1
  Na  Na43  1  0.24765818  0.75177187  0.00190851  1
  Na  Na44  1  0.24453773  0.74232674  0.66911260  1
  Na  Na45  1  0.74224940  0.73553972  0.00799511  1
  Na  Na46  1  0.24173367  0.74411985  0.33820797  1
  Na  Na47  1  0.25248119  0.25900742  0.67417669  1
  Na  Na48  1  0.23226667  0.23980354  0.33568023  1
  Na  Na49  1  0.75180846  0.74067113  0.67563960  1
  Na  Na50  1  0.25853815  0.25787220  -0.01358462  1
  Na  Na51  1  0.77012402  0.26784367  0.32342268  1
  Na  Na52  1  0.74087951  0.74103510  0.83847963  1
  Na  Na53  1  0.76812320  0.26667381  0.49617734  1
  Na  Na54  1  0.24693355  0.74206721  0.83593263  1
  Na  Na55  1  0.26053971  0.26454965  0.50222197  1
  Na  Na56  1  0.73699137  0.73326628  0.17942137  1
  Na  Na57  1  0.24028657  0.24329923  0.17035493  1
  Na  Na58  1  0.24330172  0.74152181  0.50657672  1
  Na  Na59  1  0.24802420  0.74659817  0.16891287  1
  Na  Na60  1  0.75416882  0.75114840  0.49897719  1
  Na  Na61  1  0.74245207  0.25090760  0.83472297  1
  Fe  Fe62  1  0.46718656  0.30526329  0.45712083  1
  Fe  Fe63  1  0.46692424  0.30225622  0.11418388  1
  Fe  Fe64  1  0.96319123  0.30837865  0.78732861  1
  Fe  Fe65  1  0.96100493  0.80670656  0.44869129  1
  Fe  Fe66  1  0.46520162  0.81033254  0.11952943  1
  Fe  Fe67  1  0.46394713  0.80668595  0.45088065  1
  Fe  Fe68  1  0.47077774  0.30122054  0.78905914  1
  Fe  Fe69  1  0.46278856  0.81667793  0.78946975  1
  Fe  Fe70  1  0.96465860  0.29799666  0.12312936  1
  Fe  Fe71  1  0.96377876  0.81547674  0.12223892  1
  Fe  Fe72  1  0.69241602  0.03780407  0.71749563  1
  Fe  Fe73  1  0.69318289  0.53658703  0.38646393  1
  Fe  Fe74  1  0.20479075  0.52630252  0.70674835  1
  Fe  Fe75  1  0.69149467  0.03183829  0.38004272  1
  Fe  Fe76  1  0.18904602  0.03532719  0.04672527  1
  Fe  Fe77  1  0.18902729  0.03785165  0.71426860  1
  Fe  Fe78  1  0.19197696  0.03534432  0.37770885  1
  Fe  Fe79  1  0.68641047  0.03788139  0.04514628  1
  Fe  Fe80  1  0.19381210  0.53601370  0.04348307  1
  Fe  Fe81  1  0.19497089  0.53143250  0.37798648  1
  Fe  Fe82  1  0.03258077  0.19434754  0.88168725  1
  Fe  Fe83  1  0.03175618  0.69016534  0.54266352  1
  Fe  Fe84  1  0.03478912  0.69100548  0.20839681  1
  Fe  Fe85  1  0.53162875  0.69652892  0.54963157  1
  Fe  Fe86  1  0.03148955  0.19761722  0.54491720  1
  Fe  Fe87  1  0.53590382  0.68977155  0.87637677  1
  Fe  Fe88  1  0.54098977  0.18959635  0.55105464  1
  Fe  Fe89  1  0.53908619  0.19288018  0.21477584  1
  Fe  Fe90  1  0.53761026  0.68804672  0.21183311  1
  Fe  Fe91  1  0.02915193  0.69558925  0.87015909  1
  Fe  Fe92  1  0.79774893  0.47521199  0.96300821  1
  Fe  Fe93  1  0.30977822  0.46331891  0.28502109  1
  Fe  Fe94  1  0.80822796  0.96419112  0.95251742  1
  Fe  Fe95  1  0.80650566  0.96438985  0.61629970  1
  Fe  Fe96  1  0.30473698  0.96816023  0.61873449  1
  Fe  Fe97  1  0.30890508  0.46429716  0.95040750  1
  Fe  Fe98  1  0.80380494  0.96233040  0.28251900  1
  Fe  Fe99  1  0.81118463  0.46469387  0.28873494  1
  Fe  Fe100  1  0.30759296  0.96357894  0.28283366  1
  Fe  Fe101  1  0.30408095  0.96599553  0.95072157  1
  S  S102  1  0.35720894  0.13961829  0.08278322  1
  S  S103  1  0.36350672  0.13721726  0.41753391  1
  S  S104  1  0.35169478  0.14139286  0.74600591  1
  S  S105  1  0.36022577  0.64306529  0.08490744  1
  S  S106  1  0.35866826  0.64096680  0.41566862  1
  S  S107  1  0.36207564  0.64747739  0.75255023  1
  S  S108  1  0.85360630  0.13984517  0.08208774  1
  S  S109  1  0.85992552  0.13481189  0.41760350  1
  S  S110  1  0.85995205  0.13981414  0.74836092  1
  S  S111  1  0.86221549  0.64578260  0.08413390  1
  S  S112  1  0.85714739  0.64329182  0.41425586  1
  S  S113  1  0.86093670  0.64757006  0.74806203  1
  S  S114  1  0.14117846  0.35929696  0.24314035  1
  S  S115  1  0.14554777  0.35404186  0.58915473  1
  S  S116  1  0.13872568  0.36063999  0.91983203  1
  S  S117  1  0.14156958  0.85869852  0.25004536  1
  S  S118  1  0.13780426  0.86211892  0.58055267  1
  S  S119  1  0.14160751  0.85916523  0.91540726  1
  S  S120  1  0.63854918  0.36184481  0.25145142  1
  S  S121  1  0.64261761  0.35004847  0.57692156  1
  S  S122  1  0.64222368  0.35819993  0.91951213  1
  S  S123  1  0.63851321  0.85796450  0.24822092  1
  S  S124  1  0.63762516  0.86189619  0.58326982  1
  S  S125  1  0.64044213  0.86052686  0.91856134  1
  S  S126  1  0.06206745  0.16485427  0.03987732  1
  S  S127  1  0.07072863  0.16880018  0.37953666  1
  S  S128  1  0.06592513  0.16965418  0.70801138  1
  S  S129  1  0.07103625  0.67426553  0.03944348  1
  S  S130  1  0.06882695  0.67182674  0.37346956  1
  S  S131  1  0.07735782  0.66398281  0.70335657  1
  S  S132  1  0.55946747  0.16584882  0.04188909  1
  S  S133  1  0.56997078  0.16941108  0.37567333  1
  S  S134  1  0.56266291  0.16298091  0.70742286  1
  S  S135  1  0.56211516  0.67081960  0.04254014  1
  S  S136  1  0.56406668  0.67077790  0.37622060  1
  S  S137  1  0.56647077  0.68346844  0.71599867  1
  S  S138  1  0.33176511  0.43292939  0.12248991  1
  S  S139  1  0.32827011  0.42892661  0.45213587  1
  S  S140  1  0.33690294  0.43485495  0.79634643  1
  S  S141  1  0.32986818  0.93435541  0.12286429  1
  S  S142  1  0.32943658  0.93285980  0.45591411  1
  S  S143  1  0.32491007  0.93547655  0.78777248  1
  S  S144  1  0.83271702  0.42913655  0.12214597  1
  S  S145  1  0.82958430  0.43941384  0.45390481  1
  S  S146  1  0.83317488  0.42671071  0.80489006  1
  S  S147  1  0.82852762  0.93524519  0.12327156  1
  S  S148  1  0.82834859  0.93183598  0.45723333  1
  S  S149  1  0.82965043  0.93701410  0.78756538  1
  S  S150  1  0.43439606  0.32897421  0.28908788  1
  S  S151  1  0.44114330  0.32658989  0.62574557  1
  S  S152  1  0.43240998  0.33024350  0.95806582  1
  S  S153  1  0.43315677  0.83043864  0.29041081  1
  S  S154  1  0.43041247  0.83617088  0.62434689  1
  S  S155  1  0.43233605  0.83571531  0.95991913  1
  S  S156  1  0.93706746  0.33623020  0.29197694  1
  S  S157  1  0.93880477  0.33006564  0.62514128  1
  S  S158  1  0.92570272  0.32348907  0.95893035  1
  S  S159  1  0.93197518  0.82838215  0.28816139  1
  S  S160  1  0.93626210  0.83578640  0.62154278  1
  S  S161  1  0.93301248  0.83004107  0.95948058  1
  S  S162  1  0.17637414  0.06763122  0.21203813  1
  S  S163  1  0.16592921  0.06897815  0.54144730  1
  S  S164  1  0.16622238  0.06615297  0.87431998  1
  S  S165  1  0.17420634  0.57067623  0.20855238  1
  S  S166  1  0.17207231  0.56877433  0.53938286  1
  S  S167  1  0.17592184  0.57162451  0.87660576  1
  S  S168  1  0.67286980  0.06781572  0.21119806  1
  S  S169  1  0.66716070  0.06051096  0.53860914  1
  S  S170  1  0.67307313  0.06520334  0.88000449  1
  S  S171  1  0.66349388  0.55963147  0.20857104  1
  S  S172  1  0.65827297  0.57263836  0.54143338  1
  S  S173  1  0.67114869  0.56654217  0.87461513  1
  O  O174  1  0.36658663  0.21908192  0.07601596  1
  O  O175  1  0.37023082  0.21619288  0.40862572  1
  O  O176  1  0.36643652  0.21960401  0.73859558  1
  O  O177  1  0.36728983  0.72311396  0.07797032  1
  O  O178  1  0.36756060  0.71912792  0.40478609  1
  O  O179  1  0.36537529  0.73057714  0.75012867  1
  O  O180  1  0.86722167  0.21823502  0.07273803  1
  O  O181  1  0.86392203  0.21043933  0.40624091  1
  O  O182  1  0.87212731  0.21720701  0.73987791  1
  O  O183  1  0.87709266  0.72281532  0.07339393  1
  O  O184  1  0.86703931  0.72248413  0.40715949  1
  O  O185  1  0.88059530  0.72328709  0.74068636  1
  O  O186  1  0.27824289  0.13084509  0.09123550  1
  O  O187  1  0.28492035  0.12791760  0.42656374  1
  O  O188  1  0.26941116  0.13370314  0.74593847  1
  O  O189  1  0.28041414  0.63273430  0.09162821  1
  O  O190  1  0.27745244  0.63259094  0.41901013  1
  O  O191  1  0.28189656  0.63245395  0.75748230  1
  O  O192  1  0.77002550  0.13279108  0.07823165  1
  O  O193  1  0.78413863  0.12055083  0.43060224  1
  O  O194  1  0.78158917  0.13268310  0.75790822  1
  O  O195  1  0.78603885  0.64205300  0.09500511  1
  O  O196  1  0.77879723  0.63467040  0.42371024  1
  O  O197  1  0.78844806  0.64727595  0.76797700  1
  O  O198  1  0.14073004  0.28292755  0.25352816  1
  O  O199  1  0.12693398  0.27481263  0.59899888  1
  O  O200  1  0.12804451  0.28382502  0.93252631  1
  O  O201  1  0.13199763  0.77851063  0.25617285  1
  O  O202  1  0.13095609  0.78164095  0.58557583  1
  O  O203  1  0.13192367  0.77920850  0.92114065  1
  O  O204  1  0.63196295  0.28362036  0.26161151  1
  O  O205  1  0.63323599  0.26593267  0.57395017  1
  O  O206  1  0.64159593  0.27873927  0.92288055  1
  O  O207  1  0.62896994  0.77844641  0.25460098  1
  O  O208  1  0.62832149  0.78398555  0.59256085  1
  O  O209  1  0.63002976  0.78067983  0.92566492  1
  O  O210  1  0.21705105  0.37582771  0.22990873  1
  O  O211  1  0.22612045  0.35572967  0.58889547  1
  O  O212  1  0.21972057  0.36989527  0.91849572  1
  O  O213  1  0.22065958  0.86626079  0.24123508  1
  O  O214  1  0.21598205  0.87275837  0.57011190  1
  O  O215  1  0.22326950  0.86764379  0.91132646  1
  O  O216  1  0.71596146  0.37323357  0.24296502  1
  O  O217  1  0.71372163  0.36420198  0.56028628  1
  O  O218  1  0.72364684  0.37886366  0.91600025  1
  O  O219  1  0.71698891  0.86639521  0.23840485  1
  O  O220  1  0.71636266  0.87011224  0.57463527  1
  O  O221  1  0.71916393  0.86687234  0.90883011  1
  O  O222  1  0.41701628  0.12928840  0.14922477  1
  O  O223  1  0.42327591  0.12774458  0.48413172  1
  O  O224  1  0.40533443  0.13013813  0.81319959  1
  O  O225  1  0.41786666  0.63669477  0.15432352  1
  O  O226  1  0.41395507  0.63745494  0.48692739  1
  O  O227  1  0.41894073  0.64421173  0.82452409  1
  O  O228  1  0.90509988  0.13245080  0.15201347  1
  O  O229  1  0.92321887  0.12956856  0.48656641  1
  O  O230  1  0.91969162  0.12905746  0.81521416  1
  O  O231  1  0.92334056  0.63582347  0.15037567  1
  O  O232  1  0.91643657  0.63599956  0.48264351  1
  O  O233  1  0.92447521  0.63087894  0.81319168  1
  O  O234  1  0.36316975  0.08086798  0.01350677  1
  O  O235  1  0.37207276  0.07803295  0.34923345  1
  O  O236  1  0.36165982  0.08164524  0.67720637  1
  O  O237  1  0.36954281  0.58502316  0.01781932  1
  O  O238  1  0.37056154  0.58039951  0.35065299  1
  O  O239  1  0.37557928  0.59364561  0.68776653  1
  O  O240  1  0.86850374  0.07985783  0.01693449  1
  O  O241  1  0.87003831  0.07183220  0.35199398  1
  O  O242  1  0.86645014  0.07908906  0.67980860  1
  O  O243  1  0.86601492  0.58402840  0.01438140  1
  O  O244  1  0.86378273  0.58509782  0.34534237  1
  O  O245  1  0.85718628  0.58331364  0.67961002  1
  O  O246  1  0.07807734  0.36246416  0.17439773  1
  O  O247  1  0.08996318  0.36310930  0.52170479  1
  O  O248  1  0.08250984  0.36327629  0.84857483  1
  O  O249  1  0.08304857  0.86836489  0.18317329  1
  O  O250  1  0.07704884  0.87222169  0.51441971  1
  O  O251  1  0.08517238  0.87092284  0.84993013  1
  O  O252  1  0.57751986  0.36783938  0.18267781  1
  O  O253  1  0.57518274  0.36487457  0.51450593  1
  O  O254  1  0.58594669  0.36362847  0.84739569  1
  O  O255  1  0.57989551  0.86786843  0.18094266  1
  O  O256  1  0.57818605  0.86930565  0.51450836  1
  O  O257  1  0.58146914  0.87111951  0.85223049  1
  O  O258  1  0.13081564  0.42122709  0.30899781  1
  O  O259  1  0.13730743  0.41463104  0.65735564  1
  O  O260  1  0.12519783  0.42336930  0.98386940  1
  O  O261  1  0.13638738  0.91602870  0.31988813  1
  O  O262  1  0.13184709  0.91934377  0.65038048  1
  O  O263  1  0.13428568  0.91669458  0.98563652  1
  O  O264  1  0.62556071  0.42113770  0.31755356  1
  O  O265  1  0.63915062  0.39991512  0.64944386  1
  O  O266  1  0.62587983  0.41521085  0.98287042  1
  O  O267  1  0.63190847  0.91598787  0.31721800  1
  O  O268  1  0.62808922  0.92244379  0.64973014  1
  O  O269  1  0.63559123  0.91822434  0.98855147  1
  O  O270  1  0.02384157  0.19383972  0.09811861  1
  O  O271  1  0.04156195  0.18751071  0.44630022  1
  O  O272  1  0.02945894  0.19915250  0.76888687  1
  O  O273  1  0.03712188  0.70280286  0.10206971  1
  O  O274  1  0.03161313  0.70008882  0.43390980  1
  O  O275  1  0.04841708  0.68482598  0.76782480  1
  O  O276  1  0.52975274  0.20118704  0.10985110  1
  O  O277  1  0.52743429  0.19457581  0.43194224  1
  O  O278  1  0.52376441  0.19104226  0.76468535  1
  O  O279  1  0.52589456  0.70484254  0.10444835  1
  O  O280  1  0.52531731  0.70172424  0.43565914  1
  O  O281  1  0.52551466  0.71669203  0.77417275  1
  O  O282  1  0.30320629  0.47272453  0.06406113  1
  O  O283  1  0.29633328  0.46364496  0.38770033  1
  O  O284  1  0.30999821  0.47337091  0.73858693  1
  O  O285  1  0.29702399  0.97079422  0.06227439  1
  O  O286  1  0.29930263  0.96647747  0.39316986  1
  O  O287  1  0.29358438  0.97307879  0.72730152  1
  O  O288  1  0.81671683  0.47214364  0.06604977  1
  O  O289  1  0.79021475  0.47242128  0.38878040  1
  O  O290  1  0.81069320  0.46107990  0.74548525  1
  O  O291  1  0.79656372  0.97250568  0.06327355  1
  O  O292  1  0.79340003  0.95997848  0.39135625  1
  O  O293  1  0.79198074  0.97272460  0.72608636  1
  O  O294  1  0.46840924  0.29721062  0.22671817  1
  O  O295  1  0.47440526  0.28623032  0.56254303  1
  O  O296  1  0.46485862  0.30612385  0.89609817  1
  O  O297  1  0.46891844  0.80168954  0.22955473  1
  O  O298  1  0.46581659  0.80299079  0.56254338  1
  O  O299  1  0.46810120  0.80867783  0.89914057  1
  O  O300  1  0.96854656  0.30897331  0.22658232  1
  O  O301  1  0.97412399  0.28898051  0.56559400  1
  O  O302  1  0.96722371  0.29893982  0.90031383  1
  O  O303  1  0.97240437  0.80254675  0.22955999  1
  O  O304  1  0.96830530  0.80122252  0.55682587  1
  O  O305  1  0.97252118  0.80392357  0.90225330  1
  O  O306  1  0.20867102  0.02767881  0.27130899  1
  O  O307  1  0.19247590  0.03045516  0.60088108  1
  O  O308  1  0.19459354  0.02864552  0.93503822  1
  O  O309  1  0.20583033  0.53501737  0.26965338  1
  O  O310  1  0.19723510  0.53129907  0.59775127  1
  O  O311  1  0.20537304  0.53116776  0.93615320  1
  O  O312  1  0.70008354  0.02838463  0.27082948  1
  O  O313  1  0.69889475  0.02791243  0.60227991  1
  O  O314  1  0.70629957  0.02387803  0.93767737  1
  O  O315  1  0.69604765  0.53420252  0.27662650  1
  O  O316  1  0.67257140  0.54111930  0.60256514  1
  O  O317  1  0.70338356  0.53378816  0.93889160  1
  O  O318  1  0.07938147  0.08225606  0.03547774  1
  O  O319  1  0.09228451  0.08582969  0.36818086  1
  O  O320  1  0.07844644  0.08513725  0.70085968  1
  O  O321  1  0.09033134  0.59251506  0.03341205  1
  O  O322  1  0.08995148  0.59129086  0.36667699  1
  O  O323  1  0.09858799  0.58264549  0.68664560  1
  O  O324  1  0.58124012  0.08646724  0.04591375  1
  O  O325  1  0.58780910  0.08743307  0.37118806  1
  O  O326  1  0.58176320  0.08052340  0.70502265  1
  O  O327  1  0.56994503  0.58823383  0.03452377  1
  O  O328  1  0.57854609  0.58808483  0.36910559  1
  O  O329  1  0.59017541  0.60915138  0.72255736  1
  O  O330  1  0.41306159  0.41343852  0.12764334  1
  O  O331  1  0.40601722  0.40362677  0.44749002  1
  O  O332  1  0.41670566  0.41079962  0.80124222  1
  O  O333  1  0.40971805  0.91526519  0.12321176  1
  O  O334  1  0.41217427  0.91643415  0.46257096  1
  O  O335  1  0.40626074  0.91988272  0.79063910  1
  O  O336  1  0.91385466  0.40583531  0.13433466  1
  O  O337  1  0.90782711  0.42397872  0.45116485  1
  O  O338  1  0.91951588  0.41359329  0.82049770  1
  O  O339  1  0.91069986  0.92091773  0.12689632  1
  O  O340  1  0.91047791  0.91585642  0.46008576  1
  O  O341  1  0.91086234  0.92859256  0.78911564  1
  O  O342  1  0.42012918  0.41252380  0.29446660  1
  O  O343  1  0.43516376  0.40730334  0.62794023  1
  O  O344  1  0.41324585  0.41352475  0.97076964  1
  O  O345  1  0.41341919  0.91182593  0.29597661  1
  O  O346  1  0.41411184  0.91777731  0.62554794  1
  O  O347  1  0.41106898  0.91682764  0.96607086  1
  O  O348  1  0.91408586  0.41717013  0.29409738  1
  O  O349  1  0.93174779  0.40980624  0.62206534  1
  O  O350  1  0.90676790  0.40492420  0.96773106  1
  O  O351  1  0.91100149  0.90909757  0.29343467  1
  O  O352  1  0.91587729  0.91746918  0.62048128  1
  O  O353  1  0.91293488  0.91209557  0.96289845  1
  O  O354  1  0.09962437  0.08901567  0.21257726  1
  O  O355  1  0.08335623  0.08793473  0.53618404  1
  O  O356  1  0.08446120  0.08459711  0.86829592  1
  O  O357  1  0.09424904  0.58978493  0.20618618  1
  O  O358  1  0.09198542  0.59210575  0.53091121  1
  O  O359  1  0.09691998  0.59209076  0.87502605  1
  O  O360  1  0.59129425  0.08657112  0.20533176  1
  O  O361  1  0.58359594  0.07481808  0.53313986  1
  O  O362  1  0.59687626  0.08598295  0.88404152  1
  O  O363  1  0.58039597  0.57990259  0.20537442  1
  O  O364  1  0.57444595  0.59389149  0.52145128  1
  O  O365  1  0.59288379  0.59127209  0.88034974  1
  O  O366  1  0.13473183  0.21553175  0.05653715  1
  O  O367  1  0.14218100  0.22265870  0.39868137  1
  O  O368  1  0.13738291  0.21854009  0.72333205  1
  O  O369  1  0.14297884  0.72687536  0.05663856  1
  O  O370  1  0.13974532  0.72702660  0.39262329  1
  O  O371  1  0.14630337  0.72126737  0.71980669  1
  O  O372  1  0.62845433  0.21715238  0.05298943  1
  O  O373  1  0.64108140  0.22170658  0.39449571  1
  O  O374  1  0.63362632  0.21342660  0.72138887  1
  O  O375  1  0.63751343  0.71918257  0.06308636  1
  O  O376  1  0.63632858  0.72154303  0.39503891  1
  O  O377  1  0.63416988  0.74021399  0.73062795  1
  O  O378  1  0.27800501  0.36224554  0.10404841  1
  O  O379  1  0.27344673  0.35945679  0.43691719  1
  O  O380  1  0.28085138  0.36762696  0.78349103  1
  O  O381  1  0.27777127  0.86365661  0.10923493  1
  O  O382  1  0.27907304  0.86102037  0.44154159  1
  O  O383  1  0.27344566  0.86367540  0.77079127  1
  O  O384  1  0.77486223  0.36108397  0.09773286  1
  O  O385  1  0.77908836  0.36511213  0.43598677  1
  O  O386  1  0.78505586  0.35481083  0.79216534  1
  O  O387  1  0.77913218  0.86176573  0.10642236  1
  O  O388  1  0.78023334  0.86263013  0.45105363  1
  O  O389  1  0.78191091  0.86341204  0.77226768  1
  O  O390  1  0.36123347  0.28036120  0.27385730  1
  O  O391  1  0.36581862  0.27969193  0.60907797  1
  O  O392  1  0.36362144  0.27769957  0.94628931  1
  O  O393  1  0.36265208  0.77785778  0.27570644  1
  O  O394  1  0.35855482  0.78620304  0.60993829  1
  O  O395  1  0.36307890  0.78160215  0.94587945  1
  O  O396  1  0.86721645  0.28320097  0.27665477  1
  O  O397  1  0.86419912  0.28482369  0.61085912  1
  O  O398  1  0.85544671  0.26848706  0.93691788  1
  O  O399  1  0.86342963  0.77311487  0.27011164  1
  O  O400  1  0.86472858  0.78616103  0.60864462  1
  O  O401  1  0.86223388  0.77821950  0.94436898  1
  O  O402  1  0.23330066  0.13612612  0.22869132  1
  O  O403  1  0.21876695  0.13943975  0.55837524  1
  O  O404  1  0.21934423  0.13593618  0.89069201  1
  O  O405  1  0.22724230  0.64217216  0.22471716  1
  O  O406  1  0.22827235  0.63893783  0.55665886  1
  O  O407  1  0.23163827  0.64247450  0.89737142  1
  O  O408  1  0.72679237  0.13735672  0.22933242  1
  O  O409  1  0.71567835  0.13064147  0.54945381  1
  O  O410  1  0.72884581  0.13346895  0.89493003  1
  O  O411  1  0.71228525  0.62892757  0.21583492  1
  O  O412  1  0.71294667  0.64198273  0.55533690  1
  O  O413  1  0.72371759  0.63785161  0.88986540  1
  O  O414  1  0.49552284  0.33311489  0.03020307  1
  O  O415  1  0.49360650  0.33090069  0.36127400  1
  O  O416  1  0.49713623  0.32095016  0.69725953  1
  O  O417  1  0.49322706  0.84050333  0.03280803  1
  O  O418  1  0.49284546  0.83472437  0.36359423  1
  O  O419  1  0.48949489  0.84044684  0.69719529  1
  O  O420  1  0.98376769  0.32081235  0.03072732  1
  O  O421  1  0.99962531  0.34133957  0.36002485  1
  O  O422  1  0.99380605  0.33358988  0.70115546  1
  O  O423  1  0.99136100  0.83702126  0.03481244  1
  O  O424  1  0.99127851  0.83287038  0.36195794  1
  O  O425  1  0.99780108  0.84528380  0.69209146  1
  O  O426  1  0.17246486  0.00845423  0.13806135  1
  O  O427  1  0.16260511  0.00952584  0.46854590  1
  O  O428  1  0.16250058  0.00625774  0.80118661  1
  O  O429  1  0.17180693  0.51224169  0.13566046  1
  O  O430  1  0.17049731  0.51012906  0.46596204  1
  O  O431  1  0.17561318  0.51486442  0.80419170  1
  O  O432  1  0.66907065  0.00823219  0.13799541  1
  O  O433  1  0.66246721  -0.00204219  0.46641244  1
  O  O434  1  0.66642661  0.00738547  0.80442439  1
  O  O435  1  0.65486445  0.49399371  0.14041794  1
  O  O436  1  0.65803849  0.51074451  0.46869606  1
  O  O437  1  0.66074645  0.50657495  0.80306358  1
  O  O438  1  0.00871906  0.17038072  0.31392008  1
  O  O439  1  0.00662050  0.16648879  0.63371882  1
  O  O440  1  0.00573787  0.16129913  0.96504268  1
  O  O441  1  0.01045258  0.67071494  0.30123727  1
  O  O442  1  0.01411945  0.66970077  0.63561120  1
  O  O443  1  0.01171729  0.67274506  0.96795995  1
  O  O444  1  0.51274306  0.16719297  0.30155483  1
  O  O445  1  0.50549920  0.15302576  0.63059657  1
  O  O446  1  0.49495455  0.15796293  0.97439164  1
  O  O447  1  0.50650129  0.67122739  0.30339632  1
  O  O448  1  0.50788671  0.67557350  0.64078765  1
  O  O449  1  0.50715331  0.67823961  0.97183091  1
  O  O450  1  0.33581162  0.49109927  0.19672927  1
  O  O451  1  0.33706335  0.48929889  0.52243422  1
  O  O452  1  0.34370578  0.49503549  0.87180228  1
  O  O453  1  0.33521886  0.99330678  0.19636883  1
  O  O454  1  0.33016002  0.99346992  0.52707440  1
  O  O455  1  0.32632318  0.99322488  0.86061809  1
  O  O456  1  0.83060192  0.48753416  0.19392117  1
  O  O457  1  0.82859923  0.49777771  0.52326977  1
  O  O458  1  0.83294461  0.48792469  0.87903410  1
  O  O459  1  0.82994424  0.99220245  0.19653409  1
  O  O460  1  0.83380310  0.99708302  0.52779264  1
  O  O461  1  0.83022569  0.99338779  0.86152175  1
