# generated using pymatgen
data_Na31Fe20(SO4)36
_symmetry_space_group_name_H-M   'P 1'
_cell_length_a   18.06901852
_cell_length_b   18.07334508
_cell_length_c   19.70152284
_cell_angle_alpha   107.59757162
_cell_angle_beta   107.54982621
_cell_angle_gamma   90.72353131
_symmetry_Int_Tables_number   1
_chemical_formula_structural   Na31Fe20(SO4)36
_chemical_formula_sum   'Na62 Fe40 S72 O288'
_cell_volume   5809.08986865
_cell_formula_units_Z   2
loop_
 _symmetry_equiv_pos_site_id
 _symmetry_equiv_pos_as_xyz
  1  'x, y, z'
loop_
 _atom_site_type_symbol
 _atom_site_label
 _atom_site_symmetry_multiplicity
 _atom_site_fract_x
 _atom_site_fract_y
 _atom_site_fract_z
 _atom_site_occupancy
  Na  Na0  1  0.14333156  0.36483134  0.09142365  1
  Na  Na1  1  0.14152526  0.36104722  0.41037059  1
  Na  Na2  1  0.13523523  0.37326345  0.75434235  1
  Na  Na3  1  0.13205375  0.85995916  0.07735070  1
  Na  Na4  1  0.12988110  0.85771385  0.40708376  1
  Na  Na5  1  0.14642055  0.86881531  0.76011212  1
  Na  Na6  1  0.58011891  0.40762902  0.08756858  1
  Na  Na7  1  0.64023337  0.36802528  0.41681326  1
  Na  Na8  1  0.62869110  0.37339380  0.75289123  1
  Na  Na9  1  0.63098237  0.86561834  0.08043871  1
  Na  Na10  1  0.64085538  0.86224392  0.42033844  1
  Na  Na11  1  0.64093418  0.87126581  0.75944928  1
  Na  Na12  1  0.34442131  0.14956258  0.23909507  1
  Na  Na13  1  0.35946677  0.13308264  0.57870665  1
  Na  Na14  1  0.36888953  0.13447817  0.92317662  1
  Na  Na15  1  0.36641290  0.62560559  0.24594584  1
  Na  Na16  1  0.36370434  0.63063048  0.57740914  1
  Na  Na17  1  0.37342079  0.67221745  0.95149259  1
  Na  Na18  1  0.86224193  0.12264042  0.24326237  1
  Na  Na19  1  0.87088980  0.13105616  0.58531262  1
  Na  Na20  1  0.85674892  0.13378331  0.91380232  1
  Na  Na21  1  0.87160347  0.64033322  0.25213482  1
  Na  Na22  1  0.85657265  0.63777511  0.57622480  1
  Na  Na23  1  0.86778957  0.63192639  0.91686973  1
  Na  Na24  1  0.49174424  0.01144823  0.40871890  1
  Na  Na25  1  0.47004568  0.00602986  0.75451062  1
  Na  Na26  1  0.99901253  0.50456839  0.41826548  1
  Na  Na27  1  0.49340718  0.51081276  0.39640681  1
  Na  Na28  1  0.48051914  0.55207246  0.87924681  1
  Na  Na29  1  1.00021652  0.55435683  0.10348406  1
  Na  Na30  1  0.48447604  0.01447574  0.08580956  1
  Na  Na31  1  0.96162512  0.00709235  0.41693798  1
  Na  Na32  1  1.04481893  -0.01571546  0.69685756  1
  Na  Na33  1  -0.00507068  0.98045997  0.24217442  1
  Na  Na34  1  0.01845627  0.49773082  0.90227313  1
  Na  Na35  1  0.50910479  0.94267670  0.22796417  1
  Na  Na36  1  -0.03950122  1.01292880  0.96613839  1
  Na  Na37  1  0.51702796  0.97360569  0.92299226  1
  Na  Na38  1  0.00552816  0.49382499  0.59829581  1
  Na  Na39  1  0.50369064  0.48797712  0.59135737  1
  Na  Na40  1  0.05032161  0.49934748  0.26782857  1
  Na  Na41  1  0.50530268  0.98471261  0.58613121  1
  Na  Na42  1  0.73967844  0.74812075  0.00096946  1
  Na  Na43  1  0.75007936  0.25056153  0.33374592  1
  Na  Na44  1  0.75676140  0.75924836  0.33709335  1
  Na  Na45  1  0.74646201  0.24898693  0.66845417  1
  Na  Na46  1  0.24229552  0.23908211  0.67052099  1
  Na  Na47  1  0.74108034  0.24821046  0.00660786  1
  Na  Na48  1  0.24556396  0.74148910  0.67176467  1
  Na  Na49  1  0.75677448  0.76119132  0.65834408  1
  Na  Na50  1  0.23234895  0.72800005  0.33534366  1
  Na  Na51  1  0.24705132  0.24173401  0.01078545  1
  Na  Na52  1  0.23452824  0.22912784  0.83450276  1
  Na  Na53  1  0.74651221  0.75346635  0.83706729  1
  Na  Na54  1  0.26241847  0.75991128  0.15108498  1
  Na  Na55  1  0.24884992  0.74592587  0.84939237  1
  Na  Na56  1  0.74444826  0.24825427  0.83597936  1
  Na  Na57  1  0.75215649  0.24906143  0.50168092  1
  Na  Na58  1  0.75823593  0.76384986  0.16919093  1
  Na  Na59  1  0.74510866  0.24802388  0.16678454  1
  Na  Na60  1  0.25841768  0.25506247  0.48702437  1
  Na  Na61  1  0.23492750  0.73081292  0.50251483  1
  Fe  Fe62  1  0.96820798  0.79705759  0.12055944  1
  Fe  Fe63  1  0.46272288  0.31289143  0.78760764  1
  Fe  Fe64  1  0.45907681  0.30355659  0.43740185  1
  Fe  Fe65  1  0.46321716  0.80531325  0.44884205  1
  Fe  Fe66  1  0.96527879  0.80767975  0.45247132  1
  Fe  Fe67  1  0.96673623  0.31021452  0.12173654  1
  Fe  Fe68  1  0.96403569  0.80980799  0.78875188  1
  Fe  Fe69  1  0.96510785  0.30776937  0.78605561  1
  Fe  Fe70  1  0.96740392  0.30593251  0.45242877  1
  Fe  Fe71  1  0.47000975  0.80078297  0.79041441  1
  Fe  Fe72  1  0.69175615  0.53804588  0.71511690  1
  Fe  Fe73  1  0.19780474  0.53391109  0.05190254  1
  Fe  Fe74  1  0.19576534  0.53684101  0.71736182  1
  Fe  Fe75  1  0.68748826  0.54002563  0.37649070  1
  Fe  Fe76  1  0.69570340  0.03466716  0.71350169  1
  Fe  Fe77  1  0.70547191  0.02684143  0.04482782  1
  Fe  Fe78  1  0.68795915  0.53701308  0.04292886  1
  Fe  Fe79  1  0.69901936  0.02878644  0.37365908  1
  Fe  Fe80  1  0.18824080  0.03643473  0.04867476  1
  Fe  Fe81  1  0.18857013  0.03294348  0.37505601  1
  Fe  Fe82  1  0.03614350  0.19078389  0.54700299  1
  Fe  Fe83  1  0.53173386  0.69817044  0.20875764  1
  Fe  Fe84  1  0.03943024  0.18575488  0.21108286  1
  Fe  Fe85  1  0.53383417  0.19494978  0.54395300  1
  Fe  Fe86  1  0.52994232  0.20169621  0.20738317  1
  Fe  Fe87  1  0.03588371  0.68872646  0.54639642  1
  Fe  Fe88  1  0.53062505  0.19412834  0.88045351  1
  Fe  Fe89  1  0.03484924  0.19178293  0.88084566  1
  Fe  Fe90  1  0.03766571  0.68952338  0.87862492  1
  Fe  Fe91  1  0.53630801  0.69366461  0.54542992  1
  Fe  Fe92  1  0.80470907  0.46649944  0.28354255  1
  Fe  Fe93  1  0.31413982  0.46546057  0.95928292  1
  Fe  Fe94  1  0.80810916  0.46693052  0.62056373  1
  Fe  Fe95  1  0.29556145  0.96735087  0.61724232  1
  Fe  Fe96  1  0.30126457  0.45991030  0.28451148  1
  Fe  Fe97  1  0.30942222  0.46676513  0.62039381  1
  Fe  Fe98  1  0.30466722  0.96616939  0.27853874  1
  Fe  Fe99  1  0.80756842  0.46396042  0.95383548  1
  Fe  Fe100  1  0.30380307  0.96585184  0.95097519  1
  Fe  Fe101  1  0.81484993  0.96154534  0.62309172  1
  S  S102  1  0.35868432  0.13984798  0.08190897  1
  S  S103  1  0.36097320  0.13486145  0.41844912  1
  S  S104  1  0.35991475  0.14086324  0.74261041  1
  S  S105  1  0.36129960  0.64155603  0.08720077  1
  S  S106  1  0.36234399  0.63708566  0.41335698  1
  S  S107  1  0.35687191  0.64155940  0.75094672  1
  S  S108  1  0.86423574  0.14312985  0.08381321  1
  S  S109  1  0.85967403  0.14476829  0.41789686  1
  S  S110  1  0.85910186  0.14287810  0.75035493  1
  S  S111  1  0.85576520  0.63854840  0.08143965  1
  S  S112  1  0.85893775  0.63776282  0.41798710  1
  S  S113  1  0.85862648  0.64032827  0.74800175  1
  S  S114  1  0.14028935  0.35399576  0.25035586  1
  S  S115  1  0.14129570  0.35860804  0.58354642  1
  S  S116  1  0.14034208  0.36201500  0.91545667  1
  S  S117  1  0.14327381  0.85632209  0.24696939  1
  S  S118  1  0.14044133  0.85446965  0.58375128  1
  S  S119  1  0.13803755  0.85938910  0.91445638  1
  S  S120  1  0.64239180  0.36302860  0.25208086  1
  S  S121  1  0.64040282  0.36043663  0.58262878  1
  S  S122  1  0.63855015  0.36058509  0.91902425  1
  S  S123  1  0.64562437  0.85588794  0.25554244  1
  S  S124  1  0.63787807  0.86332583  0.58345812  1
  S  S125  1  0.64331808  0.86100015  0.91192107  1
  S  S126  1  0.06503446  0.17164509  0.04046514  1
  S  S127  1  0.06494469  0.16846544  0.37507236  1
  S  S128  1  0.06833224  0.17843362  0.71229520  1
  S  S129  1  0.06654982  0.66350991  0.03714605  1
  S  S130  1  0.05954938  0.66425295  0.37971593  1
  S  S131  1  0.06734562  0.67105085  0.71017409  1
  S  S132  1  0.57206826  0.16035480  0.03862430  1
  S  S133  1  0.56879376  0.17221157  0.37433492  1
  S  S134  1  0.56931567  0.17020451  0.70594396  1
  S  S135  1  0.56848797  0.67089279  0.04422300  1
  S  S136  1  0.57128699  0.67543734  0.37495457  1
  S  S137  1  0.56656642  0.67051244  0.70484613  1
  S  S138  1  0.33017350  0.42912836  0.12197867  1
  S  S139  1  0.33395500  0.43016960  0.45877704  1
  S  S140  1  0.32880752  0.43353393  0.78987806  1
  S  S141  1  0.32726261  0.94231904  0.12379525  1
  S  S142  1  0.32806199  0.92844525  0.45433646  1
  S  S143  1  0.33368723  0.93225820  0.78951432  1
  S  S144  1  0.83336544  0.43327663  0.12613969  1
  S  S145  1  0.83490835  0.43417781  0.45974389  1
  S  S146  1  0.82868923  0.43206466  0.79035155  1
  S  S147  1  0.83257585  0.92852700  0.12489899  1
  S  S148  1  0.83161493  0.93573955  0.46217012  1
  S  S149  1  0.83222129  0.93508052  0.78897049  1
  S  S150  1  0.43873541  0.33552288  0.30029411  1
  S  S151  1  0.43312069  0.32827403  0.62178792  1
  S  S152  1  0.42367920  0.31935238  0.94738916  1
  S  S153  1  0.43385747  0.83195991  0.29022998  1
  S  S154  1  0.42911001  0.82849853  0.62197771  1
  S  S155  1  0.43569160  0.84528992  0.96182634  1
  S  S156  1  0.93152961  0.33207343  0.29221641  1
  S  S157  1  0.93385055  0.33188344  0.62434452  1
  S  S158  1  0.93266378  0.33069041  0.95711401  1
  S  S159  1  0.93904802  0.83124761  0.29211554  1
  S  S160  1  0.93494540  0.82597336  0.62483481  1
  S  S161  1  0.93305579  0.81809688  0.95304583  1
  S  S162  1  0.16293074  0.06299509  0.20582045  1
  S  S163  1  0.16529986  0.06407982  0.53541636  1
  S  S164  1  0.16702184  0.06594439  0.87711781  1
  S  S165  1  0.17404719  0.56098578  0.21094356  1
  S  S166  1  0.16702129  0.55797435  0.54328231  1
  S  S167  1  0.17691272  0.56931538  0.87781210  1
  S  S168  1  0.66776358  0.07112122  0.20720480  1
  S  S169  1  0.67007643  0.06941247  0.54004178  1
  S  S170  1  0.66594369  0.07316353  0.87218911  1
  S  S171  1  0.67452116  0.57951358  0.21318439  1
  S  S172  1  0.66777625  0.56683467  0.54233802  1
  S  S173  1  0.67434762  0.56698151  0.87688522  1
  O  O174  1  0.36849741  0.21270193  0.06711197  1
  O  O175  1  0.36808828  0.21640253  0.41875044  1
  O  O176  1  0.37711843  0.21648327  0.72990124  1
  O  O177  1  0.36559463  0.71790017  0.07765700  1
  O  O178  1  0.37473819  0.71292853  0.39897216  1
  O  O179  1  0.37055215  0.71973547  0.74166942  1
  O  O180  1  0.86945083  0.22482297  0.07869918  1
  O  O181  1  0.86771418  0.22757187  0.41638747  1
  O  O182  1  0.86641494  0.22167069  0.74060854  1
  O  O183  1  0.86536376  0.71679749  0.07186973  1
  O  O184  1  0.86691254  0.71754642  0.41243691  1
  O  O185  1  0.86804240  0.72006660  0.74156050  1
  O  O186  1  0.28027274  0.12938607  0.09117290  1
  O  O187  1  0.28411036  0.12182407  0.42952039  1
  O  O188  1  0.28189235  0.13865284  0.74924861  1
  O  O189  1  0.28568947  0.62747621  0.10141707  1
  O  O190  1  0.28716849  0.63365221  0.42611793  1
  O  O191  1  0.27264722  0.63797178  0.75012774  1
  O  O192  1  0.78550387  0.13092595  0.09252493  1
  O  O193  1  0.77921723  0.13387435  0.42271298  1
  O  O194  1  0.77916212  0.13393743  0.75738026  1
  O  O195  1  0.77394790  0.63051181  0.08400114  1
  O  O196  1  0.78199461  0.62556862  0.42870007  1
  O  O197  1  0.77983880  0.63199138  0.75732809  1
  O  O198  1  0.12759324  0.27442014  0.25521437  1
  O  O199  1  0.13162067  0.27972353  0.59182237  1
  O  O200  1  0.13139565  0.28078474  0.91880875  1
  O  O201  1  0.14088945  0.78289387  0.26253001  1
  O  O202  1  0.13452386  0.77136122  0.58596049  1
  O  O203  1  0.13331608  0.77949464  0.92059812  1
  O  O204  1  0.63250737  0.28516792  0.26378969  1
  O  O205  1  0.63268296  0.28056528  0.58961944  1
  O  O206  1  0.62754037  0.28082727  0.92471691  1
  O  O207  1  0.62516007  0.77775732  0.26536966  1
  O  O208  1  0.62825486  0.78436813  0.59128144  1
  O  O209  1  0.63626151  0.78361880  0.92003111  1
  O  O210  1  0.21977448  0.36310543  0.24316216  1
  O  O211  1  0.22127690  0.36840850  0.57839447  1
  O  O212  1  0.21694014  0.37186203  0.90374296  1
  O  O213  1  0.22111744  0.87167536  0.23688820  1
  O  O214  1  0.21993551  0.86509594  0.57583246  1
  O  O215  1  0.21524202  0.87179841  0.90266007  1
  O  O216  1  0.72441074  0.36892698  0.24716182  1
  O  O217  1  0.72071069  0.37029568  0.57644729  1
  O  O218  1  0.71793350  0.36734680  0.91012820  1
  O  O219  1  0.72807736  0.85965188  0.26222063  1
  O  O220  1  0.71633752  0.87340081  0.57655826  1
  O  O221  1  0.71531113  0.87638059  0.89656546  1
  O  O222  1  0.41851542  0.13451819  0.15199952  1
  O  O223  1  0.42389306  0.12187100  0.48279329  1
  O  O224  1  0.41900212  0.13004018  0.81017480  1
  O  O225  1  0.42457276  0.63702086  0.15677710  1
  O  O226  1  0.42595859  0.63032805  0.48013107  1
  O  O227  1  0.40731922  0.63345519  0.82060775  1
  O  O228  1  0.92319633  0.13818126  0.15359941  1
  O  O229  1  0.91673292  0.13724210  0.48821429  1
  O  O230  1  0.91670413  0.13808358  0.81990970  1
  O  O231  1  0.91115352  0.63039263  0.14920825  1
  O  O232  1  0.92032724  0.62636399  0.48363769  1
  O  O233  1  0.91824410  0.62819422  0.81278338  1
  O  O234  1  0.36937402  0.07418995  0.01767565  1
  O  O235  1  0.36800937  0.07992466  0.34778661  1
  O  O236  1  0.36731961  0.07749446  0.67535988  1
  O  O237  1  0.36903893  0.57989750  0.02049654  1
  O  O238  1  0.36833246  0.57305685  0.34628514  1
  O  O239  1  0.36541848  0.58190634  0.68276772  1
  O  O240  1  0.87279734  0.08774545  0.01623674  1
  O  O241  1  0.87216990  0.08984688  0.35226998  1
  O  O242  1  0.86751189  0.08354282  0.68330420  1
  O  O243  1  0.86682857  0.57869793  0.01412515  1
  O  O244  1  0.86569869  0.58024286  0.34819218  1
  O  O245  1  0.86195850  0.58295504  0.67661738  1
  O  O246  1  0.08245560  0.36355943  0.18058307  1
  O  O247  1  0.08327554  0.36426818  0.51361704  1
  O  O248  1  0.07797180  0.37425258  0.85049170  1
  O  O249  1  0.08293064  0.85782814  0.17636929  1
  O  O250  1  0.08223281  0.86374679  0.51620075  1
  O  O251  1  0.07762272  0.86664594  0.84681720  1
  O  O252  1  0.58527749  0.36896540  0.18549219  1
  O  O253  1  0.58216993  0.36845449  0.51504305  1
  O  O254  1  0.58029734  0.36977546  0.85116378  1
  O  O255  1  0.59458138  0.86308740  0.18503343  1
  O  O256  1  0.57759848  0.87240924  0.51615819  1
  O  O257  1  0.57632375  0.87090357  0.84717109  1
  O  O258  1  0.13002264  0.41252066  0.31594898  1
  O  O259  1  0.12918596  0.41834622  0.64947682  1
  O  O260  1  0.13336595  0.41821021  0.98517134  1
  O  O261  1  0.13082613  0.92073174  0.31064292  1
  O  O262  1  0.13309157  0.90765623  0.65309956  1
  O  O263  1  0.13017021  0.91689965  0.98292773  1
  O  O264  1  0.63944793  0.42399899  0.32225137  1
  O  O265  1  0.63156433  0.41858727  0.65099794  1
  O  O266  1  0.63353888  0.41878200  0.98844137  1
  O  O267  1  0.62990669  0.91727442  0.32026202  1
  O  O268  1  0.62759767  0.92241488  0.65124098  1
  O  O269  1  0.63509469  0.92118425  0.98132650  1
  O  O270  1  0.03125022  0.20298334  0.10327844  1
  O  O271  1  0.02747185  0.19781653  0.43622162  1
  O  O272  1  0.02723803  0.20784097  0.77105348  1
  O  O273  1  0.02675287  0.68862080  0.09439242  1
  O  O274  1  0.02556130  0.70499502  0.44271422  1
  O  O275  1  0.02927463  0.70024303  0.76960129  1
  O  O276  1  0.53925947  0.18968036  0.10033363  1
  O  O277  1  0.52832112  0.20333880  0.43359831  1
  O  O278  1  0.53708210  0.20020862  0.76895304  1
  O  O279  1  0.54031522  0.69279888  0.11161405  1
  O  O280  1  0.53524529  0.70705977  0.43660953  1
  O  O281  1  0.53013236  0.69819662  0.76366596  1
  O  O282  1  0.29496937  0.46890653  0.06189782  1
  O  O283  1  0.31126352  0.46254422  0.39631431  1
  O  O284  1  0.29762141  0.47170716  0.72971280  1
  O  O285  1  0.28658081  0.97042289  0.05836891  1
  O  O286  1  0.30068656  0.96282776  0.39199228  1
  O  O287  1  0.31375465  0.96689029  0.72822558  1
  O  O288  1  0.80174116  0.46693923  0.06325954  1
  O  O289  1  0.80624952  0.46738758  0.39748387  1
  O  O290  1  0.80020793  0.46899038  0.72958865  1
  O  O291  1  0.80178768  0.96182007  0.06249897  1
  O  O292  1  0.80659557  0.97880234  0.40756667  1
  O  O293  1  0.79904649  0.97035405  0.72519411  1
  O  O294  1  0.46448058  0.29899982  0.23546486  1
  O  O295  1  0.47317901  0.29945391  0.56343402  1
  O  O296  1  0.46175934  0.29169239  0.88452337  1
  O  O297  1  0.47273961  0.80099826  0.23215803  1
  O  O298  1  0.46595057  0.79957010  0.56055148  1
  O  O299  1  0.46454602  0.81408917  0.89703517  1
  O  O300  1  0.96680610  0.30437048  0.23099405  1
  O  O301  1  0.97164190  0.30140765  0.56450168  1
  O  O302  1  0.96994489  0.29976062  0.89650908  1
  O  O303  1  0.97149830  0.79952948  0.22987793  1
  O  O304  1  0.96929359  0.79412869  0.56252673  1
  O  O305  1  0.97237256  0.78695733  0.89215465  1
  O  O306  1  0.20168492  0.03177091  0.27004825  1
  O  O307  1  0.19348101  0.02768786  0.59461500  1
  O  O308  1  0.19887745  0.03282407  0.94112393  1
  O  O309  1  0.20669278  0.52027691  0.26765674  1
  O  O310  1  0.20193517  0.52781361  0.60924250  1
  O  O311  1  0.20515552  0.53325987  0.93898739  1
  O  O312  1  0.68591763  0.03586425  0.26818903  1
  O  O313  1  0.69747430  0.03452773  0.60192867  1
  O  O314  1  0.69009404  0.04460454  0.93642701  1
  O  O315  1  0.70098476  0.53723395  0.27056750  1
  O  O316  1  0.69610611  0.52779353  0.60189314  1
  O  O317  1  0.70534558  0.52517016  0.93485969  1
  O  O318  1  0.08372238  0.09056168  0.03795485  1
  O  O319  1  0.07924781  0.08542389  0.36701921  1
  O  O320  1  0.09445819  0.10351574  0.71426970  1
  O  O321  1  0.08725598  0.58152678  0.03298146  1
  O  O322  1  0.07680428  0.58706422  0.38829779  1
  O  O323  1  0.08834896  0.59072094  0.70732282  1
  O  O324  1  0.58930355  0.07748089  0.03074966  1
  O  O325  1  0.58351035  0.09043709  0.37102876  1
  O  O326  1  0.58690199  0.08757086  0.69819974  1
  O  O327  1  0.58806937  0.58818702  0.03017733  1
  O  O328  1  0.58175739  0.59181121  0.36933307  1
  O  O329  1  0.58657551  0.58837616  0.69799825  1
  O  O330  1  0.40926251  0.41683861  0.12442213  1
  O  O331  1  0.41755357  0.41109132  0.47150968  1
  O  O332  1  0.41038999  0.41758840  0.79228060  1
  O  O333  1  0.40891173  0.93593746  0.12632444  1
  O  O334  1  0.41265391  0.91501683  0.46437724  1
  O  O335  1  0.41779928  0.91553632  0.80337253  1
  O  O336  1  0.91676857  0.41983472  0.13350347  1
  O  O337  1  0.91835685  0.41781674  0.46848053  1
  O  O338  1  0.90951707  0.41166795  0.79501079  1
  O  O339  1  0.90945775  0.89805913  0.12197510  1
  O  O340  1  0.91185889  0.91368029  0.46422470  1
  O  O341  1  0.90951458  0.91004594  0.78516345  1
  O  O342  1  0.40315257  0.40854903  0.29329423  1
  O  O343  1  0.41492466  0.40947671  0.62538326  1
  O  O344  1  0.40362559  0.39937895  0.94894139  1
  O  O345  1  0.41672730  0.91412767  0.29070894  1
  O  O346  1  0.41198273  0.91085108  0.62655682  1
  O  O347  1  0.41538128  0.92827257  0.96445588  1
  O  O348  1  0.91305407  0.41435073  0.29981100  1
  O  O349  1  0.91419430  0.41233309  0.62561199  1
  O  O350  1  0.91530402  0.41208224  0.96043022  1
  O  O351  1  0.92955379  0.91454067  0.30289593  1
  O  O352  1  0.91990169  0.90840234  0.62966189  1
  O  O353  1  0.91524205  0.89636198  0.95491711  1
  O  O354  1  0.08169086  0.07602822  0.20749838  1
  O  O355  1  0.08301011  0.08316328  0.52814955  1
  O  O356  1  0.08982094  0.09352882  0.87945446  1
  O  O357  1  0.09620590  0.58034464  0.21474600  1
  O  O358  1  0.08624857  0.57879673  0.54477706  1
  O  O359  1  0.09530893  0.58772728  0.87316472  1
  O  O360  1  0.58591147  0.09284334  0.19331186  1
  O  O361  1  0.58657813  0.08564564  0.53146674  1
  O  O362  1  0.58108014  0.08706401  0.85463933  1
  O  O363  1  0.59699761  0.60534259  0.21433196  1
  O  O364  1  0.58413064  0.58057249  0.53340584  1
  O  O365  1  0.59713407  0.58758819  0.87579826  1
  O  O366  1  0.13349149  0.22281257  0.05006877  1
  O  O367  1  0.13773690  0.21879732  0.39448351  1
  O  O368  1  0.13501439  0.23734809  0.72885355  1
  O  O369  1  0.13597342  0.71669707  0.05243923  1
  O  O370  1  0.13241921  0.71410704  0.39366474  1
  O  O371  1  0.13720302  0.72522386  0.72653926  1
  O  O372  1  0.64331522  0.21080635  0.05141100  1
  O  O373  1  0.64244694  0.22377324  0.39647247  1
  O  O374  1  0.64075716  0.22174900  0.71994347  1
  O  O375  1  0.63874403  0.72511339  0.06111888  1
  O  O376  1  0.64510903  0.72178887  0.39160213  1
  O  O377  1  0.63776729  0.72248860  0.71903534  1
  O  O378  1  0.27605426  0.35854496  0.10314867  1
  O  O379  1  0.28132291  0.36120232  0.44611386  1
  O  O380  1  0.27772767  0.36101542  0.77126511  1
  O  O381  1  0.28364668  0.86934215  0.11561784  1
  O  O382  1  0.27915052  0.85531341  0.43812743  1
  O  O383  1  0.28180337  0.85994523  0.77112834  1
  O  O384  1  0.78490549  0.36080987  0.11237433  1
  O  O385  1  0.78397260  0.36262982  0.44576756  1
  O  O386  1  0.77452157  0.36204658  0.77401941  1
  O  O387  1  0.77549023  0.86199795  0.11435151  1
  O  O388  1  0.77717157  0.86629812  0.44458525  1
  O  O389  1  0.77686430  0.86617040  0.77307455  1
  O  O390  1  0.38419896  0.28195500  0.31209221  1
  O  O391  1  0.36120388  0.27576937  0.60264716  1
  O  O392  1  0.35240180  0.26521032  0.92618437  1
  O  O393  1  0.36230286  0.78195234  0.27519710  1
  O  O394  1  0.35784522  0.77602590  0.60465842  1
  O  O395  1  0.36324978  0.79751499  0.95040782  1
  O  O396  1  0.86130461  0.27920959  0.27765278  1
  O  O397  1  0.86271023  0.27946653  0.60871791  1
  O  O398  1  0.86050393  0.27917376  0.94005334  1
  O  O399  1  0.86538739  0.78251592  0.27769339  1
  O  O400  1  0.86288335  0.77713045  0.61110965  1
  O  O401  1  0.86186628  0.76405857  0.93357835  1
  O  O402  1  0.20830552  0.13458259  0.21482816  1
  O  O403  1  0.21685858  0.13658466  0.55170810  1
  O  O404  1  0.22329255  0.13352830  0.89025974  1
  O  O405  1  0.22729168  0.63082483  0.22569870  1
  O  O406  1  0.21785215  0.62944908  0.55620844  1
  O  O407  1  0.22896920  0.63862888  0.89103255  1
  O  O408  1  0.72398706  0.14163022  0.22774966  1
  O  O409  1  0.72136485  0.14210068  0.55778749  1
  O  O410  1  0.71584320  0.14647533  0.88709271  1
  O  O411  1  0.73261566  0.64630946  0.23060724  1
  O  O412  1  0.71787009  0.63989697  0.56272273  1
  O  O413  1  0.73085818  0.63564000  0.89438199  1
  O  O414  1  0.48143405  0.31869418  0.01622752  1
  O  O415  1  0.50735724  0.36144886  0.37225720  1
  O  O416  1  0.48988018  0.33049224  0.69572393  1
  O  O417  1  0.49733757  0.85332349  0.03242278  1
  O  O418  1  0.49161139  0.84095133  0.36618312  1
  O  O419  1  0.48769439  0.83106547  0.69464232  1
  O  O420  1  0.99083139  0.33263499  0.02963653  1
  O  O421  1  0.99216278  0.33530958  0.36497254  1
  O  O422  1  0.99187013  0.33642348  0.69778068  1
  O  O423  1  0.99086647  0.81579849  0.02472701  1
  O  O424  1  0.99628791  0.82623992  0.36442825  1
  O  O425  1  0.99570730  0.82846113  0.69666006  1
  O  O426  1  0.15774948  0.00125260  0.13369888  1
  O  O427  1  0.16335347  0.00588643  0.46160639  1
  O  O428  1  0.15582439  0.00374705  0.80603540  1
  O  O429  1  0.16409110  0.50453000  0.13394861  1
  O  O430  1  0.15963329  0.49568137  0.47397517  1
  O  O431  1  0.17182687  0.50841028  0.80460007  1
  O  O432  1  0.67288123  0.01149526  0.13780689  1
  O  O433  1  0.67081283  0.01117968  0.46834574  1
  O  O434  1  0.67257596  0.01243942  0.80341808  1
  O  O435  1  0.66699982  0.52078717  0.13912802  1
  O  O436  1  0.66971471  0.51035607  0.46985847  1
  O  O437  1  0.67190019  0.50868742  0.80252615  1
  O  O438  1  0.00698034  0.17077286  0.30381484  1
  O  O439  1  0.00923372  0.17256226  0.63794689  1
  O  O440  1  0.00136936  0.16526933  0.96867839  1
  O  O441  1  0.00171731  0.65551010  0.30722365  1
  O  O442  1  0.00794000  0.66478709  0.63627686  1
  O  O443  1  0.00822613  0.65425077  0.96086132  1
  O  O444  1  0.51396848  0.17449219  0.30230910  1
  O  O445  1  0.50893672  0.16811621  0.63392714  1
  O  O446  1  0.51114381  0.15800591  0.96582955  1
  O  O447  1  0.51231250  0.67751915  0.30315373  1
  O  O448  1  0.50749577  0.66538722  0.63005951  1
  O  O449  1  0.50468949  0.67291891  0.97863951  1
  O  O450  1  0.32607910  0.48577172  0.19542351  1
  O  O451  1  0.33563742  0.49287627  0.53040705  1
  O  O452  1  0.33248899  0.49111871  0.86325282  1
  O  O453  1  0.32613001  1.00423421  0.19486568  1
  O  O454  1  0.32686931  0.98778784  0.52577147  1
  O  O455  1  0.32760340  0.99164931  0.85878680  1
  O  O456  1  0.83210838  0.49383198  0.19690836  1
  O  O457  1  0.83577157  0.49424709  0.53165102  1
  O  O458  1  0.83299659  0.49099081  0.86335803  1
  O  O459  1  0.84845518  0.99046376  0.19763513  1
  O  O460  1  0.83723432  0.99194837  0.53847097  1
  O  O461  1  0.84196622  0.99649205  0.85998802  1
