# generated using pymatgen
data_Na31Fe20(SO4)36
_symmetry_space_group_name_H-M   'P 1'
_cell_length_a   18.07242119
_cell_length_b   18.06692069
_cell_length_c   19.70916038
_cell_angle_alpha   107.55953733
_cell_angle_beta   107.55195520
_cell_angle_gamma   90.73628045
_symmetry_Int_Tables_number   1
_chemical_formula_structural   Na31Fe20(SO4)36
_chemical_formula_sum   'Na62 Fe40 S72 O288'
_cell_volume   5811.50777422
_cell_formula_units_Z   2
loop_
 _symmetry_equiv_pos_site_id
 _symmetry_equiv_pos_as_xyz
  1  'x, y, z'
loop_
 _atom_site_type_symbol
 _atom_site_label
 _atom_site_symmetry_multiplicity
 _atom_site_fract_x
 _atom_site_fract_y
 _atom_site_fract_z
 _atom_site_occupancy
  Na  Na0  1  0.14569725  0.36336561  0.08435737  1
  Na  Na1  1  0.13124772  0.37589295  0.42187059  1
  Na  Na2  1  0.13371496  0.37196269  0.75636623  1
  Na  Na3  1  0.12890995  0.87226694  0.08703211  1
  Na  Na4  1  0.13231618  0.86535614  0.41294316  1
  Na  Na5  1  0.12590434  0.86858383  0.74819481  1
  Na  Na6  1  0.63612199  0.36492988  0.08455724  1
  Na  Na7  1  0.63690609  0.36622172  0.42472851  1
  Na  Na8  1  0.63194634  0.36586553  0.74668047  1
  Na  Na9  1  0.66671524  0.84146191  0.09443075  1
  Na  Na10  1  0.62926136  0.85391344  0.40066064  1
  Na  Na11  1  0.63432856  0.86493373  0.75087347  1
  Na  Na12  1  0.36401893  0.13348375  0.24797522  1
  Na  Na13  1  0.36262521  0.14024110  0.58584148  1
  Na  Na14  1  0.35343901  0.16103599  0.92598193  1
  Na  Na15  1  0.36910229  0.64300891  0.24807691  1
  Na  Na16  1  0.36135538  0.63122372  0.57998377  1
  Na  Na17  1  0.36772913  0.63587962  0.92284339  1
  Na  Na18  1  0.88211109  0.12852749  0.24953111  1
  Na  Na19  1  0.85300520  0.12465023  0.56582675  1
  Na  Na20  1  0.87531077  0.12361515  0.91226668  1
  Na  Na21  1  0.85614276  0.63734178  0.23994685  1
  Na  Na22  1  0.85446754  0.62957471  0.57805406  1
  Na  Na23  1  0.87771488  0.65429919  0.94452841  1
  Na  Na24  1  0.99529054  0.01153233  0.39482223  1
  Na  Na25  1  0.48719349  0.51766294  0.41338570  1
  Na  Na26  1  0.44807432  0.50722554  0.73842519  1
  Na  Na27  1  0.99466988  0.01841425  0.09947907  1
  Na  Na28  1  0.49263484  0.54457468  0.09066409  1
  Na  Na29  1  1.04459366  0.48820702  0.02220111  1
  Na  Na30  1  0.48684035  0.01365205  0.74764030  1
  Na  Na31  1  0.51045530  -0.01538616  0.41804257  1
  Na  Na32  1  0.50252159  -0.00369314  0.08988712  1
  Na  Na33  1  0.51164801  0.48819644  0.91598105  1
  Na  Na34  1  0.50722882  0.98926492  0.91702237  1
  Na  Na35  1  -0.00325999  0.99111567  0.59760477  1
  Na  Na36  1  0.49722238  0.51349762  0.24563900  1
  Na  Na37  1  0.52398339  0.98338360  0.25822980  1
  Na  Na38  1  0.00886634  0.49273089  0.24532783  1
  Na  Na39  1  -0.03755896  0.51128244  0.63331761  1
  Na  Na40  1  0.51108379  0.96164292  0.57392827  1
  Na  Na41  1  0.50782605  0.48893891  0.58384715  1
  Na  Na42  1  0.26111124  0.76202272  0.33169743  1
  Na  Na43  1  0.23568031  0.24560483  0.33350871  1
  Na  Na44  1  0.76135232  0.25118597  0.33032859  1
  Na  Na45  1  0.74483703  0.74268706  0.67082793  1
  Na  Na46  1  0.24148654  0.73790005  0.00954389  1
  Na  Na47  1  0.23941550  0.24805156  0.67839653  1
  Na  Na48  1  0.75790951  0.25198254  -0.00565941  1
  Na  Na49  1  0.24128754  0.74549369  0.67186002  1
  Na  Na50  1  0.75845761  0.25872068  0.65679800  1
  Na  Na51  1  0.74978477  0.75249465  0.31683209  1
  Na  Na52  1  0.74659160  0.75199985  0.49306283  1
  Na  Na53  1  0.25717334  0.75362475  0.49800990  1
  Na  Na54  1  0.74933099  0.74086283  0.85055950  1
  Na  Na55  1  0.24198770  0.74169336  0.16948430  1
  Na  Na56  1  0.75647441  0.25535833  0.82562052  1
  Na  Na57  1  0.75338083  0.25331083  0.49240414  1
  Na  Na58  1  0.24260501  0.74223548  0.83873588  1
  Na  Na59  1  0.25470496  0.26585420  0.50344331  1
  Na  Na60  1  0.25012530  0.25258381  0.16179102  1
  Na  Na61  1  0.75528708  0.25018822  0.16422423  1
  Fe  Fe62  1  0.46172005  0.30721494  0.45104650  1
  Fe  Fe63  1  0.47488375  0.79877946  0.11992505  1
  Fe  Fe64  1  0.46667145  0.30796939  0.11874299  1
  Fe  Fe65  1  0.96694387  0.30665506  0.78842601  1
  Fe  Fe66  1  0.97137804  0.29593762  0.12354939  1
  Fe  Fe67  1  0.96739800  0.30669339  0.45403145  1
  Fe  Fe68  1  0.46282595  0.30859865  0.78584201  1
  Fe  Fe69  1  0.96311549  0.81509695  0.79182868  1
  Fe  Fe70  1  0.96312591  0.80619429  0.44837612  1
  Fe  Fe71  1  0.46678900  0.80779542  0.78585794  1
  Fe  Fe72  1  0.18971204  0.03695816  0.37711383  1
  Fe  Fe73  1  0.69554644  0.53454375  0.04959296  1
  Fe  Fe74  1  0.19274900  0.03687741  0.71915067  1
  Fe  Fe75  1  0.69238848  0.03236045  0.05033196  1
  Fe  Fe76  1  0.19232349  0.53718633  0.37937133  1
  Fe  Fe77  1  0.70219283  0.53012377  0.71314401  1
  Fe  Fe78  1  0.69264654  0.53111484  0.38154298  1
  Fe  Fe79  1  0.19069600  0.03583881  0.04467440  1
  Fe  Fe80  1  0.69084212  0.03576088  0.71623698  1
  Fe  Fe81  1  0.19692471  0.53235039  0.70612017  1
  Fe  Fe82  1  0.53278402  0.18850168  0.54754031  1
  Fe  Fe83  1  0.53719330  0.68839503  0.87983715  1
  Fe  Fe84  1  0.03712289  0.19222455  0.55027003  1
  Fe  Fe85  1  0.53086770  0.19705132  0.88535666  1
  Fe  Fe86  1  0.03133351  0.69238004  0.54376687  1
  Fe  Fe87  1  0.04139665  0.18399098  0.87707568  1
  Fe  Fe88  1  0.53400515  0.19181046  0.21985825  1
  Fe  Fe89  1  0.03431011  0.69414347  0.88125496  1
  Fe  Fe90  1  0.02935296  0.70133920  0.20762884  1
  Fe  Fe91  1  0.53179118  0.69929918  0.54456861  1
  Fe  Fe92  1  0.81267584  0.46356759  0.29144240  1
  Fe  Fe93  1  0.80920000  0.96239375  0.95476004  1
  Fe  Fe94  1  0.30758269  0.96499810  0.28502921  1
  Fe  Fe95  1  0.80022686  0.96683758  0.28393056  1
  Fe  Fe96  1  0.30450922  0.46991998  0.28170613  1
  Fe  Fe97  1  0.30863666  0.96530768  0.95217996  1
  Fe  Fe98  1  0.29602851  0.46941977  0.95651337  1
  Fe  Fe99  1  0.80510639  0.96668543  0.61998041  1
  Fe  Fe100  1  0.30558915  0.96690880  0.61766142  1
  Fe  Fe101  1  0.81234931  0.46094354  0.95700272  1
  S  S102  1  0.36307454  0.13871726  0.08304956  1
  S  S103  1  0.35664649  0.14246688  0.41704518  1
  S  S104  1  0.35838038  0.14204229  0.75140264  1
  S  S105  1  0.36134674  0.64322406  0.08216064  1
  S  S106  1  0.35926488  0.64166594  0.41748270  1
  S  S107  1  0.35923672  0.64700185  0.74914899  1
  S  S108  1  0.85369236  0.13785320  0.07883339  1
  S  S109  1  0.86476361  0.13614508  0.41552467  1
  S  S110  1  0.85951495  0.13966455  0.74927648  1
  S  S111  1  0.86097904  0.63429864  0.08433863  1
  S  S112  1  0.85739831  0.64028210  0.41663963  1
  S  S113  1  0.86207202  0.64512503  0.75213324  1
  S  S114  1  0.14038376  0.36322941  0.24832188  1
  S  S115  1  0.13919673  0.36103802  0.58550095  1
  S  S116  1  0.13921152  0.35288322  0.91440988  1
  S  S117  1  0.14123016  0.86252006  0.25355982  1
  S  S118  1  0.13905421  0.86097644  0.58319942  1
  S  S119  1  0.14378224  0.85950998  0.91517798  1
  S  S120  1  0.64181942  0.35423782  0.25398810  1
  S  S121  1  0.63660255  0.35688385  0.58331448  1
  S  S122  1  0.64058233  0.35891465  0.91747018  1
  S  S123  1  0.64027422  0.86193247  0.24888880  1
  S  S124  1  0.64207877  0.85991376  0.58373596  1
  S  S125  1  0.63873545  0.85939915  0.91627666  1
  S  S126  1  0.06749583  0.16713366  0.04096793  1
  S  S127  1  0.07091729  0.17518357  0.38028671  1
  S  S128  1  0.06402125  0.16554587  0.70567253  1
  S  S129  1  0.07463882  0.67910976  0.04559347  1
  S  S130  1  0.06794066  0.67562793  0.37546226  1
  S  S131  1  0.06690829  0.67313722  0.70829788  1
  S  S132  1  0.56469083  0.16766956  0.04313222  1
  S  S133  1  0.55902641  0.16531616  0.37849945  1
  S  S134  1  0.56253397  0.16687484  0.71058763  1
  S  S135  1  0.56980934  0.66251106  0.03534755  1
  S  S136  1  0.56563712  0.66135115  0.37434829  1
  S  S137  1  0.56865901  0.67049236  0.70950042  1
  S  S138  1  0.33654468  0.43141174  0.12669023  1
  S  S139  1  0.33305600  0.43592608  0.45596796  1
  S  S140  1  0.33044650  0.43625495  0.79419315  1
  S  S141  1  0.33718006  0.93347708  0.12385670  1
  S  S142  1  0.33188740  0.94240649  0.45954260  1
  S  S143  1  0.33182249  0.93532078  0.79104356  1
  S  S144  1  0.83100767  0.42375965  0.12565564  1
  S  S145  1  0.82901808  0.43112855  0.45777659  1
  S  S146  1  0.82577082  0.42640384  0.79131669  1
  S  S147  1  0.83408210  0.94053445  0.12488126  1
  S  S148  1  0.82908030  0.92832503  0.45604836  1
  S  S149  1  0.82237550  0.93182313  0.78704444  1
  S  S150  1  0.43353483  0.33236158  0.29044083  1
  S  S151  1  0.43628839  0.33106705  0.62430062  1
  S  S152  1  0.44041313  0.33969379  0.96342435  1
  S  S153  1  0.43284312  0.83587047  0.28916426  1
  S  S154  1  0.43452341  0.83359018  0.62625381  1
  S  S155  1  0.43571535  0.83042855  0.95636248  1
  S  S156  1  0.93355232  0.33027983  0.29130822  1
  S  S157  1  0.92869869  0.31877656  0.61996060  1
  S  S158  1  0.93329708  0.32087165  0.95759849  1
  S  S159  1  0.92815801  0.83261726  0.29347116  1
  S  S160  1  0.92920735  0.82724483  0.62263004  1
  S  S161  1  0.93798161  0.83916556  0.95908473  1
  S  S162  1  0.17490859  0.06718640  0.21036033  1
  S  S163  1  0.17016908  0.06677542  0.54431539  1
  S  S164  1  0.17249427  0.06331552  0.87477847  1
  S  S165  1  0.16797015  0.57084122  0.20938124  1
  S  S166  1  0.16959276  0.57480760  0.54195421  1
  S  S167  1  0.17457099  0.57271777  0.87204641  1
  S  S168  1  0.66800291  0.06823703  0.20878726  1
  S  S169  1  0.66325235  0.06217544  0.54380849  1
  S  S170  1  0.66028783  0.06639994  0.87499362  1
  S  S171  1  0.67052102  0.55514477  0.21030254  1
  S  S172  1  0.66293796  0.56659952  0.54239923  1
  S  S173  1  0.66838634  0.56396900  0.87219692  1
  O  O174  1  0.37447637  0.21719211  0.07569170  1
  O  O175  1  0.36561832  0.22215934  0.40927203  1
  O  O176  1  0.36871738  0.21954375  0.74048369  1
  O  O177  1  0.37834191  0.71630624  0.06385770  1
  O  O178  1  0.36412574  0.71827552  0.40831483  1
  O  O179  1  0.36870014  0.72876415  0.74575301  1
  O  O180  1  0.86571797  0.21883640  0.07528452  1
  O  O181  1  0.87669170  0.21360064  0.40394296  1
  O  O182  1  0.86614370  0.22035817  0.74404517  1
  O  O183  1  0.86529063  0.70687506  0.06893175  1
  O  O184  1  0.86500390  0.72138375  0.41244593  1
  O  O185  1  0.86823897  0.72660219  0.74668858  1
  O  O186  1  0.28496052  0.13017050  0.09262681  1
  O  O187  1  0.27748559  0.13574946  0.42556655  1
  O  O188  1  0.27781872  0.13218366  0.75339945  1
  O  O189  1  0.28257145  0.64408543  0.08791813  1
  O  O190  1  0.28164230  0.62758032  0.42815240  1
  O  O191  1  0.27824003  0.63761512  0.75259885  1
  O  O192  1  0.77222337  0.13214268  0.08399179  1
  O  O193  1  0.79144941  0.13210353  0.43154755  1
  O  O194  1  0.78209925  0.13011027  0.76167578  1
  O  O195  1  0.78504673  0.61865788  0.09779588  1
  O  O196  1  0.77861085  0.62900040  0.42527438  1
  O  O197  1  0.78003828  0.63279913  0.75425084  1
  O  O198  1  0.13555897  0.28681376  0.25759785  1
  O  O199  1  0.12907347  0.28221433  0.59604813  1
  O  O200  1  0.13225697  0.27062008  0.91469403  1
  O  O201  1  0.12959716  0.78447413  0.26476853  1
  O  O202  1  0.13011481  0.78296443  0.59280666  1
  O  O203  1  0.13669811  0.77886988  0.92022137  1
  O  O204  1  0.63017303  0.27609590  0.26403023  1
  O  O205  1  0.62388755  0.28011183  0.59621969  1
  O  O206  1  0.63009683  0.28119939  0.92824056  1
  O  O207  1  0.63280552  0.78514158  0.25762233  1
  O  O208  1  0.63234393  0.78208590  0.59478339  1
  O  O209  1  0.62906636  0.77809248  0.91684852  1
  O  O210  1  0.21761912  0.37677516  0.23632038  1
  O  O211  1  0.21525833  0.37055165  0.57603683  1
  O  O212  1  0.21681387  0.37027041  0.90732927  1
  O  O213  1  0.22509867  0.86664991  0.25277129  1
  O  O214  1  0.21874504  0.86989064  0.57585278  1
  O  O215  1  0.22211080  0.86966559  0.90466010  1
  O  O216  1  0.72217624  0.36012478  0.24854846  1
  O  O217  1  0.71209431  0.36030496  0.57118179  1
  O  O218  1  0.72025458  0.36509250  0.91041973  1
  O  O219  1  0.71978095  0.87432131  0.23920771  1
  O  O220  1  0.72414198  0.86781709  0.58146634  1
  O  O221  1  0.71627044  0.87079298  0.90615554  1
  O  O222  1  0.42264230  0.12833872  0.15041702  1
  O  O223  1  0.41463218  0.13389328  0.48532849  1
  O  O224  1  0.41457177  0.13722070  0.82265337  1
  O  O225  1  0.41979007  0.63652676  0.14975631  1
  O  O226  1  0.41941106  0.63474670  0.48631697  1
  O  O227  1  0.41541759  0.63857906  0.81931082  1
  O  O228  1  0.91045664  0.12361802  0.14232874  1
  O  O229  1  0.92994874  0.12354000  0.47771169  1
  O  O230  1  0.92106773  0.12952081  0.81387821  1
  O  O231  1  0.92269592  0.63036571  0.15371509  1
  O  O232  1  0.91642467  0.63206302  0.48419541  1
  O  O233  1  0.91656903  0.64089522  0.82389081  1
  O  O234  1  0.37033969  0.07952265  0.01452718  1
  O  O235  1  0.36484716  0.08455770  0.34913550  1
  O  O236  1  0.37272864  0.08090485  0.68720364  1
  O  O237  1  0.36732327  0.57701898  0.01577262  1
  O  O238  1  0.36990060  0.57996759  0.35132520  1
  O  O239  1  0.37170564  0.59104462  0.68368872  1
  O  O240  1  0.85664251  0.08215754  0.00628633  1
  O  O241  1  0.86691182  0.07503451  0.34474749  1
  O  O242  1  0.86247740  0.08327718  0.67759246  1
  O  O243  1  0.86940230  0.56898155  0.01893349  1
  O  O244  1  0.86456347  0.58462758  0.34687819  1
  O  O245  1  0.87476431  0.58964354  0.68642790  1
  O  O246  1  0.07876351  0.37077524  0.18081603  1
  O  O247  1  0.07699188  0.36803497  0.51841259  1
  O  O248  1  0.07920140  0.36196874  0.84617367  1
  O  O249  1  0.08831178  0.87095100  0.18598475  1
  O  O250  1  0.08046132  0.86798625  0.51481561  1
  O  O251  1  0.08344622  0.86802549  0.84862314  1
  O  O252  1  0.58564239  0.36021289  0.18360114  1
  O  O253  1  0.57412472  0.36651616  0.51693000  1
  O  O254  1  0.58230845  0.36559894  0.84827290  1
  O  O255  1  0.58301690  0.86745953  0.17665983  1
  O  O256  1  0.58669264  0.86729162  0.51553710  1
  O  O257  1  0.57817291  0.87333715  0.85089601  1
  O  O258  1  0.13163318  0.42509057  0.31556035  1
  O  O259  1  0.13118329  0.42015590  0.65396830  1
  O  O260  1  0.12841441  0.40558024  0.98283109  1
  O  O261  1  0.13446804  0.92241977  0.32270885  1
  O  O262  1  0.13025144  0.92142880  0.65033016  1
  O  O263  1  0.13997776  0.91634553  0.98565847  1
  O  O264  1  0.63174202  0.41436372  0.31996507  1
  O  O265  1  0.63038903  0.41938609  0.65068109  1
  O  O266  1  0.63181849  0.42034087  0.98367652  1
  O  O267  1  0.62960747  0.92371827  0.31240776  1
  O  O268  1  0.63105047  0.91989236  0.65123789  1
  O  O269  1  0.63111052  0.91486827  0.98629751  1
  O  O270  1  0.02589265  0.19343067  0.09666461  1
  O  O271  1  0.03913885  0.20678772  0.44541044  1
  O  O272  1  0.02769684  0.19608320  0.76632966  1
  O  O273  1  0.03748376  0.70062149  0.10528178  1
  O  O274  1  0.02905242  0.70323137  0.43578179  1
  O  O275  1  0.03077598  0.70172416  0.76927277  1
  O  O276  1  0.53308981  0.19820761  0.10704125  1
  O  O277  1  0.52557951  0.20528147  0.44085432  1
  O  O278  1  0.52817464  0.19830474  0.77324047  1
  O  O279  1  0.53801753  0.69531943  0.09724076  1
  O  O280  1  0.53795623  0.68874689  0.44024509  1
  O  O281  1  0.52955480  0.69844766  0.76929469  1
  O  O282  1  0.30890402  0.46151282  0.06344392  1
  O  O283  1  0.29957334  0.46509794  0.38973081  1
  O  O284  1  0.30769646  0.47827107  0.73843692  1
  O  O285  1  0.30445726  0.96820872  0.06165209  1
  O  O286  1  0.29485572  0.97779601  0.39888315  1
  O  O287  1  0.30046259  0.97163147  0.73001232  1
  O  O288  1  0.79978260  0.45591559  0.06204907  1
  O  O289  1  0.79631505  0.46684794  0.39480413  1
  O  O290  1  0.79861717  0.46574693  0.73412774  1
  O  O291  1  0.79286234  0.97424445  0.06084706  1
  O  O292  1  0.81041080  0.96243830  0.39492502  1
  O  O293  1  0.79396297  0.97170434  0.72777965  1
  O  O294  1  0.46848251  0.29923814  0.22858160  1
  O  O295  1  0.46763787  0.29089532  0.56131694  1
  O  O296  1  0.47194733  0.30356663  0.89811748  1
  O  O297  1  0.45878235  0.81433220  0.22219907  1
  O  O298  1  0.47082672  0.80520721  0.56717043  1
  O  O299  1  0.47177763  0.80063270  0.89508961  1
  O  O300  1  0.96748203  0.30335248  0.23032165  1
  O  O301  1  0.96604757  0.28667573  0.55882287  1
  O  O302  1  0.96951751  0.29152524  0.89669876  1
  O  O303  1  0.96334030  0.80172762  0.23434914  1
  O  O304  1  0.96973573  0.79897863  0.56426305  1
  O  O305  1  0.97409544  0.80554840  0.89641095  1
  O  O306  1  0.20842485  0.02805735  0.27035741  1
  O  O307  1  0.20120678  0.03064946  0.60583945  1
  O  O308  1  0.20496562  0.02890542  0.93804619  1
  O  O309  1  0.20395659  0.53856560  0.27437407  1
  O  O310  1  0.19327705  0.53965546  0.60247625  1
  O  O311  1  0.19889824  0.53298026  0.92909938  1
  O  O312  1  0.70463270  0.03575876  0.26934285  1
  O  O313  1  0.69929335  0.03309317  0.61042357  1
  O  O314  1  0.68873753  0.02999621  0.93510486  1
  O  O315  1  0.70627095  0.51775165  0.27078168  1
  O  O316  1  0.68895406  0.53434176  0.60458755  1
  O  O317  1  0.69673951  0.52824684  0.93386373  1
  O  O318  1  0.08857617  0.08676821  0.03982818  1
  O  O319  1  0.09349649  0.09526303  0.38265915  1
  O  O320  1  0.08661128  0.08566813  0.70542145  1
  O  O321  1  0.10085884  0.60196936  0.03511993  1
  O  O322  1  0.08444697  0.59325538  0.36652738  1
  O  O323  1  0.08768717  0.59267284  0.70184949  1
  O  O324  1  0.57969424  0.08429508  0.03526633  1
  O  O325  1  0.56377679  0.08344590  0.37489864  1
  O  O326  1  0.57656013  0.08354879  0.70460491  1
  O  O327  1  0.58435786  0.57875861  0.03244426  1
  O  O328  1  0.58671754  0.57766708  0.36811504  1
  O  O329  1  0.58545278  0.58847326  0.70186757  1
  O  O330  1  0.42059844  0.41424426  0.13644196  1
  O  O331  1  0.41499521  0.41550842  0.45659549  1
  O  O332  1  0.41384730  0.41671472  0.79893194  1
  O  O333  1  0.41981967  0.91922950  0.12781287  1
  O  O334  1  0.41301959  0.93234722  0.46237873  1
  O  O335  1  0.41432482  0.91940528  0.79454552  1
  O  O336  1  0.91080553  0.40197437  0.12966980  1
  O  O337  1  0.90590063  0.40531741  0.45501884  1
  O  O338  1  0.90386404  0.40170173  0.79314923  1
  O  O339  1  0.91660348  0.94500208  0.13326321  1
  O  O340  1  0.91305567  0.91087574  0.47431197  1
  O  O341  1  0.90224978  0.91322320  0.79076550  1
  O  O342  1  0.41811173  0.41477184  0.29506625  1
  O  O343  1  0.43005697  0.41269486  0.62628478  1
  O  O344  1  0.43418647  0.42358157  0.97078294  1
  O  O345  1  0.41163289  0.91989357  0.30107334  1
  O  O346  1  0.41631610  0.91652828  0.63104403  1
  O  O347  1  0.42258770  0.91481468  0.96349095  1
  O  O348  1  0.91394716  0.41246477  0.29776548  1
  O  O349  1  0.90747973  0.39602718  0.62106486  1
  O  O350  1  0.91665840  0.40293637  0.96415687  1
  O  O351  1  0.90250258  0.91191658  0.29361141  1
  O  O352  1  0.90955939  0.90782628  0.62483007  1
  O  O353  1  0.91252953  0.91706685  0.95430304  1
  O  O354  1  0.09613607  0.08297332  0.20820291  1
  O  O355  1  0.08773624  0.08190541  0.53876828  1
  O  O356  1  0.09163562  0.07919015  0.87021131  1
  O  O357  1  0.09046210  0.59492408  0.21425714  1
  O  O358  1  0.08855621  0.59581085  0.53137874  1
  O  O359  1  0.09525408  0.59612589  0.86523162  1
  O  O360  1  0.58605501  0.08428230  0.20995636  1
  O  O361  1  0.58218035  0.08224241  0.54559280  1
  O  O362  1  0.57710980  0.08362269  0.86975159  1
  O  O363  1  0.58829596  0.56233172  0.20501991  1
  O  O364  1  0.57940182  0.58387524  0.53246018  1
  O  O365  1  0.58385404  0.57741126  0.86330752  1
  O  O366  1  0.13801325  0.22116958  0.05940753  1
  O  O367  1  0.14195676  0.22775913  0.39494742  1
  O  O368  1  0.13123025  0.21899209  0.71626163  1
  O  O369  1  0.14143407  0.73968895  0.06399778  1
  O  O370  1  0.14106785  0.72782854  0.39752184  1
  O  O371  1  0.13697045  0.72818676  0.72475718  1
  O  O372  1  0.63622469  0.21720873  0.05567630  1
  O  O373  1  0.63416702  0.21003363  0.39243057  1
  O  O374  1  0.63560928  0.21539206  0.72610833  1
  O  O375  1  0.64024526  0.70706296  0.04078306  1
  O  O376  1  0.63610190  0.71229471  0.38556946  1
  O  O377  1  0.64078237  0.72375660  0.73069944  1
  O  O378  1  0.28734992  0.36200139  0.11867138  1
  O  O379  1  0.28268413  0.36467514  0.44411683  1
  O  O380  1  0.27801098  0.36484684  0.77392806  1
  O  O381  1  0.28813661  0.86125043  0.11002058  1
  O  O382  1  0.28402698  0.86850663  0.44537890  1
  O  O383  1  0.28129674  0.86371388  0.77556107  1
  O  O384  1  0.77616351  0.35488780  0.11268130  1
  O  O385  1  0.77295527  0.36163213  0.44155219  1
  O  O386  1  0.76902028  0.35602322  0.77313927  1
  O  O387  1  0.79436073  0.86345196  0.10748710  1
  O  O388  1  0.77551843  0.85702127  0.43745586  1
  O  O389  1  0.76835405  0.86101554  0.76800592  1
  O  O390  1  0.36100682  0.28268369  0.27541079  1
  O  O391  1  0.36149029  0.28669750  0.61252731  1
  O  O392  1  0.36677769  0.29585026  0.95087914  1
  O  O393  1  0.36270080  0.78276369  0.27568308  1
  O  O394  1  0.36274778  0.78360252  0.61275905  1
  O  O395  1  0.36171251  0.78275062  0.93853707  1
  O  O396  1  0.86191972  0.27751269  0.27546900  1
  O  O397  1  0.85862135  0.26291970  0.60269299  1
  O  O398  1  0.85993837  0.26935065  0.93865237  1
  O  O399  1  0.86285239  0.77896663  0.28806467  1
  O  O400  1  0.85837313  0.77329937  0.60366848  1
  O  O401  1  0.86893436  0.78494719  0.94417591  1
  O  O402  1  0.22869596  0.13853596  0.22822906  1
  O  O403  1  0.22061448  0.13982491  0.56209046  1
  O  O404  1  0.22323667  0.13226706  0.88605848  1
  O  O405  1  0.22238771  0.63981088  0.22185978  1
  O  O406  1  0.22459771  0.64549520  0.55958391  1
  O  O407  1  0.23151242  0.64315229  0.89201147  1
  O  O408  1  0.71445710  0.14009624  0.21638202  1
  O  O409  1  0.71245095  0.13322602  0.55398602  1
  O  O410  1  0.71053534  0.13771878  0.88865800  1
  O  O411  1  0.71751805  0.62953250  0.22839640  1
  O  O412  1  0.71396012  0.63848734  0.55644287  1
  O  O413  1  0.71737616  0.63632882  0.88829145  1
  O  O414  1  0.50127139  0.33413795  0.03286512  1
  O  O415  1  0.49305088  0.33367068  0.36236970  1
  O  O416  1  0.49386798  0.33005806  0.69753069  1
  O  O417  1  0.49404993  0.82922086  0.02751455  1
  O  O418  1  0.49634635  0.83898750  0.35695689  1
  O  O419  1  0.49336375  0.83928487  0.70093934  1
  O  O420  1  0.99057203  0.32081599  0.02968995  1
  O  O421  1  0.99239364  0.33197930  0.36352906  1
  O  O422  1  0.98795911  0.31979331  0.69215047  1
  O  O423  1  0.99788736  0.85180978  0.03091552  1
  O  O424  1  0.99091445  0.84795413  0.36962231  1
  O  O425  1  0.98600792  0.83118038  0.69667500  1
  O  O426  1  0.17639709  0.00946142  0.13747625  1
  O  O427  1  0.16923297  0.00857661  0.47222940  1
  O  O428  1  0.17086772  0.00051095  0.80349801  1
  O  O429  1  0.15810668  0.50777609  0.13902692  1
  O  O430  1  0.17111708  0.51530402  0.47055114  1
  O  O431  1  0.17395429  0.51631681  0.79806349  1
  O  O432  1  0.65623290  0.00751375  0.13347274  1
  O  O433  1  0.65388395  -0.00148083  0.47452666  1
  O  O434  1  0.65609027  0.00732928  0.80129968  1
  O  O435  1  0.67331695  0.49996820  0.13697750  1
  O  O436  1  0.66410687  0.50610182  0.47142058  1
  O  O437  1  0.66882739  0.50509432  0.80026966  1
  O  O438  1  0.01077754  0.16797250  0.31025559  1
  O  O439  1  0.00215463  0.15379523  0.63144297  1
  O  O440  1  0.01234028  0.16089844  0.96473612  1
  O  O441  1  0.01052513  0.67971353  0.30513399  1
  O  O442  1  0.00685020  0.67035834  0.63570498  1
  O  O443  1  0.01391963  0.68119699  0.97412798  1
  O  O444  1  0.50169773  0.16887648  0.30614405  1
  O  O445  1  0.50319672  0.16714070  0.63943626  1
  O  O446  1  0.50305582  0.16722236  0.97230494  1
  O  O447  1  0.50236720  0.65427609  0.30505599  1
  O  O448  1  0.51132805  0.67284368  0.63760780  1
  O  O449  1  0.50630927  0.65490715  0.96170751  1
  O  O450  1  0.34053559  0.49622301  0.19815753  1
  O  O451  1  0.34139732  0.49786616  0.52596428  1
  O  O452  1  0.33593811  0.49050364  0.87021390  1
  O  O453  1  0.33884794  0.99307936  0.19603985  1
  O  O454  1  0.33189093  0.99937070  0.53366612  1
  O  O455  1  0.33676891  0.99417605  0.86443681  1
  O  O456  1  0.83616853  0.48619606  0.19729028  1
  O  O457  1  0.83747110  0.49210889  0.52889756  1
  O  O458  1  0.83101886  0.48262276  0.86644841  1
  O  O459  1  0.82113825  0.99576915  0.19493321  1
  O  O460  1  0.82482779  0.98828504  0.52652603  1
  O  O461  1  0.82083743  0.98965901  0.85871177  1
