# generated using pymatgen
data_Na31Fe20(SO4)36
_symmetry_space_group_name_H-M   'P 1'
_cell_length_a   18.07921460
_cell_length_b   18.07918172
_cell_length_c   19.70406089
_cell_angle_alpha   107.58021829
_cell_angle_beta   107.58609865
_cell_angle_gamma   90.73933441
_symmetry_Int_Tables_number   1
_chemical_formula_structural   Na31Fe20(SO4)36
_chemical_formula_sum   'Na62 Fe40 S72 O288'
_cell_volume   5814.10350930
_cell_formula_units_Z   2
loop_
 _symmetry_equiv_pos_site_id
 _symmetry_equiv_pos_as_xyz
  1  'x, y, z'
loop_
 _atom_site_type_symbol
 _atom_site_label
 _atom_site_symmetry_multiplicity
 _atom_site_fract_x
 _atom_site_fract_y
 _atom_site_fract_z
 _atom_site_occupancy
  Na  Na0  1  0.14722643  0.36385626  0.08734576  1
  Na  Na1  1  0.11317809  0.36419168  0.41210583  1
  Na  Na2  1  0.15833128  0.37234348  0.77678208  1
  Na  Na3  1  0.13640963  0.86778795  0.09134404  1
  Na  Na4  1  0.16400392  0.85730711  0.43930792  1
  Na  Na5  1  0.12256988  0.84306098  0.73362588  1
  Na  Na6  1  0.63016853  0.35914154  0.07152074  1
  Na  Na7  1  0.63940694  0.37232000  0.41317838  1
  Na  Na8  1  0.63863150  0.36728632  0.75225495  1
  Na  Na9  1  0.63836543  0.86762707  0.08563992  1
  Na  Na10  1  0.62722301  0.86811712  0.41889675  1
  Na  Na11  1  0.63010868  0.86672637  0.74652184  1
  Na  Na12  1  0.36553017  0.13746956  0.25307704  1
  Na  Na13  1  0.36356834  0.14094575  0.58690680  1
  Na  Na14  1  0.35294378  0.12993257  0.90072086  1
  Na  Na15  1  0.35853241  0.62974046  0.24234804  1
  Na  Na16  1  0.35206056  0.63215032  0.57187689  1
  Na  Na17  1  0.35924396  0.62753020  0.90958631  1
  Na  Na18  1  0.87962783  0.15054588  0.26521128  1
  Na  Na19  1  0.86699569  0.13148978  0.57968216  1
  Na  Na20  1  0.86705324  0.14013515  0.92411663  1
  Na  Na21  1  0.86890526  0.62736263  0.24764030  1
  Na  Na22  1  0.87991693  0.63314523  0.58115144  1
  Na  Na23  1  0.87004687  0.63279816  0.91681093  1
  Na  Na24  1  1.00150400  0.50720644  0.72774391  1
  Na  Na25  1  0.98220210  0.51934895  0.43593864  1
  Na  Na26  1  0.49357932  0.51340319  0.41438525  1
  Na  Na27  1  1.00861002  0.48463269  0.10427675  1
  Na  Na28  1  1.01034745  -0.01731660  0.73893103  1
  Na  Na29  1  0.42940630  0.50326083  0.03725942  1
  Na  Na30  1  0.49159711  0.00894924  0.08119106  1
  Na  Na31  1  0.48377978  0.50757222  0.76736928  1
  Na  Na32  1  0.99661607  0.05782590  0.10328226  1
  Na  Na33  1  0.02220262  1.00078095  0.56140476  1
  Na  Na34  1  0.53759257  0.49478052  0.25328007  1
  Na  Na35  1  0.49394527  1.01001383  0.88946745  1
  Na  Na36  1  0.50631393  0.49609433  0.58753032  1
  Na  Na37  1  0.46476503  1.01133272  0.62576203  1
  Na  Na38  1  0.50552201  0.99168919  0.26552881  1
  Na  Na39  1  0.06180885  0.49704939  0.93843950  1
  Na  Na40  1  0.01545876  0.99898858  0.26286344  1
  Na  Na41  1  0.01017923  0.96050456  0.90788795  1
  Na  Na42  1  0.24294191  0.24102743  0.68514996  1
  Na  Na43  1  0.26419649  0.27104025  -0.02023724  1
  Na  Na44  1  0.23635712  0.73359475  0.01114332  1
  Na  Na45  1  0.73895481  0.73499914  0.33848785  1
  Na  Na46  1  0.75473245  0.25241819  0.66434316  1
  Na  Na47  1  0.76141353  0.75591218  0.66286729  1
  Na  Na48  1  0.76559630  0.26456315  0.32721433  1
  Na  Na49  1  0.75312829  0.75278853  -0.00144151  1
  Na  Na50  1  0.23345745  0.24300086  0.33760152  1
  Na  Na51  1  0.24351083  0.76083786  0.63762041  1
  Na  Na52  1  0.76984515  0.26416577  0.49080002  1
  Na  Na53  1  0.75942145  0.26154562  0.15039822  1
  Na  Na54  1  0.23521391  0.73509499  0.18420379  1
  Na  Na55  1  0.74010926  0.73941587  0.50073081  1
  Na  Na56  1  0.24100388  0.24363849  0.50474138  1
  Na  Na57  1  0.74185004  0.74140192  0.17042187  1
  Na  Na58  1  0.24414528  0.24815647  0.16878491  1
  Na  Na59  1  0.74305791  0.24300109  0.84612263  1
  Na  Na60  1  0.24816881  0.74584843  0.83237806  1
  Na  Na61  1  0.76439145  0.75908768  0.82713116  1
  Fe  Fe62  1  0.46372058  0.80652267  0.78108441  1
  Fe  Fe63  1  0.46422951  0.30993881  0.78873336  1
  Fe  Fe64  1  0.46724660  0.30667140  0.45073185  1
  Fe  Fe65  1  0.96509551  0.81145394  0.12517793  1
  Fe  Fe66  1  0.96653476  0.30374142  0.12473297  1
  Fe  Fe67  1  0.46501902  0.30582069  0.11623852  1
  Fe  Fe68  1  0.96656530  0.30845055  0.78899092  1
  Fe  Fe69  1  0.45571802  0.80977655  0.45268109  1
  Fe  Fe70  1  0.96764967  0.79885053  0.45469987  1
  Fe  Fe71  1  0.46814487  0.81044744  0.11884412  1
  Fe  Fe72  1  0.19233127  0.03514854  0.04836557  1
  Fe  Fe73  1  0.18982374  0.53277699  0.70931537  1
  Fe  Fe74  1  0.19959325  0.03273263  0.71305017  1
  Fe  Fe75  1  0.18250055  0.53788139  0.37933586  1
  Fe  Fe76  1  0.69652890  0.03308607  0.38436974  1
  Fe  Fe77  1  0.69192694  0.03543456  0.04833398  1
  Fe  Fe78  1  0.69457710  0.53503523  0.71517252  1
  Fe  Fe79  1  0.69025539  0.03551843  0.71398290  1
  Fe  Fe80  1  0.69015241  0.53334025  0.04335624  1
  Fe  Fe81  1  0.20308942  0.03173453  0.38699330  1
  Fe  Fe82  1  0.53537424  0.69649808  0.88142243  1
  Fe  Fe83  1  0.53809169  0.19125924  0.54606689  1
  Fe  Fe84  1  0.53555336  0.19212684  0.21454688  1
  Fe  Fe85  1  0.54017308  0.19041614  0.88034236  1
  Fe  Fe86  1  0.03157530  0.69892685  0.87489271  1
  Fe  Fe87  1  0.03262228  0.19972262  0.54159695  1
  Fe  Fe88  1  0.53219043  0.69207066  0.21228507  1
  Fe  Fe89  1  0.03715572  0.69219552  0.21877737  1
  Fe  Fe90  1  0.03427549  0.18560976  0.87491096  1
  Fe  Fe91  1  0.53134304  0.69354603  0.54753153  1
  Fe  Fe92  1  0.30730695  0.46049826  0.61674145  1
  Fe  Fe93  1  0.80617022  0.46803538  0.61617755  1
  Fe  Fe94  1  0.79761555  0.46986492  0.29138716  1
  Fe  Fe95  1  0.30583049  0.96278449  0.95151365  1
  Fe  Fe96  1  0.80955946  0.96736681  0.95316350  1
  Fe  Fe97  1  0.80372036  0.96558152  0.61867201  1
  Fe  Fe98  1  0.31433444  0.96203197  0.28858831  1
  Fe  Fe99  1  0.30378758  0.46707117  0.28409794  1
  Fe  Fe100  1  0.81142821  0.46423742  0.95566049  1
  Fe  Fe101  1  0.81199189  0.96374480  0.28920892  1
  S  S102  1  0.35925047  0.13957584  0.08214377  1
  S  S103  1  0.36451675  0.14253586  0.41579909  1
  S  S104  1  0.36763603  0.13564638  0.74948708  1
  S  S105  1  0.35756369  0.65169578  0.08365756  1
  S  S106  1  0.35822470  0.63692964  0.41716849  1
  S  S107  1  0.36164558  0.63839167  0.74812780  1
  S  S108  1  0.85504799  0.14117359  0.08507766  1
  S  S109  1  0.85931219  0.13811796  0.41736568  1
  S  S110  1  0.85772359  0.14210738  0.74993202  1
  S  S111  1  0.85838551  0.64133380  0.08352600  1
  S  S112  1  0.85461231  0.64264284  0.40934446  1
  S  S113  1  0.85974071  0.64056805  0.75206706  1
  S  S114  1  0.14108918  0.36001752  0.24764796  1
  S  S115  1  0.14416484  0.35737695  0.58871837  1
  S  S116  1  0.13895013  0.35249816  0.91755742  1
  S  S117  1  0.14193527  0.86093506  0.25316933  1
  S  S118  1  0.12892027  0.86794192  0.58541817  1
  S  S119  1  0.14435771  0.85878081  0.92105756  1
  S  S120  1  0.63842598  0.35444977  0.24538027  1
  S  S121  1  0.64086892  0.36055883  0.58244236  1
  S  S122  1  0.64185359  0.35974174  0.91335208  1
  S  S123  1  0.64078364  0.86085525  0.25003111  1
  S  S124  1  0.63599952  0.85970711  0.58346650  1
  S  S125  1  0.64229876  0.86176224  0.91563382  1
  S  S126  1  0.06463372  0.16692454  0.03954341  1
  S  S127  1  0.07227258  0.16567468  0.37651477  1
  S  S128  1  0.06687137  0.16949263  0.70731336  1
  S  S129  1  0.06253423  0.67580190  0.04606373  1
  S  S130  1  0.06594632  0.67270480  0.37599446  1
  S  S131  1  0.06798431  0.66630336  0.70840518  1
  S  S132  1  0.56238897  0.16238129  0.04004368  1
  S  S133  1  0.57255864  0.17117210  0.37702180  1
  S  S134  1  0.57046818  0.17389031  0.71003563  1
  S  S135  1  0.57012297  0.67472276  0.04176616  1
  S  S136  1  0.55725860  0.67061836  0.37506285  1
  S  S137  1  0.56822216  0.67037280  0.71117064  1
  S  S138  1  0.34137620  0.43036153  0.12808991  1
  S  S139  1  0.33658812  0.42970524  0.45741042  1
  S  S140  1  0.33542342  0.43533290  0.78981187  1
  S  S141  1  0.33571019  0.93692934  0.12586698  1
  S  S142  1  0.34162232  0.94175754  0.46109594  1
  S  S143  1  0.32457839  0.92613460  0.79068797  1
  S  S144  1  0.82399668  0.43036664  0.12100779  1
  S  S145  1  0.82726646  0.44069593  0.45627455  1
  S  S146  1  0.83022659  0.43206887  0.79121458  1
  S  S147  1  0.83065610  0.93504409  0.12644309  1
  S  S148  1  0.82608250  0.92471028  0.45505575  1
  S  S149  1  0.83172351  0.93970915  0.79013958  1
  S  S150  1  0.43402814  0.32920763  0.28953126  1
  S  S151  1  0.43820634  0.33192456  0.62419930  1
  S  S152  1  0.43437802  0.31958651  0.94974588  1
  S  S153  1  0.43468761  0.82794044  0.28869227  1
  S  S154  1  0.42994098  0.82438195  0.62259784  1
  S  S155  1  0.43652872  0.83212156  0.95668178  1
  S  S156  1  0.92417681  0.33773319  0.29085990  1
  S  S157  1  0.93062351  0.32654443  0.62519739  1
  S  S158  1  0.93210977  0.32929533  0.95992189  1
  S  S159  1  0.92957109  0.82660104  0.29002204  1
  S  S160  1  0.92454792  0.83132041  0.61864421  1
  S  S161  1  0.93552570  0.83353291  0.96249708  1
  S  S162  1  0.17604887  0.06157605  0.21307321  1
  S  S163  1  0.17229422  0.07724749  0.54566006  1
  S  S164  1  0.16817710  0.06242138  0.87514575  1
  S  S165  1  0.16746470  0.56294344  0.20962868  1
  S  S166  1  0.17014366  0.55955221  0.54316628  1
  S  S167  1  0.16422320  0.57390437  0.87389212  1
  S  S168  1  0.66870580  0.06627299  0.21067783  1
  S  S169  1  0.67122811  0.06786369  0.54475535  1
  S  S170  1  0.67248785  0.06595033  0.87599775  1
  S  S171  1  0.66647819  0.56475979  0.20357924  1
  S  S172  1  0.66258957  0.56601499  0.54269316  1
  S  S173  1  0.67093155  0.56986396  0.87609934  1
  O  O174  1  0.36883415  0.21760814  0.07352125  1
  O  O175  1  0.37302159  0.21955333  0.40249628  1
  O  O176  1  0.37420307  0.21756305  0.74536565  1
  O  O177  1  0.37400346  0.73345772  0.08107631  1
  O  O178  1  0.36563468  0.71566525  0.41065061  1
  O  O179  1  0.36976290  0.71825904  0.74257778  1
  O  O180  1  0.86490882  0.21976567  0.07772912  1
  O  O181  1  0.86059555  0.21430696  0.40610239  1
  O  O182  1  0.86838103  0.22203200  0.74438983  1
  O  O183  1  0.86629077  0.72121310  0.07685541  1
  O  O184  1  0.87533201  0.71865709  0.39586151  1
  O  O185  1  0.86276825  0.71723882  0.74269220  1
  O  O186  1  0.28071181  0.13090602  0.09138500  1
  O  O187  1  0.28455267  0.13518410  0.42211947  1
  O  O188  1  0.29033223  0.12483908  0.76092611  1
  O  O189  1  0.28308599  0.64891236  0.09789739  1
  O  O190  1  0.28292542  0.62220275  0.42858860  1
  O  O191  1  0.28459710  0.62720679  0.75853859  1
  O  O192  1  0.77246774  0.13024334  0.08572779  1
  O  O193  1  0.78362784  0.12358163  0.43203999  1
  O  O194  1  0.77861054  0.13408087  0.75812534  1
  O  O195  1  0.77953607  0.63162818  0.09216641  1
  O  O196  1  0.77543588  0.64690987  0.41404128  1
  O  O197  1  0.78247910  0.62590031  0.76364799  1
  O  O198  1  0.13585092  0.28142996  0.25298008  1
  O  O199  1  0.13139113  0.27672737  0.59556063  1
  O  O200  1  0.12427208  0.27002140  0.91911350  1
  O  O201  1  0.13100622  0.77885836  0.25171873  1
  O  O202  1  0.11723385  0.79617425  0.60227788  1
  O  O203  1  0.12998872  0.78019054  0.92929264  1
  O  O204  1  0.63284210  0.27437841  0.25316486  1
  O  O205  1  0.63248495  0.28230664  0.59212373  1
  O  O206  1  0.63706056  0.27998511  0.92003005  1
  O  O207  1  0.63313714  0.78100558  0.25624441  1
  O  O208  1  0.62927457  0.78144244  0.59475650  1
  O  O209  1  0.63344903  0.78247155  0.92317852  1
  O  O210  1  0.21872553  0.37370559  0.23518964  1
  O  O211  1  0.22645909  0.36153286  0.58479857  1
  O  O212  1  0.21470822  0.35960433  0.90700751  1
  O  O213  1  0.21752397  0.86970450  0.23817835  1
  O  O214  1  0.20300837  0.87659258  0.57229540  1
  O  O215  1  0.22733173  0.86413711  0.92123806  1
  O  O216  1  0.72023944  0.36794814  0.24420319  1
  O  O217  1  0.72035599  0.36998282  0.57605369  1
  O  O218  1  0.72008175  0.37311538  0.90422087  1
  O  O219  1  0.71839467  0.87131048  0.23984367  1
  O  O220  1  0.71507670  0.86775474  0.57471092  1
  O  O221  1  0.72097254  0.86972861  0.90609374  1
  O  O222  1  0.41891282  0.13097335  0.15040045  1
  O  O223  1  0.42148132  0.14166478  0.48761471  1
  O  O224  1  0.42808566  0.12627246  0.81708267  1
  O  O225  1  0.42043872  0.63590661  0.14678309  1
  O  O226  1  0.42161690  0.62600520  0.48288663  1
  O  O227  1  0.42352509  0.63006757  0.81560037  1
  O  O228  1  0.90937025  0.13154251  0.15301412  1
  O  O229  1  0.92225879  0.13393733  0.48523507  1
  O  O230  1  0.91649450  0.13229025  0.81724635  1
  O  O231  1  0.91849729  0.63176328  0.14971517  1
  O  O232  1  0.91130730  0.63074252  0.47443779  1
  O  O233  1  0.92074000  0.63615364  0.82155741  1
  O  O234  1  0.36705654  0.07923538  0.01448702  1
  O  O235  1  0.37564203  0.08129724  0.35116952  1
  O  O236  1  0.37470347  0.08115054  0.68079547  1
  O  O237  1  0.35831382  0.59702165  0.01202734  1
  O  O238  1  0.36769743  0.57865949  0.34817982  1
  O  O239  1  0.37079713  0.58066958  0.67985227  1
  O  O240  1  0.86666442  0.08211935  0.01729662  1
  O  O241  1  0.86547788  0.07685749  0.34956494  1
  O  O242  1  0.86406001  0.08422055  0.68060501  1
  O  O243  1  0.86369348  0.58332846  0.01356006  1
  O  O244  1  0.85650833  0.58005910  0.33917848  1
  O  O245  1  0.86988138  0.57887291  0.68617578  1
  O  O246  1  0.07989710  0.36890864  0.18078128  1
  O  O247  1  0.08933747  0.36705371  0.52233241  1
  O  O248  1  0.07728876  0.36606001  0.85141435  1
  O  O249  1  0.07862541  0.87823200  0.19196487  1
  O  O250  1  0.06433911  0.87253197  0.51492699  1
  O  O251  1  0.09114199  0.86959851  0.85326175  1
  O  O252  1  0.58462363  0.35609739  0.17174731  1
  O  O253  1  0.58261982  0.36732516  0.51348880  1
  O  O254  1  0.58192847  0.36700768  0.84547512  1
  O  O255  1  0.58066614  0.87081208  0.18313946  1
  O  O256  1  0.57689327  0.86482780  0.51508348  1
  O  O257  1  0.58203016  0.87159040  0.84951548  1
  O  O258  1  0.13708901  0.41840471  0.31801938  1
  O  O259  1  0.13986077  0.41391917  0.66005948  1
  O  O260  1  0.13114063  0.40714811  0.98660147  1
  O  O261  1  0.14095853  0.91527142  0.32637848  1
  O  O262  1  0.11745808  0.93561872  0.64786199  1
  O  O263  1  0.13484283  0.91835115  0.98927164  1
  O  O264  1  0.62073456  0.41175491  0.30696786  1
  O  O265  1  0.63029639  0.42049862  0.64922067  1
  O  O266  1  0.63349814  0.41722362  0.98155548  1
  O  O267  1  0.63206598  0.91903763  0.31853085  1
  O  O268  1  0.62899337  0.92005815  0.65109986  1
  O  O269  1  0.63718858  0.91970923  0.98573738  1
  O  O270  1  0.02487654  0.19357769  0.09678762  1
  O  O271  1  0.03955382  0.19163544  0.43963155  1
  O  O272  1  0.02507200  0.19777148  0.76482926  1
  O  O273  1  0.02325104  0.71070541  0.10484555  1
  O  O274  1  0.03242602  0.70982504  0.43778660  1
  O  O275  1  0.03686788  0.69524184  0.77363028  1
  O  O276  1  0.52615093  0.19287226  0.10110482  1
  O  O277  1  0.53651223  0.20134350  0.43824252  1
  O  O278  1  0.53519057  0.20452716  0.77113938  1
  O  O279  1  0.53589933  0.70548209  0.10429169  1
  O  O280  1  0.52295895  0.70744793  0.43692349  1
  O  O281  1  0.53392008  0.70333336  0.77352518  1
  O  O282  1  0.32519578  0.46200024  0.06649458  1
  O  O283  1  0.30545245  0.46247416  0.39525634  1
  O  O284  1  0.30662939  0.47037791  0.72632425  1
  O  O285  1  0.30481556  0.97445660  0.06593425  1
  O  O286  1  0.30442389  0.97002519  0.39286093  1
  O  O287  1  0.29321851  0.95965100  0.73026574  1
  O  O288  1  0.79556908  0.47180244  0.06227777  1
  O  O289  1  0.79025872  0.47500671  0.39517404  1
  O  O290  1  0.79912186  0.46694622  0.72901447  1
  O  O291  1  0.80128725  0.96974218  0.06406763  1
  O  O292  1  0.79753439  0.95978707  0.39253733  1
  O  O293  1  0.79241298  0.97430538  0.72866557  1
  O  O294  1  0.47089353  0.29853492  0.22870759  1
  O  O295  1  0.47413738  0.30298736  0.56253843  1
  O  O296  1  0.47817258  0.28751896  0.89358208  1
  O  O297  1  0.47586757  0.79972036  0.23065435  1
  O  O298  1  0.46682818  0.79137490  0.56077317  1
  O  O299  1  0.47316435  0.80309192  0.89553979  1
  O  O300  1  0.95536592  0.32330769  0.22737119  1
  O  O301  1  0.96715944  0.29546022  0.56612699  1
  O  O302  1  0.96701272  0.30004966  0.89814660  1
  O  O303  1  0.97068569  0.79601821  0.23239273  1
  O  O304  1  0.94533636  0.80247295  0.54823371  1
  O  O305  1  0.97283402  0.80282212  0.90371295  1
  O  O306  1  0.21414346  0.02743513  0.27456212  1
  O  O307  1  0.19382263  0.04918596  0.61080575  1
  O  O308  1  0.19783865  0.02485009  0.93610997  1
  O  O309  1  0.20093941  0.53506051  0.27737961  1
  O  O310  1  0.20650354  0.52132506  0.60371718  1
  O  O311  1  0.18152239  0.54309589  0.93610676  1
  O  O312  1  0.69852793  0.03058749  0.27197110  1
  O  O313  1  0.70106850  0.02973275  0.60507154  1
  O  O314  1  0.70283418  0.02883202  0.93653665  1
  O  O315  1  0.69449704  0.52496054  0.26079061  1
  O  O316  1  0.69920579  0.53540506  0.60819473  1
  O  O317  1  0.69923334  0.53353537  0.93682120  1
  O  O318  1  0.08257145  0.08374849  0.03494075  1
  O  O319  1  0.10390479  0.08818150  0.37432935  1
  O  O320  1  0.08234769  0.08719982  0.70271905  1
  O  O321  1  0.07250082  0.59530772  0.04463806  1
  O  O322  1  0.08202982  0.59290145  0.37988421  1
  O  O323  1  0.08677153  0.58350562  0.70199157  1
  O  O324  1  0.57953542  0.07992714  0.03683189  1
  O  O325  1  0.59167001  0.09009302  0.37253935  1
  O  O326  1  0.58793714  0.09219970  0.70579117  1
  O  O327  1  0.58963846  0.59478355  0.03734350  1
  O  O328  1  0.56841943  0.58963075  0.37304089  1
  O  O329  1  0.58489344  0.58842854  0.70796225  1
  O  O330  1  0.42657279  0.41350273  0.14890947  1
  O  O331  1  0.42119404  0.41683213  0.46425594  1
  O  O332  1  0.41637760  0.41347816  0.78975002  1
  O  O333  1  0.41857798  0.92151213  0.12916299  1
  O  O334  1  0.42056538  0.91905876  0.45885652  1
  O  O335  1  0.40663196  0.90744460  0.79553824  1
  O  O336  1  0.90417146  0.41202483  0.12282189  1
  O  O337  1  0.90839586  0.43049902  0.46366007  1
  O  O338  1  0.91193344  0.41587758  0.79742398  1
  O  O339  1  0.91343704  0.91930758  0.13462237  1
  O  O340  1  0.90611067  0.90264529  0.45935208  1
  O  O341  1  0.91280620  0.93138734  0.79227649  1
  O  O342  1  0.41693908  0.41114884  0.29730578  1
  O  O343  1  0.42257620  0.41514767  0.63083660  1
  O  O344  1  0.41423712  0.39528176  0.94461899  1
  O  O345  1  0.41790027  0.90945332  0.28978971  1
  O  O346  1  0.40851323  0.90110664  0.62262032  1
  O  O347  1  0.41762907  0.91384145  0.96201216  1
  O  O348  1  0.89716337  0.41889077  0.30594596  1
  O  O349  1  0.90823608  0.40640421  0.62683421  1
  O  O350  1  0.91748273  0.41299992  0.96848306  1
  O  O351  1  0.91606078  0.90868136  0.29284224  1
  O  O352  1  0.90300388  0.91403731  0.62696471  1
  O  O353  1  0.91731635  0.91519255  0.96363981  1
  O  O354  1  0.09455228  0.06921421  0.20976441  1
  O  O355  1  0.08937681  0.09638287  0.53175562  1
  O  O356  1  0.08447056  0.07549297  0.86748911  1
  O  O357  1  0.08898416  0.58979517  0.21041324  1
  O  O358  1  0.08978157  0.56934372  0.53891532  1
  O  O359  1  0.07954869  0.59353211  0.85715015  1
  O  O360  1  0.58518201  0.08139365  0.20449193  1
  O  O361  1  0.59223263  0.08913045  0.54303064  1
  O  O362  1  0.59263155  0.08681193  0.87648495  1
  O  O363  1  0.58659091  0.58656020  0.20373158  1
  O  O364  1  0.58214915  0.58674329  0.54627149  1
  O  O365  1  0.59001276  0.59031965  0.87022636  1
  O  O366  1  0.13720466  0.21757503  0.05763279  1
  O  O367  1  0.13790526  0.22516799  0.39062259  1
  O  O368  1  0.13852492  0.22125207  0.72780663  1
  O  O369  1  0.13681357  0.72635377  0.06709501  1
  O  O370  1  0.13558527  0.72013575  0.38331328  1
  O  O371  1  0.14193111  0.71565594  0.72585977  1
  O  O372  1  0.63259014  0.21343155  0.05394342  1
  O  O373  1  0.64212784  0.22398135  0.39085201  1
  O  O374  1  0.64204333  0.22488650  0.72478106  1
  O  O375  1  0.64076288  0.72813395  0.05655204  1
  O  O376  1  0.63058239  0.71972368  0.39004465  1
  O  O377  1  0.64005470  0.72062928  0.72548440  1
  O  O378  1  0.28979588  0.35715685  0.10961136  1
  O  O379  1  0.28993420  0.35685145  0.44544806  1
  O  O380  1  0.28415933  0.36379668  0.77282264  1
  O  O381  1  0.28491423  0.86595060  0.11047539  1
  O  O382  1  0.29175985  0.87481251  0.45487158  1
  O  O383  1  0.27453503  0.85580838  0.78090686  1
  O  O384  1  0.76940670  0.36038542  0.10077406  1
  O  O385  1  0.77796319  0.36591447  0.43997486  1
  O  O386  1  0.77863177  0.36016966  0.77490318  1
  O  O387  1  0.77974447  0.86242747  0.10912432  1
  O  O388  1  0.77069925  0.85648432  0.44054779  1
  O  O389  1  0.78432407  0.86511120  0.77470123  1
  O  O390  1  0.36253446  0.27713210  0.27259735  1
  O  O391  1  0.36638397  0.28118312  0.60725122  1
  O  O392  1  0.36708764  0.26319445  0.93375950  1
  O  O393  1  0.36293448  0.77681022  0.26953734  1
  O  O394  1  0.36401797  0.76874004  0.61189580  1
  O  O395  1  0.36709884  0.77884230  0.94110322  1
  O  O396  1  0.85449769  0.27904092  0.26789576  1
  O  O397  1  0.85958566  0.27332225  0.61031611  1
  O  O398  1  0.85989496  0.27916019  0.94312584  1
  O  O399  1  0.85565114  0.77676909  0.26864466  1
  O  O400  1  0.85577779  0.77895463  0.60966477  1
  O  O401  1  0.86258950  0.78305360  0.94657889  1
  O  O402  1  0.22239283  0.13665753  0.22805583  1
  O  O403  1  0.22593966  0.14784094  0.56067867  1
  O  O404  1  0.21835078  0.13488571  0.89430229  1
  O  O405  1  0.22216154  0.62756910  0.21705084  1
  O  O406  1  0.22024802  0.63281974  0.56217664  1
  O  O407  1  0.21753864  0.64496401  0.88935214  1
  O  O408  1  0.71865773  0.13753530  0.22510918  1
  O  O409  1  0.72588645  0.13702756  0.56068504  1
  O  O410  1  0.72475823  0.13487160  0.88885282  1
  O  O411  1  0.71975601  0.63578324  0.22023152  1
  O  O412  1  0.71225827  0.63691514  0.55354146  1
  O  O413  1  0.72455355  0.63979013  0.89150094  1
  O  O414  1  0.49161744  0.32666525  0.02600825  1
  O  O415  1  0.49399832  0.32943621  0.36142191  1
  O  O416  1  0.49694285  0.33270763  0.69620645  1
  O  O417  1  0.49721860  0.83730661  0.02976954  1
  O  O418  1  0.49064939  0.83101567  0.36243380  1
  O  O419  1  0.49360851  0.82969326  0.69553832  1
  O  O420  1  0.99076685  0.32952521  0.03236213  1
  O  O421  1  0.98374819  0.33485906  0.35813000  1
  O  O422  1  0.98903767  0.33410815  0.69997971  1
  O  O423  1  0.99180449  0.83948927  0.03764668  1
  O  O424  1  0.98346325  0.82632619  0.36390366  1
  O  O425  1  0.99079851  0.83784622  0.68517487  1
  O  O426  1  0.17799057  0.00563542  0.13964483  1
  O  O427  1  0.17714045  0.01389676  0.47870390  1
  O  O428  1  0.16795358  0.00482379  0.80256050  1
  O  O429  1  0.15340258  0.49632102  0.14106087  1
  O  O430  1  0.17480314  0.50325299  0.47055991  1
  O  O431  1  0.16715265  0.51302201  0.80332014  1
  O  O432  1  0.66550962  0.00640253  0.13762659  1
  O  O433  1  0.66702991  0.00783843  0.47191028  1
  O  O434  1  0.66434479  0.00570857  0.80227666  1
  O  O435  1  0.65950062  0.50797797  0.12836675  1
  O  O436  1  0.65059365  0.50378916  0.47206713  1
  O  O437  1  0.66731169  0.50922117  0.80347616  1
  O  O438  1  0.01014985  0.15314255  0.30525238  1
  O  O439  1  0.01086722  0.16743238  0.63235603  1
  O  O440  1  0.00837751  0.16271874  0.96452643  1
  O  O441  1  0.00356429  0.66385812  0.30227219  1
  O  O442  1  0.00844826  0.66769528  0.64071289  1
  O  O443  1  0.01041561  0.67717803  0.97073394  1
  O  O444  1  0.51090121  0.16613140  0.30427040  1
  O  O445  1  0.51064694  0.17009825  0.63725171  1
  O  O446  1  0.50286952  0.15596958  0.96629131  1
  O  O447  1  0.50064999  0.66948155  0.30101893  1
  O  O448  1  0.50730646  0.66650039  0.63956855  1
  O  O449  1  0.50951903  0.67339752  0.97025765  1
  O  O450  1  0.33361466  0.48954781  0.19751966  1
  O  O451  1  0.33960075  0.48930690  0.53049729  1
  O  O452  1  0.34061420  0.49491068  0.86010005  1
  O  O453  1  0.34158566  0.99535842  0.20022526  1
  O  O454  1  0.35247500  1.00983182  0.52799208  1
  O  O455  1  0.33311481  0.98840568  0.86533982  1
  O  O456  1  0.82484818  0.48706746  0.19452459  1
  O  O457  1  0.82116061  0.49750251  0.52830221  1
  O  O458  1  0.82991195  0.49105234  0.86316756  1
  O  O459  1  0.82985238  0.99375541  0.19782482  1
  O  O460  1  0.82969078  0.98760782  0.52581068  1
  O  O461  1  0.83071298  0.99616039  0.86356347  1
