# generated using pymatgen
data_Na31Fe20(SO4)36
_symmetry_space_group_name_H-M   'P 1'
_cell_length_a   18.08880670
_cell_length_b   18.08602031
_cell_length_c   19.72293618
_cell_angle_alpha   107.58633155
_cell_angle_beta   107.56548110
_cell_angle_gamma   90.74398425
_symmetry_Int_Tables_number   1
_chemical_formula_structural   Na31Fe20(SO4)36
_chemical_formula_sum   'Na62 Fe40 S72 O288'
_cell_volume   5825.43035036
_cell_formula_units_Z   2
loop_
 _symmetry_equiv_pos_site_id
 _symmetry_equiv_pos_as_xyz
  1  'x, y, z'
loop_
 _atom_site_type_symbol
 _atom_site_label
 _atom_site_symmetry_multiplicity
 _atom_site_fract_x
 _atom_site_fract_y
 _atom_site_fract_z
 _atom_site_occupancy
  Na  Na0  1  0.13671713  0.37028908  0.09140868  1
  Na  Na1  1  0.13886865  0.36429474  0.42362489  1
  Na  Na2  1  0.13562959  0.35590239  0.75082504  1
  Na  Na3  1  0.13595514  0.86822851  0.08589441  1
  Na  Na4  1  0.13741498  0.86363392  0.41387714  1
  Na  Na5  1  0.13327163  0.86937596  0.75224110  1
  Na  Na6  1  0.63092862  0.34409423  0.06102716  1
  Na  Na7  1  0.62219595  0.36531212  0.41035757  1
  Na  Na8  1  0.64352710  0.35996135  0.74294998  1
  Na  Na9  1  0.63525638  0.86833955  0.08571961  1
  Na  Na10  1  0.64584442  0.87920820  0.43263338  1
  Na  Na11  1  0.63073687  0.85786547  0.74539955  1
  Na  Na12  1  0.37777811  0.13914139  0.27006223  1
  Na  Na13  1  0.36471095  0.15022844  0.58286812  1
  Na  Na14  1  0.36125146  0.14482905  0.91032710  1
  Na  Na15  1  0.36777380  0.62918123  0.25217356  1
  Na  Na16  1  0.36712359  0.62778677  0.57964665  1
  Na  Na17  1  0.36577607  0.63463055  0.91885229  1
  Na  Na18  1  0.86359505  0.13817567  0.25412641  1
  Na  Na19  1  0.86941705  0.13382293  0.59535986  1
  Na  Na20  1  0.86277945  0.13758091  0.92105664  1
  Na  Na21  1  0.87071857  0.63530903  0.25400891  1
  Na  Na22  1  0.87058971  0.62830239  0.58250227  1
  Na  Na23  1  0.86324482  0.63083504  0.90460831  1
  Na  Na24  1  0.96169534  0.00835574  0.75596226  1
  Na  Na25  1  0.52069951  0.48818465  0.74987047  1
  Na  Na26  1  0.98673102  0.50498253  0.08643058  1
  Na  Na27  1  0.42717766  0.48201724  0.37317764  1
  Na  Na28  1  0.99551200  0.01988154  0.06300193  1
  Na  Na29  1  0.49798683  0.04311298  0.74211182  1
  Na  Na30  1  0.98063056  0.01482102  0.41888069  1
  Na  Na31  1  0.48327780  0.01390457  0.08758192  1
  Na  Na32  1  0.99835435  0.49289061  0.73954966  1
  Na  Na33  1  -0.00859357  1.00159516  0.59038855  1
  Na  Na34  1  0.00689888  0.44878692  0.90453331  1
  Na  Na35  1  0.50938237  0.47537823  0.92936334  1
  Na  Na36  1  0.50885394  0.42944290  0.56320347  1
  Na  Na37  1  0.01047987  0.48156882  0.27139884  1
  Na  Na38  1  0.48626765  1.04421954  0.52196209  1
  Na  Na39  1  0.49178212  1.02067429  0.90243745  1
  Na  Na40  1  0.00674383  0.99415308  0.24648034  1
  Na  Na41  1  0.53610496  0.98934765  0.30319086  1
  Na  Na42  1  0.74869064  0.75532551  0.33902903  1
  Na  Na43  1  0.26140362  0.26466427  -0.01290279  1
  Na  Na44  1  0.25280642  0.25078111  0.67101734  1
  Na  Na45  1  0.75460162  0.75245278  0.66219548  1
  Na  Na46  1  0.25308365  0.75241750  0.66389576  1
  Na  Na47  1  0.25419897  0.25587025  0.33729524  1
  Na  Na48  1  0.75905672  0.25303551  0.66997942  1
  Na  Na49  1  0.73962185  0.23982503  0.34172567  1
  Na  Na50  1  0.24260525  0.74415416  0.00729035  1
  Na  Na51  1  0.74711209  0.74494631  -0.00105761  1
  Na  Na52  1  0.74689904  0.74580086  0.17108430  1
  Na  Na53  1  0.73449994  0.23551467  0.84554073  1
  Na  Na54  1  0.25869218  0.75752249  0.49217424  1
  Na  Na55  1  0.69918023  0.19414598  0.48880461  1
  Na  Na56  1  0.24974021  0.75195637  0.83500176  1
  Na  Na57  1  0.74710549  0.25026836  0.15708162  1
  Na  Na58  1  0.26744568  0.27578778  0.16767042  1
  Na  Na59  1  0.75885265  0.75714225  0.50170891  1
  Na  Na60  1  0.74330079  0.73934008  0.82886511  1
  Na  Na61  1  0.24168436  0.74034012  0.18456330  1
  Fe  Fe62  1  0.96120200  0.30669212  0.11945219  1
  Fe  Fe63  1  0.46603741  0.31436172  0.12115755  1
  Fe  Fe64  1  0.96097102  0.31636419  0.45890362  1
  Fe  Fe65  1  0.47727595  0.29338355  0.78925694  1
  Fe  Fe66  1  0.46360914  0.81068740  0.12086124  1
  Fe  Fe67  1  0.96975907  0.80493149  0.45276943  1
  Fe  Fe68  1  0.46553808  0.81122636  0.45417983  1
  Fe  Fe69  1  0.96742483  0.80796195  0.78497293  1
  Fe  Fe70  1  0.96585196  0.80518432  0.11747915  1
  Fe  Fe71  1  0.46411392  0.80785762  0.78598536  1
  Fe  Fe72  1  0.69931767  0.02744033  0.70919990  1
  Fe  Fe73  1  0.19435128  0.53295559  0.05006626  1
  Fe  Fe74  1  0.68499511  0.03634908  0.03932691  1
  Fe  Fe75  1  0.18985629  0.03651936  0.71469188  1
  Fe  Fe76  1  0.69644338  0.53510554  0.04856154  1
  Fe  Fe77  1  0.18953762  0.03494713  0.38225004  1
  Fe  Fe78  1  0.68916255  0.53447152  0.37605593  1
  Fe  Fe79  1  0.19006993  0.04093559  0.04739475  1
  Fe  Fe80  1  0.19291379  0.53256131  0.71282085  1
  Fe  Fe81  1  0.19919152  0.53447852  0.38086748  1
  Fe  Fe82  1  0.03750122  0.69487633  0.21691558  1
  Fe  Fe83  1  0.53470987  0.69026719  0.21150088  1
  Fe  Fe84  1  0.03082147  0.20103152  0.87878419  1
  Fe  Fe85  1  0.03203086  0.19863514  0.55181463  1
  Fe  Fe86  1  0.03706872  0.69269976  0.87948436  1
  Fe  Fe87  1  0.03576551  0.68822493  0.54654343  1
  Fe  Fe88  1  0.53404477  0.68743160  0.54648119  1
  Fe  Fe89  1  0.53356877  0.68807424  0.87622709  1
  Fe  Fe90  1  0.03177799  0.19378127  0.21832258  1
  Fe  Fe91  1  0.53839869  0.19171986  0.21523595  1
  Fe  Fe92  1  0.30111201  0.96920619  0.95142136  1
  Fe  Fe93  1  0.30464637  0.96837287  0.61691794  1
  Fe  Fe94  1  0.79976331  0.97131552  0.28847270  1
  Fe  Fe95  1  0.80119749  0.46819660  0.62206494  1
  Fe  Fe96  1  0.80722393  0.46760835  0.94479762  1
  Fe  Fe97  1  0.80906868  0.46624144  0.28919018  1
  Fe  Fe98  1  0.30896284  0.46297848  0.62302171  1
  Fe  Fe99  1  0.80539617  0.96053962  0.95233708  1
  Fe  Fe100  1  0.31359669  0.46391083  0.95736551  1
  Fe  Fe101  1  0.31091842  0.96291450  0.28935053  1
  S  S102  1  0.35568556  0.14193672  0.08009363  1
  S  S103  1  0.35183540  0.13644606  0.41625771  1
  S  S104  1  0.35819549  0.13604901  0.74946334  1
  S  S105  1  0.35838926  0.64431401  0.08475240  1
  S  S106  1  0.36085369  0.64690291  0.41701616  1
  S  S107  1  0.35632222  0.64338960  0.75336053  1
  S  S108  1  0.85991668  0.13723192  0.08307592  1
  S  S109  1  0.86154022  0.14326719  0.41591053  1
  S  S110  1  0.85964660  0.13899350  0.75833326  1
  S  S111  1  0.86213971  0.64025271  0.08378713  1
  S  S112  1  0.86019659  0.64123033  0.41527175  1
  S  S113  1  0.86477719  0.64136322  0.74608948  1
  S  S114  1  0.13543126  0.36017885  0.25383875  1
  S  S115  1  0.13899785  0.36079119  0.58576577  1
  S  S116  1  0.14395084  0.36059632  0.91860845  1
  S  S117  1  0.13879632  0.86249402  0.24786981  1
  S  S118  1  0.14249042  0.85813546  0.58381068  1
  S  S119  1  0.13931995  0.86243627  0.92032035  1
  S  S120  1  0.64425717  0.35878972  0.24388575  1
  S  S121  1  0.64916355  0.35339995  0.57980341  1
  S  S122  1  0.64487572  0.36293001  0.91692936  1
  S  S123  1  0.64060109  0.85507584  0.24648991  1
  S  S124  1  0.63710865  0.85533877  0.58636769  1
  S  S125  1  0.63956887  0.85559671  0.91648374  1
  S  S126  1  0.06980658  0.17849244  0.04750394  1
  S  S127  1  0.06541058  0.16620196  0.37558434  1
  S  S128  1  0.06857198  0.16842137  0.70974747  1
  S  S129  1  0.06723893  0.66887301  0.04210397  1
  S  S130  1  0.06971094  0.67014438  0.37710980  1
  S  S131  1  0.07240179  0.67142168  0.71128216  1
  S  S132  1  0.55857893  0.16163299  0.03903773  1
  S  S133  1  0.56335812  0.17080759  0.36773642  1
  S  S134  1  0.57393518  0.16586338  0.70648306  1
  S  S135  1  0.56723349  0.67090506  0.04162770  1
  S  S136  1  0.57202552  0.67830069  0.37795238  1
  S  S137  1  0.55747775  0.66440388  0.70895258  1
  S  S138  1  0.32827334  0.43713043  0.12239272  1
  S  S139  1  0.32837862  0.43703229  0.45983547  1
  S  S140  1  0.33211958  0.43581738  0.79471801  1
  S  S141  1  0.32737830  0.93513916  0.12258439  1
  S  S142  1  0.32632927  0.93093787  0.45750170  1
  S  S143  1  0.32691559  0.93274577  0.79050728  1
  S  S144  1  0.83245000  0.43501911  0.12760755  1
  S  S145  1  0.82232302  0.43215094  0.45430214  1
  S  S146  1  0.83563345  0.44184049  0.78721438  1
  S  S147  1  0.83104866  0.92984340  0.12431335  1
  S  S148  1  0.84508491  0.93325994  0.45891553  1
  S  S149  1  0.82766326  0.92570491  0.79222025  1
  S  S150  1  0.43109039  0.32388607  0.27754501  1
  S  S151  1  0.42951988  0.33278379  0.63449647  1
  S  S152  1  0.43420907  0.33146173  0.95646890  1
  S  S153  1  0.43563288  0.82978444  0.28968328  1
  S  S154  1  0.42927105  0.83477392  0.62761594  1
  S  S155  1  0.43115371  0.83460293  0.95850119  1
  S  S156  1  0.92804213  0.32735851  0.29075186  1
  S  S157  1  0.93190124  0.33293593  0.62669349  1
  S  S158  1  0.93353039  0.33355734  0.96087437  1
  S  S159  1  0.93678276  0.83147607  0.28984606  1
  S  S160  1  0.94221542  0.83142475  0.62506500  1
  S  S161  1  0.93190508  0.82714515  0.95732169  1
  S  S162  1  0.16129450  0.06810763  0.20724560  1
  S  S163  1  0.16370072  0.06476475  0.54273910  1
  S  S164  1  0.16621742  0.06974519  0.87616301  1
  S  S165  1  0.16439805  0.56845765  0.20850317  1
  S  S166  1  0.17519150  0.57006645  0.54551312  1
  S  S167  1  0.16937426  0.56754470  0.87656381  1
  S  S168  1  0.67303689  0.06561234  0.20277347  1
  S  S169  1  0.68164442  0.06314714  0.55075138  1
  S  S170  1  0.66996609  0.05792654  0.87239849  1
  S  S171  1  0.67668741  0.57270853  0.21194071  1
  S  S172  1  0.67533993  0.57080536  0.54116847  1
  S  S173  1  0.66999334  0.56644423  0.87637478  1
  O  O174  1  0.36672891  0.22146068  0.07429262  1
  O  O175  1  0.35670440  0.20923203  0.40014198  1
  O  O176  1  0.37253358  0.21664121  0.74774264  1
  O  O177  1  0.36843814  0.72379786  0.07654151  1
  O  O178  1  0.37095867  0.72779706  0.41371816  1
  O  O179  1  0.36331526  0.72457419  0.74907441  1
  O  O180  1  0.86968784  0.21555109  0.07520707  1
  O  O181  1  0.87636892  0.21874523  0.40223329  1
  O  O182  1  0.86002950  0.21743375  0.75350558  1
  O  O183  1  0.87015264  0.71907739  0.07497470  1
  O  O184  1  0.87182996  0.71895309  0.40421637  1
  O  O185  1  0.87944587  0.71623755  0.73090609  1
  O  O186  1  0.27688596  0.13470372  0.08930706  1
  O  O187  1  0.27225428  0.12322817  0.42428218  1
  O  O188  1  0.27812089  0.12789926  0.75481763  1
  O  O189  1  0.27811396  0.63665844  0.09107835  1
  O  O190  1  0.28197903  0.63717266  0.42526645  1
  O  O191  1  0.27780205  0.63247659  0.76227208  1
  O  O192  1  0.78032756  0.12622106  0.08830687  1
  O  O193  1  0.78372413  0.13748522  0.42158584  1
  O  O194  1  0.78152873  0.11883514  0.76892465  1
  O  O195  1  0.78336981  0.63263307  0.09263324  1
  O  O196  1  0.77960201  0.63559317  0.41993359  1
  O  O197  1  0.78902921  0.63923878  0.75694825  1
  O  O198  1  0.12277332  0.28261995  0.26498798  1
  O  O199  1  0.12888401  0.28294474  0.59676773  1
  O  O200  1  0.13190219  0.28205219  0.92705758  1
  O  O201  1  0.13131087  0.78276408  0.25323883  1
  O  O202  1  0.13396872  0.77875344  0.59086878  1
  O  O203  1  0.13029018  0.78364532  0.92989146  1
  O  O204  1  0.63840660  0.27858324  0.24956609  1
  O  O205  1  0.64899945  0.27255016  0.58067309  1
  O  O206  1  0.63985383  0.28751052  0.92767346  1
  O  O207  1  0.63560753  0.77133804  0.24467402  1
  O  O208  1  0.61966195  0.77992698  0.60010151  1
  O  O209  1  0.62731479  0.77693605  0.92484524  1
  O  O210  1  0.21103645  0.36622516  0.24304526  1
  O  O211  1  0.21735310  0.37007029  0.57837256  1
  O  O212  1  0.22594209  0.36948099  0.91862444  1
  O  O213  1  0.21677254  0.87358947  0.23823854  1
  O  O214  1  0.22280379  0.86836757  0.57862439  1
  O  O215  1  0.21871862  0.86952110  0.91183189  1
  O  O216  1  0.72443578  0.37181244  0.23851675  1
  O  O217  1  0.73291189  0.37348637  0.57919608  1
  O  O218  1  0.72232217  0.37697635  0.90600922  1
  O  O219  1  0.71787226  0.86877990  0.23584930  1
  O  O220  1  0.71382213  0.85479923  0.57659245  1
  O  O221  1  0.71985057  0.86040710  0.91020136  1
  O  O222  1  0.41491616  0.12672158  0.14334046  1
  O  O223  1  0.41038091  0.13134346  0.48380876  1
  O  O224  1  0.41558759  0.11820833  0.81147819  1
  O  O225  1  0.41604078  0.63818549  0.15361923  1
  O  O226  1  0.41947649  0.63835768  0.48633949  1
  O  O227  1  0.41564672  0.63606751  0.82163251  1
  O  O228  1  0.91792821  0.12932332  0.15223630  1
  O  O229  1  0.92177768  0.13495313  0.48397658  1
  O  O230  1  0.92026996  0.13409506  0.82904329  1
  O  O231  1  0.92115473  0.63278678  0.15204744  1
  O  O232  1  0.91634152  0.63651247  0.48582148  1
  O  O233  1  0.92637099  0.63473873  0.81400279  1
  O  O234  1  0.35899753  0.08368246  0.00850089  1
  O  O235  1  0.35890959  0.07174437  0.34849809  1
  O  O236  1  0.36279881  0.08105170  0.67624932  1
  O  O237  1  0.36566984  0.58602826  0.01659976  1
  O  O238  1  0.36972336  0.58952850  0.35066669  1
  O  O239  1  0.36417935  0.58720362  0.68491278  1
  O  O240  1  0.87159590  0.07710497  0.01683400  1
  O  O241  1  0.87114978  0.07985482  0.34946698  1
  O  O242  1  0.87288775  0.08037137  0.69437970  1
  O  O243  1  0.87115312  0.58101272  0.01663168  1
  O  O244  1  0.87025796  0.58037029  0.34963168  1
  O  O245  1  0.87154454  0.57709699  0.67940053  1
  O  O246  1  0.07245675  0.36900784  0.18737675  1
  O  O247  1  0.07964423  0.36531847  0.51651045  1
  O  O248  1  0.08944548  0.36993018  0.85079199  1
  O  O249  1  0.07845654  0.87214617  0.18094846  1
  O  O250  1  0.08574833  0.86531684  0.51449059  1
  O  O251  1  0.08128184  0.86872794  0.85164263  1
  O  O252  1  0.58683574  0.36445991  0.17432855  1
  O  O253  1  0.59513592  0.36419166  0.51212065  1
  O  O254  1  0.58371485  0.37138836  0.84983374  1
  O  O255  1  0.57936853  0.86644696  0.18055085  1
  O  O256  1  0.57769256  0.86539081  0.51950147  1
  O  O257  1  0.58283489  0.86417022  0.84788079  1
  O  O258  1  0.12810876  0.42143409  0.32187665  1
  O  O259  1  0.13094527  0.42119444  0.65324805  1
  O  O260  1  0.13155620  0.41993341  0.98613673  1
  O  O261  1  0.12941271  0.91981850  0.31617926  1
  O  O262  1  0.13272540  0.91655505  0.65121349  1
  O  O263  1  0.13255262  0.92183116  0.98810675  1
  O  O264  1  0.63499839  0.41644741  0.31160252  1
  O  O265  1  0.63448600  0.40643398  0.64667831  1
  O  O266  1  0.63573301  0.42535859  0.98432065  1
  O  O267  1  0.63376423  0.90621063  0.31678887  1
  O  O268  1  0.63371323  0.91793529  0.65538031  1
  O  O269  1  0.63262562  0.91524535  0.98414254  1
  O  O270  1  0.02967582  0.20264136  0.10679831  1
  O  O271  1  0.03543673  0.19832027  0.43994699  1
  O  O272  1  0.03481733  0.19314958  0.77089310  1
  O  O273  1  0.03016673  0.70008099  0.10263298  1
  O  O274  1  0.03130663  0.69807490  0.43714334  1
  O  O275  1  0.04019102  0.70655216  0.77475398  1
  O  O276  1  0.52887018  0.19488690  0.10437543  1
  O  O277  1  0.51866493  0.20297936  0.41667377  1
  O  O278  1  0.54082854  0.19337914  0.76978012  1
  O  O279  1  0.52850100  0.69875496  0.10080736  1
  O  O280  1  0.53421992  0.70505620  0.43833310  1
  O  O281  1  0.52191718  0.70393543  0.77120783  1
  O  O282  1  0.29721048  0.47459924  0.05967141  1
  O  O283  1  0.29890929  0.48026110  0.40470419  1
  O  O284  1  0.30178334  0.47467743  0.73486610  1
  O  O285  1  0.29767791  0.97349928  0.06273832  1
  O  O286  1  0.29095411  0.96000218  0.39232327  1
  O  O287  1  0.29665651  0.96712889  0.72875130  1
  O  O288  1  0.80467384  0.47116780  0.06629939  1
  O  O289  1  0.79586407  0.47599146  0.39802615  1
  O  O290  1  0.80173682  0.47721421  0.72672715  1
  O  O291  1  0.80238339  0.96545928  0.06325967  1
  O  O292  1  0.81687253  0.95510471  0.38959099  1
  O  O293  1  0.79480357  0.96109202  0.73255528  1
  O  O294  1  0.47379034  0.28915961  0.21936637  1
  O  O295  1  0.45821619  0.31067476  0.57116284  1
  O  O296  1  0.47151443  0.30879464  0.89731417  1
  O  O297  1  0.47517852  0.79906017  0.23042841  1
  O  O298  1  0.46225016  0.80619171  0.56514824  1
  O  O299  1  0.46721033  0.80655235  0.89764742  1
  O  O300  1  0.96367467  0.29533187  0.22910662  1
  O  O301  1  0.95977989  0.29978140  0.55836102  1
  O  O302  1  0.97368108  0.30790195  0.90424665  1
  O  O303  1  0.97062209  0.79759871  0.22682966  1
  O  O304  1  0.97645838  0.79411264  0.56276277  1
  O  O305  1  0.96643815  0.79938582  0.89510688  1
  O  O306  1  0.18809288  0.03041580  0.26656237  1
  O  O307  1  0.19389799  0.02569797  0.60203656  1
  O  O308  1  0.19355634  0.02943935  0.93548515  1
  O  O309  1  0.18459618  0.53444724  0.26943043  1
  O  O310  1  0.20372069  0.53186099  0.60570479  1
  O  O311  1  0.19787779  0.53297385  0.93833076  1
  O  O312  1  0.69824194  0.02904552  0.26234465  1
  O  O313  1  0.70210701  0.02532036  0.61305593  1
  O  O314  1  0.70316524  0.02062640  0.93420564  1
  O  O315  1  0.70485129  0.53377074  0.27125938  1
  O  O316  1  0.70906129  0.53295318  0.59924581  1
  O  O317  1  0.70705274  0.54005827  0.94406242  1
  O  O318  1  0.08681313  0.09597038  0.04026537  1
  O  O319  1  0.07899764  0.08203673  0.36933755  1
  O  O320  1  0.08471646  0.08399459  0.69794765  1
  O  O321  1  0.08364042  0.58719603  0.03747113  1
  O  O322  1  0.09077911  0.59011461  0.37261747  1
  O  O323  1  0.09066547  0.59159281  0.71166878  1
  O  O324  1  0.57480002  0.07759522  0.03465118  1
  O  O325  1  0.60029420  0.10149417  0.38050942  1
  O  O326  1  0.60465119  0.08802502  0.71138078  1
  O  O327  1  0.58721660  0.59003105  0.03521215  1
  O  O328  1  0.59427464  0.59917433  0.37353207  1
  O  O329  1  0.56378251  0.58343483  0.70616710  1
  O  O330  1  0.40462487  0.41107939  0.11784234  1
  O  O331  1  0.40775613  0.42122072  0.45965051  1
  O  O332  1  0.41426834  0.42077742  0.80245868  1
  O  O333  1  0.40899499  0.91769342  0.12596275  1
  O  O334  1  0.40766362  0.91474733  0.46030393  1
  O  O335  1  0.40846295  0.91401515  0.79649833  1
  O  O336  1  0.91622418  0.41971118  0.13556399  1
  O  O337  1  0.90238078  0.41363449  0.45724311  1
  O  O338  1  0.91830190  0.43363598  0.79402982  1
  O  O339  1  0.91355452  0.91242858  0.13023845  1
  O  O340  1  0.92808812  0.91076809  0.46454282  1
  O  O341  1  0.90833802  0.90815283  0.79150567  1
  O  O342  1  0.39335409  0.38918630  0.25790606  1
  O  O343  1  0.41348403  0.41842982  0.65000630  1
  O  O344  1  0.41827218  0.41526619  0.96739081  1
  O  O345  1  0.41705496  0.91010441  0.28889322  1
  O  O346  1  0.41106009  0.91693370  0.63627942  1
  O  O347  1  0.41101521  0.91613226  0.96446153  1
  O  O348  1  0.91342480  0.40930071  0.29384638  1
  O  O349  1  0.90006144  0.40956782  0.62340008  1
  O  O350  1  0.91474501  0.41635478  0.96479489  1
  O  O351  1  0.92415289  0.91394345  0.29465252  1
  O  O352  1  0.93456032  0.91353732  0.63104311  1
  O  O353  1  0.91294412  0.90873566  0.96618259  1
  O  O354  1  0.07633291  0.08137815  0.19774979  1
  O  O355  1  0.08127125  0.08097009  0.53773956  1
  O  O356  1  0.08605200  0.09014348  0.87079299  1
  O  O357  1  0.08082708  0.58860400  0.19560966  1
  O  O358  1  0.09663561  0.59301662  0.54446369  1
  O  O359  1  0.08682162  0.58467192  0.86880049  1
  O  O360  1  0.59072106  0.08302906  0.19186184  1
  O  O361  1  0.60448398  0.08934157  0.54202115  1
  O  O362  1  0.58706516  0.06374972  0.86424354  1
  O  O363  1  0.59820378  0.59521490  0.20963543  1
  O  O364  1  0.59714017  0.59194182  0.54445902  1
  O  O365  1  0.58938891  0.58667926  0.87743085  1
  O  O366  1  0.14162770  0.23103365  0.06902855  1
  O  O367  1  0.13538305  0.21357598  0.38346418  1
  O  O368  1  0.13927259  0.21829369  0.72249313  1
  O  O369  1  0.13967139  0.72094371  0.06078193  1
  O  O370  1  0.13763261  0.72548902  0.39307821  1
  O  O371  1  0.14306943  0.72259100  0.72315819  1
  O  O372  1  0.63191531  0.20818919  0.05182327  1
  O  O373  1  0.62673406  0.22881129  0.37217584  1
  O  O374  1  0.64104079  0.22178632  0.71901495  1
  O  O375  1  0.63853340  0.72469298  0.06009951  1
  O  O376  1  0.64121522  0.73449605  0.39478544  1
  O  O377  1  0.63257214  0.71135894  0.72653248  1
  O  O378  1  0.27122763  0.36768862  0.10312820  1
  O  O379  1  0.27422991  0.36675238  0.44051525  1
  O  O380  1  0.27960286  0.36490008  0.77621249  1
  O  O381  1  0.27566200  0.86283697  0.10402152  1
  O  O382  1  0.27687419  0.86189107  0.44971943  1
  O  O383  1  0.27460474  0.86235697  0.77685677  1
  O  O384  1  0.78262884  0.36350427  0.11211038  1
  O  O385  1  0.76758228  0.36221236  0.43231003  1
  O  O386  1  0.78845982  0.36859038  0.77327293  1
  O  O387  1  0.77980804  0.85777817  0.10772673  1
  O  O388  1  0.79399669  0.86449077  0.45174262  1
  O  O389  1  0.77843303  0.85301325  0.77923124  1
  O  O390  1  0.37001791  0.26183969  0.26731530  1
  O  O391  1  0.35901067  0.28419719  0.62592336  1
  O  O392  1  0.36214775  0.28045388  0.93800364  1
  O  O393  1  0.36483475  0.77762794  0.27238250  1
  O  O394  1  0.35868540  0.78224642  0.61367265  1
  O  O395  1  0.36096324  0.78111338  0.94300302  1
  O  O396  1  0.85504172  0.27778244  0.27341729  1
  O  O397  1  0.87134154  0.27607703  0.62275827  1
  O  O398  1  0.86325235  0.28171870  0.94545437  1
  O  O399  1  0.86360585  0.78283598  0.27451368  1
  O  O400  1  0.86788555  0.78438709  0.60933488  1
  O  O401  1  0.86167657  0.77388754  0.94205287  1
  O  O402  1  0.20989078  0.14098496  0.22421991  1
  O  O403  1  0.21464734  0.13617699  0.56058609  1
  O  O404  1  0.22209926  0.13789078  0.89416097  1
  O  O405  1  0.21810246  0.63734203  0.22342967  1
  O  O406  1  0.23055452  0.63943182  0.56206921  1
  O  O407  1  0.22051267  0.64024339  0.89333936  1
  O  O408  1  0.72525745  0.13770396  0.22078880  1
  O  O409  1  0.74151718  0.13169348  0.57577801  1
  O  O410  1  0.71757871  0.13203415  0.89269717  1
  O  O411  1  0.73327483  0.64224634  0.23037727  1
  O  O412  1  0.72818720  0.64166627  0.55488742  1
  O  O413  1  0.71946484  0.63757329  0.88589149  1
  O  O414  1  0.49199181  0.32832684  0.02811648  1
  O  O415  1  0.48968491  0.34912219  0.35184687  1
  O  O416  1  0.49358413  0.33321132  0.70573852  1
  O  O417  1  0.49084646  0.83763722  0.03120893  1
  O  O418  1  0.49294097  0.83619722  0.36391241  1
  O  O419  1  0.49012149  0.83555738  0.69919244  1
  O  O420  1  0.99096548  0.34171933  0.03724472  1
  O  O421  1  0.98629057  0.32823895  0.36268762  1
  O  O422  1  1.00136825  0.35155398  0.69335201  1
  O  O423  1  0.99329165  0.82860123  0.02867850  1
  O  O424  1  0.99632886  0.82964833  0.36034941  1
  O  O425  1  0.99959514  0.82833649  0.69719221  1
  O  O426  1  0.16096441  0.01034608  0.13397612  1
  O  O427  1  0.16124281  0.00573559  0.46968447  1
  O  O428  1  0.16429875  0.00940393  0.80359418  1
  O  O429  1  0.16225986  0.50725725  0.13627394  1
  O  O430  1  0.17041335  0.51168577  0.47237735  1
  O  O431  1  0.16867653  0.50863790  0.80469701  1
  O  O432  1  0.67451423  0.00707247  0.13035951  1
  O  O433  1  0.68553054  0.00464740  0.48266221  1
  O  O434  1  0.67620871  0.00125350  0.80088580  1
  O  O435  1  0.67327255  0.51458093  0.13891882  1
  O  O436  1  0.66583814  0.51347331  0.46547757  1
  O  O437  1  0.66153511  0.50238581  0.80789493  1
  O  O438  1  0.00193897  0.16128066  0.30358895  1
  O  O439  1  0.00704643  0.16742744  0.63771425  1
  O  O440  1  0.01303004  0.17986495  0.97583316  1
  O  O441  1  0.00922923  0.66587437  0.30405134  1
  O  O442  1  0.01147133  0.66646238  0.63938148  1
  O  O443  1  0.00985756  0.66835063  0.96957303  1
  O  O444  1  0.50835692  0.14480548  0.28565688  1
  O  O445  1  0.51086955  0.14988564  0.63517653  1
  O  O446  1  0.49730551  0.15643254  0.96900548  1
  O  O447  1  0.51236666  0.67525179  0.30544220  1
  O  O448  1  0.50187176  0.66969857  0.63748398  1
  O  O449  1  0.50861116  0.67080345  0.96948545  1
  O  O450  1  0.33348562  0.49726052  0.19199689  1
  O  O451  1  0.33324031  0.49097788  0.53705855  1
  O  O452  1  0.33172397  0.49448530  0.86760909  1
  O  O453  1  0.32815130  0.99173386  0.19520265  1
  O  O454  1  0.33103079  0.99540375  0.52797981  1
  O  O455  1  0.33084052  0.99342104  0.86299475  1
  O  O456  1  0.83511646  0.49521026  0.20019493  1
  O  O457  1  0.82456429  0.48796184  0.52904841  1
  O  O458  1  0.83326539  0.49927619  0.86062847  1
  O  O459  1  0.83393751  0.98843553  0.19731215  1
  O  O460  1  0.85518879  0.99957133  0.52632230  1
  O  O461  1  0.83476992  0.98398675  0.86677760  1
