# generated using pymatgen
data_Na31Fe20(SO4)36
_symmetry_space_group_name_H-M   'P 1'
_cell_length_a   18.07803662
_cell_length_b   18.07324585
_cell_length_c   19.71870121
_cell_angle_alpha   107.55463792
_cell_angle_beta   107.56950946
_cell_angle_gamma   90.77926266
_symmetry_Int_Tables_number   1
_chemical_formula_structural   Na31Fe20(SO4)36
_chemical_formula_sum   'Na62 Fe40 S72 O288'
_cell_volume   5817.14661679
_cell_formula_units_Z   2
loop_
 _symmetry_equiv_pos_site_id
 _symmetry_equiv_pos_as_xyz
  1  'x, y, z'
loop_
 _atom_site_type_symbol
 _atom_site_label
 _atom_site_symmetry_multiplicity
 _atom_site_fract_x
 _atom_site_fract_y
 _atom_site_fract_z
 _atom_site_occupancy
  Na  Na0  1  0.13260053  0.36725618  0.08229098  1
  Na  Na1  1  0.13717831  0.38032071  0.41697534  1
  Na  Na2  1  0.14045958  0.36284665  0.75545748  1
  Na  Na3  1  0.12903794  0.85760167  0.07446497  1
  Na  Na4  1  0.12457209  0.83295105  0.40196019  1
  Na  Na5  1  0.13972773  0.86928435  0.76052153  1
  Na  Na6  1  0.63581881  0.37334055  0.08806434  1
  Na  Na7  1  0.63738708  0.36839051  0.41421085  1
  Na  Na8  1  0.63439753  0.36682053  0.75250688  1
  Na  Na9  1  0.63704283  0.86081988  0.07816036  1
  Na  Na10  1  0.63448390  0.85891265  0.41087488  1
  Na  Na11  1  0.63575610  0.87010384  0.75702075  1
  Na  Na12  1  0.36293084  0.13439304  0.24826739  1
  Na  Na13  1  0.36122722  0.13574845  0.58148060  1
  Na  Na14  1  0.37337049  0.14418673  0.91927119  1
  Na  Na15  1  0.36120329  0.63472657  0.24807291  1
  Na  Na16  1  0.36489257  0.63520185  0.57980877  1
  Na  Na17  1  0.35661368  0.67373477  0.94208638  1
  Na  Na18  1  0.86743447  0.13345894  0.24832227  1
  Na  Na19  1  0.86447106  0.13169437  0.58295727  1
  Na  Na20  1  0.86329455  0.12214071  0.91257201  1
  Na  Na21  1  0.87306727  0.62743856  0.25370034  1
  Na  Na22  1  0.85837116  0.62077160  0.56876384  1
  Na  Na23  1  0.87634530  0.62586993  0.91612811  1
  Na  Na24  1  0.48006861  0.51437326  0.75216872  1
  Na  Na25  1  0.48313956  0.52124374  0.08908371  1
  Na  Na26  1  0.99485945  0.51200318  0.74582927  1
  Na  Na27  1  0.49096237  0.51221097  0.41117587  1
  Na  Na28  1  1.00854695  -0.02681961  0.43121974  1
  Na  Na29  1  0.96654071  0.01056196  0.03887576  1
  Na  Na30  1  0.94934932  0.51088832  0.39654299  1
  Na  Na31  1  0.48679241  0.03935848  0.76156037  1
  Na  Na32  1  0.49381618  0.00769802  0.40289062  1
  Na  Na33  1  0.51827846  0.95548337  0.15602642  1
  Na  Na34  1  0.00849613  0.96122821  0.59373966  1
  Na  Na35  1  0.02741054  0.49938449  0.24965231  1
  Na  Na36  1  0.51038237  0.49042059  0.58459010  1
  Na  Na37  1  0.51057495  0.98658069  0.58340844  1
  Na  Na38  1  0.51358674  1.00501788  0.93093501  1
  Na  Na39  1  0.56638332  0.50077573  0.26684492  1
  Na  Na40  1  0.50493825  0.48168205  0.91860996  1
  Na  Na41  1  0.00840548  0.97816154  0.24781907  1
  Na  Na42  1  0.23949165  0.74263474  0.68366849  1
  Na  Na43  1  0.75820302  0.75783188  -0.00672219  1
  Na  Na44  1  0.76944304  0.75490576  0.33130047  1
  Na  Na45  1  0.22139428  0.71472626  0.32956419  1
  Na  Na46  1  0.75820880  0.75315159  0.66028465  1
  Na  Na47  1  0.76582072  0.27111343  0.32419672  1
  Na  Na48  1  0.26072051  0.25867232  -0.00908079  1
  Na  Na49  1  0.74816134  0.24606918  0.66594294  1
  Na  Na50  1  0.23996314  0.24083754  0.67739197  1
  Na  Na51  1  0.73654599  0.24196248  0.00027265  1
  Na  Na52  1  0.75464954  0.75119323  0.16446697  1
  Na  Na53  1  0.76160696  0.76321516  0.82938428  1
  Na  Na54  1  0.76288077  0.26687994  0.16212787  1
  Na  Na55  1  0.73687716  0.24214138  0.84003355  1
  Na  Na56  1  0.25662876  0.25970141  0.48715204  1
  Na  Na57  1  0.24239268  0.24267704  0.17562713  1
  Na  Na58  1  0.75849954  0.74818156  0.49085599  1
  Na  Na59  1  0.75588722  0.25885006  0.49550924  1
  Na  Na60  1  0.23643468  0.73199989  0.50628850  1
  Na  Na61  1  0.25852722  0.75676205  0.15095989  1
  Fe  Fe62  1  0.96512331  0.31136836  0.12214277  1
  Fe  Fe63  1  0.46788196  0.30086766  0.78808461  1
  Fe  Fe64  1  0.97009777  0.79550414  0.12061597  1
  Fe  Fe65  1  0.97083752  0.30792484  0.45593689  1
  Fe  Fe66  1  0.46211601  0.30448249  0.44765908  1
  Fe  Fe67  1  0.96708231  0.81012162  0.79346938  1
  Fe  Fe68  1  0.96458052  0.30985442  0.79170587  1
  Fe  Fe69  1  0.46968576  0.30741070  0.11920636  1
  Fe  Fe70  1  0.46228024  0.81380929  0.78880112  1
  Fe  Fe71  1  0.46296478  0.80899135  0.44917895  1
  Fe  Fe72  1  0.69162102  0.53731382  0.04693672  1
  Fe  Fe73  1  0.69098581  0.53700843  0.71682106  1
  Fe  Fe74  1  0.19332806  0.03768830  0.71802215  1
  Fe  Fe75  1  0.18875856  0.53792336  0.71320540  1
  Fe  Fe76  1  0.19235450  0.03262247  0.37990042  1
  Fe  Fe77  1  0.18804332  0.03362768  0.04400007  1
  Fe  Fe78  1  0.69293660  0.03681781  0.38140565  1
  Fe  Fe79  1  0.18755731  0.53347063  0.04505780  1
  Fe  Fe80  1  0.70316995  0.03238685  0.04558124  1
  Fe  Fe81  1  0.69507792  0.03413882  0.71938663  1
  Fe  Fe82  1  0.52946004  0.70324402  0.21241227  1
  Fe  Fe83  1  0.52901162  0.69969856  0.88555075  1
  Fe  Fe84  1  0.03606708  0.18841069  0.87863037  1
  Fe  Fe85  1  0.53693561  0.69511809  0.54884555  1
  Fe  Fe86  1  0.53685586  0.18642605  0.21037897  1
  Fe  Fe87  1  0.53275283  0.19154143  0.54566379  1
  Fe  Fe88  1  0.02934159  0.69524893  0.54253612  1
  Fe  Fe89  1  0.04024885  0.19138729  0.21654589  1
  Fe  Fe90  1  0.03485285  0.19151295  0.54909341  1
  Fe  Fe91  1  0.04481072  0.69170736  0.88311187  1
  Fe  Fe92  1  0.81140111  0.96661261  0.29045509  1
  Fe  Fe93  1  0.81355938  0.96269043  0.62591727  1
  Fe  Fe94  1  0.31228205  0.96392758  0.95537119  1
  Fe  Fe95  1  0.30331260  0.96368666  0.27769993  1
  Fe  Fe96  1  0.30555654  0.46505132  0.95103642  1
  Fe  Fe97  1  0.30242914  0.46841940  0.28742031  1
  Fe  Fe98  1  0.81337590  0.46542376  0.95690284  1
  Fe  Fe99  1  0.30609493  0.96452344  0.61863552  1
  Fe  Fe100  1  0.30402864  0.46943431  0.61721885  1
  Fe  Fe101  1  0.80345983  0.46537476  0.61778310  1
  S  S102  1  0.36079756  0.14190505  0.08302467  1
  S  S103  1  0.35874975  0.13747519  0.41659762  1
  S  S104  1  0.35527554  0.14143072  0.74488656  1
  S  S105  1  0.35719370  0.63841980  0.08321089  1
  S  S106  1  0.36322509  0.64210059  0.41795737  1
  S  S107  1  0.35987692  0.64247848  0.74996634  1
  S  S108  1  0.86275623  0.14594099  0.08832405  1
  S  S109  1  0.85913898  0.14360488  0.41709766  1
  S  S110  1  0.85848193  0.14163764  0.75161522  1
  S  S111  1  0.85489647  0.63983081  0.08095729  1
  S  S112  1  0.85542026  0.64302014  0.42410182  1
  S  S113  1  0.86018020  0.63867437  0.75064210  1
  S  S114  1  0.14124982  0.35619889  0.24594866  1
  S  S115  1  0.14429201  0.35738302  0.58471792  1
  S  S116  1  0.14161218  0.35689091  0.91477696  1
  S  S117  1  0.14132954  0.85819106  0.25233278  1
  S  S118  1  0.14328146  0.86058449  0.58714637  1
  S  S119  1  0.14293166  0.85983419  0.91657445  1
  S  S120  1  0.64095942  0.35451479  0.25246123  1
  S  S121  1  0.63689630  0.35847125  0.58336101  1
  S  S122  1  0.64094706  0.36346732  0.91359035  1
  S  S123  1  0.64762599  0.86114520  0.25522439  1
  S  S124  1  0.64025376  0.86147132  0.58357528  1
  S  S125  1  0.63944995  0.85925181  0.91772742  1
  S  S126  1  0.06502489  0.16983381  0.04206334  1
  S  S127  1  0.06695117  0.16731759  0.37755766  1
  S  S128  1  0.06431276  0.16686164  0.70642588  1
  S  S129  1  0.06784147  0.66730682  0.03981272  1
  S  S130  1  0.05847930  0.65918360  0.37968328  1
  S  S131  1  0.06693936  0.67275388  0.70984154  1
  S  S132  1  0.57178002  0.17141774  0.04446249  1
  S  S133  1  0.56673925  0.16967811  0.37688012  1
  S  S134  1  0.56483008  0.16705167  0.70598889  1
  S  S135  1  0.56427516  0.67020917  0.04178132  1
  S  S136  1  0.56329804  0.67402408  0.37823254  1
  S  S137  1  0.56569620  0.67141140  0.71132137  1
  S  S138  1  0.33487383  0.43106696  0.12527724  1
  S  S139  1  0.33624655  0.43308664  0.46059557  1
  S  S140  1  0.33290043  0.43367707  0.78861883  1
  S  S141  1  0.32121406  0.93476133  0.12090056  1
  S  S142  1  0.32692793  0.93074176  0.45575256  1
  S  S143  1  0.33350511  0.94015888  0.79172811  1
  S  S144  1  0.82691977  0.43432257  0.12200635  1
  S  S145  1  0.83621844  0.42441227  0.46228493  1
  S  S146  1  0.82558321  0.43084800  0.78695225  1
  S  S147  1  0.83341588  0.93212139  0.12623136  1
  S  S148  1  0.83017120  0.94001787  0.46242625  1
  S  S149  1  0.82693644  0.93043855  0.78928577  1
  S  S150  1  0.43048453  0.33046942  0.29018366  1
  S  S151  1  0.43297737  0.32891499  0.62345823  1
  S  S152  1  0.43451190  0.33753017  0.96026692  1
  S  S153  1  0.43334427  0.83456783  0.29052009  1
  S  S154  1  0.43405769  0.83451738  0.62520464  1
  S  S155  1  0.43997219  0.84658388  0.96248989  1
  S  S156  1  0.94140264  0.33013901  0.29019930  1
  S  S157  1  0.93140016  0.32738435  0.62748900  1
  S  S158  1  0.92866931  0.32188041  0.95288212  1
  S  S159  1  0.93540597  0.83602283  0.29361834  1
  S  S160  1  0.93392049  0.82351157  0.62718263  1
  S  S161  1  0.93303114  0.81921552  0.95422405  1
  S  S162  1  0.16760932  0.06495640  0.20644499  1
  S  S163  1  0.16837287  0.06395110  0.54240100  1
  S  S164  1  0.17703436  0.07156665  0.88032671  1
  S  S165  1  0.17089109  0.56195246  0.20479562  1
  S  S166  1  0.17309024  0.57265445  0.54805230  1
  S  S167  1  0.17177585  0.56446587  0.87204650  1
  S  S168  1  0.67693166  0.06815164  0.21164350  1
  S  S169  1  0.66471744  0.06452040  0.54135605  1
  S  S170  1  0.66653403  0.06368268  0.87721771  1
  S  S171  1  0.66511882  0.57720056  0.20579243  1
  S  S172  1  0.66140815  0.56346639  0.54432837  1
  S  S173  1  0.66135647  0.57076529  0.87359406  1
  O  O174  1  0.37324027  0.21982682  0.07299462  1
  O  O175  1  0.36737955  0.21761089  0.41244005  1
  O  O176  1  0.36907883  0.21926483  0.73507276  1
  O  O177  1  0.36289835  0.71513317  0.07489411  1
  O  O178  1  0.37245310  0.71952073  0.40568325  1
  O  O179  1  0.37169383  0.72031495  0.74000358  1
  O  O180  1  0.86727255  0.22900468  0.08726338  1
  O  O181  1  0.86950587  0.22275430  0.40980781  1
  O  O182  1  0.86761870  0.22110245  0.74409946  1
  O  O183  1  0.86566576  0.71970173  0.07331723  1
  O  O184  1  0.85786584  0.72557785  0.42678288  1
  O  O185  1  0.86777897  0.71984639  0.74738243  1
  O  O186  1  0.28206588  0.13539219  0.09193010  1
  O  O187  1  0.28082905  0.12696802  0.42674554  1
  O  O188  1  0.27231905  0.13504713  0.74328912  1
  O  O189  1  0.27953887  0.62258691  0.09212494  1
  O  O190  1  0.28765250  0.63389292  0.42861929  1
  O  O191  1  0.27961115  0.63335845  0.75250851  1
  O  O192  1  0.78428194  0.13382548  0.09725090  1
  O  O193  1  0.77965561  0.13545285  0.42510391  1
  O  O194  1  0.77888844  0.13332747  0.75982186  1
  O  O195  1  0.77131946  0.63340897  0.08124991  1
  O  O196  1  0.78805589  0.62187982  0.44426625  1
  O  O197  1  0.78326257  0.62946840  0.76340795  1
  O  O198  1  0.13515586  0.27345040  0.24650106  1
  O  O199  1  0.13397665  0.27750328  0.59143218  1
  O  O200  1  0.13307108  0.27753416  0.92236978  1
  O  O201  1  0.13338843  0.78633872  0.26961127  1
  O  O202  1  0.13089428  0.78007628  0.59292095  1
  O  O203  1  0.13655746  0.78124260  0.92470136  1
  O  O204  1  0.62418700  0.27564733  0.26092900  1
  O  O205  1  0.62835475  0.27935438  0.59175255  1
  O  O206  1  0.63769745  0.28567169  0.92054795  1
  O  O207  1  0.63390441  0.78461102  0.26670103  1
  O  O208  1  0.63081072  0.78240430  0.59192812  1
  O  O209  1  0.62448713  0.78374659  0.93223262  1
  O  O210  1  0.21928625  0.36838177  0.23640736  1
  O  O211  1  0.22443706  0.36755641  0.57881389  1
  O  O212  1  0.21963873  0.36782184  0.90551745  1
  O  O213  1  0.22065683  0.86920708  0.24465850  1
  O  O214  1  0.22496428  0.86620053  0.58329830  1
  O  O215  1  0.21969411  0.87476442  0.90715099  1
  O  O216  1  0.71812899  0.35602978  0.24310476  1
  O  O217  1  0.71680790  0.36776673  0.57780337  1
  O  O218  1  0.71669365  0.37924368  0.90039059  1
  O  O219  1  0.73178551  0.86736617  0.25772776  1
  O  O220  1  0.71905936  0.86893913  0.57516351  1
  O  O221  1  0.71613911  0.86059063  0.90800434  1
  O  O222  1  0.41980816  0.13621202  0.15260539  1
  O  O223  1  0.41917589  0.12667759  0.48304102  1
  O  O224  1  0.40894646  0.13303186  0.81331070  1
  O  O225  1  0.41831628  0.63055276  0.15158640  1
  O  O226  1  0.42611194  0.63636675  0.48648550  1
  O  O227  1  0.41667650  0.63543273  0.81977952  1
  O  O228  1  0.92259090  0.13510918  0.15481200  1
  O  O229  1  0.91719892  0.13529235  0.48542284  1
  O  O230  1  0.91723643  0.13262049  0.81830808  1
  O  O231  1  0.90787267  0.63083879  0.14821092  1
  O  O232  1  0.92746737  0.63221210  0.48799118  1
  O  O233  1  0.92280527  0.62421490  0.81253925  1
  O  O234  1  0.36792840  0.08131623  0.01611444  1
  O  O235  1  0.36630168  0.07987103  0.34771969  1
  O  O236  1  0.36670476  0.08085575  0.67774954  1
  O  O237  1  0.36763787  0.57711598  0.01613671  1
  O  O238  1  0.37380036  0.58081639  0.35197712  1
  O  O239  1  0.37326170  0.58164183  0.68443388  1
  O  O240  1  0.87123539  0.09307614  0.01946855  1
  O  O241  1  0.86656749  0.08517355  0.34905849  1
  O  O242  1  0.86283715  0.08344237  0.68185281  1
  O  O243  1  0.86090275  0.58211188  0.01036354  1
  O  O244  1  0.86222572  0.59167436  0.35354677  1
  O  O245  1  0.86243508  0.58279592  0.67823967  1
  O  O246  1  0.08090899  0.36507828  0.17731814  1
  O  O247  1  0.08730812  0.36319446  0.51506693  1
  O  O248  1  0.08105914  0.36354851  0.84692930  1
  O  O249  1  0.08326967  0.86130840  0.18098741  1
  O  O250  1  0.08758717  0.87428083  0.52205572  1
  O  O251  1  0.08172625  0.86563303  0.84846763  1
  O  O252  1  0.58202362  0.36510054  0.18359626  1
  O  O253  1  0.57904336  0.36542939  0.51437493  1
  O  O254  1  0.57772933  0.37077449  0.84635845  1
  O  O255  1  0.59800027  0.86621839  0.18354291  1
  O  O256  1  0.58093444  0.87169757  0.51669939  1
  O  O257  1  0.57891709  0.86601010  0.84913072  1
  O  O258  1  0.13169144  0.41138871  0.31276184  1
  O  O259  1  0.13603587  0.41551016  0.65256447  1
  O  O260  1  0.13465046  0.41486869  0.98328809  1
  O  O261  1  0.12925309  0.92514073  0.31475433  1
  O  O262  1  0.13680978  0.91809696  0.65776682  1
  O  O263  1  0.13176454  0.91807441  0.98378677  1
  O  O264  1  0.63448169  0.41491476  0.31862925  1
  O  O265  1  0.62612396  0.41769998  0.65008407  1
  O  O266  1  0.63122928  0.42284206  0.98121551  1
  O  O267  1  0.63508073  0.92324789  0.31962213  1
  O  O268  1  0.63140466  0.92006241  0.65157039  1
  O  O269  1  0.63292548  0.92326793  0.98378098  1
  O  O270  1  0.02606192  0.19952126  0.10098345  1
  O  O271  1  0.02992892  0.19727219  0.43870339  1
  O  O272  1  0.02809579  0.19558001  0.76749987  1
  O  O273  1  0.02697951  0.69431757  0.09571453  1
  O  O274  1  0.03637038  0.70273903  0.44895653  1
  O  O275  1  0.02818213  0.70139393  0.76946282  1
  O  O276  1  0.53768833  0.20189016  0.10847934  1
  O  O277  1  0.52641782  0.19922897  0.43572734  1
  O  O278  1  0.52957807  0.19656717  0.76578841  1
  O  O279  1  0.53264458  0.69512431  0.10430526  1
  O  O280  1  0.53115572  0.71266325  0.44191643  1
  O  O281  1  0.53174766  0.70159443  0.77352006  1
  O  O282  1  0.30323510  0.46442652  0.06229994  1
  O  O283  1  0.31277990  0.46591239  0.39917770  1
  O  O284  1  0.30512628  0.47351324  0.72994238  1
  O  O285  1  0.28937946  0.97330017  0.06032855  1
  O  O286  1  0.29866414  0.96721703  0.39492320  1
  O  O287  1  0.30270118  0.97755219  0.73106963  1
  O  O288  1  0.79581443  0.46761627  0.05688723  1
  O  O289  1  0.82548909  0.45359008  0.39981979  1
  O  O290  1  0.79535954  0.46925327  0.72677655  1
  O  O291  1  0.80435862  0.97003722  0.06808465  1
  O  O292  1  0.79939422  0.98018618  0.40387450  1
  O  O293  1  0.79623489  0.96753018  0.72606370  1
  O  O294  1  0.46616331  0.30477374  0.22897234  1
  O  O295  1  0.46942072  0.29931811  0.56215913  1
  O  O296  1  0.46648517  0.31484642  0.89740801  1
  O  O297  1  0.47341609  0.80727289  0.23415376  1
  O  O298  1  0.47145839  0.80619995  0.56484170  1
  O  O299  1  0.46639368  0.80471817  0.89458069  1
  O  O300  1  0.98036479  0.29341740  0.23176432  1
  O  O301  1  0.97040030  0.29881146  0.56855432  1
  O  O302  1  0.96982388  0.29218128  0.89460342  1
  O  O303  1  0.96414088  0.81549828  0.22843950  1
  O  O304  1  0.97453824  0.79530722  0.57036498  1
  O  O305  1  0.97375843  0.78737776  0.89564134  1
  O  O306  1  0.20144225  0.03060001  0.26883943  1
  O  O307  1  0.19733321  0.02593958  0.60220432  1
  O  O308  1  0.20492854  0.03310756  0.93999183  1
  O  O309  1  0.20941469  0.53021312  0.26722117  1
  O  O310  1  0.19985447  0.53419279  0.61011828  1
  O  O311  1  0.19931284  0.52719015  0.93282447  1
  O  O312  1  0.70611476  0.02977952  0.27184357  1
  O  O313  1  0.69364403  0.03173050  0.60429958  1
  O  O314  1  0.70437580  0.03316994  0.93910175  1
  O  O315  1  0.68775939  0.54471411  0.26663185  1
  O  O316  1  0.69434323  0.53145560  0.60980764  1
  O  O317  1  0.69134785  0.53595524  0.93439060  1
  O  O318  1  0.08325378  0.08865854  0.04047544  1
  O  O319  1  0.08364556  0.08506916  0.37267848  1
  O  O320  1  0.08430985  0.08564068  0.70048534  1
  O  O321  1  0.08861488  0.58738859  0.03558865  1
  O  O322  1  0.06030973  0.57618051  0.37528592  1
  O  O323  1  0.08321210  0.59082581  0.70669837  1
  O  O324  1  0.60057853  0.09439452  0.04619751  1
  O  O325  1  0.58547450  0.08907871  0.37618295  1
  O  O326  1  0.58275193  0.08450614  0.70133690  1
  O  O327  1  0.57868848  0.58546424  0.02665305  1
  O  O328  1  0.56780671  0.59192278  0.37491564  1
  O  O329  1  0.57896897  0.58732087  0.70363951  1
  O  O330  1  0.41815456  0.41700354  0.13102626  1
  O  O331  1  0.42001182  0.41366023  0.47113967  1
  O  O332  1  0.41541151  0.41629354  0.79282484  1
  O  O333  1  0.39643840  0.91036302  0.11830545  1
  O  O334  1  0.41094197  0.91703382  0.46411617  1
  O  O335  1  0.41668641  0.92614371  0.79658111  1
  O  O336  1  0.90676487  0.41153492  0.12373949  1
  O  O337  1  0.91782731  0.40301529  0.48638096  1
  O  O338  1  0.90622676  0.41292232  0.78999208  1
  O  O339  1  0.91310813  0.90948565  0.12779836  1
  O  O340  1  0.91260166  0.93003862  0.47124302  1
  O  O341  1  0.90298906  0.90372319  0.78541042  1
  O  O342  1  0.40964634  0.41176806  0.29881171  1
  O  O343  1  0.41882486  0.41241701  0.63104792  1
  O  O344  1  0.41783874  0.42211578  0.97249981  1
  O  O345  1  0.41077288  0.91512003  0.29354853  1
  O  O346  1  0.41852236  0.91774134  0.63111222  1
  O  O347  1  0.42255693  0.92650201  0.95671964  1
  O  O348  1  0.92839103  0.40890435  0.28789893  1
  O  O349  1  0.91091897  0.40837635  0.63517645  1
  O  O350  1  0.90617686  0.39937911  0.95046487  1
  O  O351  1  0.91573352  0.92076603  0.30634808  1
  O  O352  1  0.91264861  0.90321813  0.62549718  1
  O  O353  1  0.91210857  0.89614169  0.95253322  1
  O  O354  1  0.08671001  0.08232536  0.20691110  1
  O  O355  1  0.08670704  0.08261888  0.53805302  1
  O  O356  1  0.09832566  0.09428155  0.87842254  1
  O  O357  1  0.09185157  0.57571403  0.20495150  1
  O  O358  1  0.09613797  0.60192586  0.54918867  1
  O  O359  1  0.08954269  0.58212771  0.86457419  1
  O  O360  1  0.59447424  0.08281078  0.20673939  1
  O  O361  1  0.58102120  0.08013129  0.53344540  1
  O  O362  1  0.58389814  0.07147029  0.87105054  1
  O  O363  1  0.58163602  0.59812080  0.19612073  1
  O  O364  1  0.57949717  0.58315396  0.54372168  1
  O  O365  1  0.57813209  0.58640921  0.86695221  1
  O  O366  1  0.13676404  0.22160074  0.05907871  1
  O  O367  1  0.13769552  0.21889190  0.39358318  1
  O  O368  1  0.13274121  0.22077418  0.72010495  1
  O  O369  1  0.13757019  0.72192559  0.05668351  1
  O  O370  1  0.13766955  0.69921549  0.39391803  1
  O  O371  1  0.13815620  0.72446363  0.72763914  1
  O  O372  1  0.63844126  0.22886349  0.05763424  1
  O  O373  1  0.63763563  0.22253344  0.39574576  1
  O  O374  1  0.63686843  0.21744507  0.71961115  1
  O  O375  1  0.63686627  0.71982306  0.05621732  1
  O  O376  1  0.63929617  0.71810333  0.39376128  1
  O  O377  1  0.63917933  0.71926683  0.72610526  1
  O  O378  1  0.28611258  0.35763220  0.10968269  1
  O  O379  1  0.28370412  0.36432112  0.44867380  1
  O  O380  1  0.28092715  0.36222122  0.76974396  1
  O  O381  1  0.26459577  0.87008579  0.11100273  1
  O  O382  1  0.27752797  0.85840770  0.44004249  1
  O  O383  1  0.28448950  0.86702951  0.77369743  1
  O  O384  1  0.77233978  0.36311111  0.10374343  1
  O  O385  1  0.77819080  0.35512176  0.44373716  1
  O  O386  1  0.77260254  0.35924221  0.76837141  1
  O  O387  1  0.77865592  0.86241349  0.11194270  1
  O  O388  1  0.77932263  0.86635022  0.44077337  1
  O  O389  1  0.76936284  0.86108909  0.77009731  1
  O  O390  1  0.36251634  0.27523627  0.27550774  1
  O  O391  1  0.35985368  0.27873365  0.60454273  1
  O  O392  1  0.36388322  0.28660688  0.94610130  1
  O  O393  1  0.36423558  0.78032413  0.27531100  1
  O  O394  1  0.36232147  0.78336496  0.60777704  1
  O  O395  1  0.36923531  0.80231303  0.95646289  1
  O  O396  1  0.86867468  0.27846822  0.27268295  1
  O  O397  1  0.86012776  0.27318835  0.60870276  1
  O  O398  1  0.85942250  0.26609500  0.93573567  1
  O  O399  1  0.86465174  0.78302952  0.27764874  1
  O  O400  1  0.86218796  0.77095708  0.60985939  1
  O  O401  1  0.86321145  0.76300982  0.93558401  1
  O  O402  1  0.21831796  0.13480257  0.21833476  1
  O  O403  1  0.22072743  0.13517827  0.55941910  1
  O  O404  1  0.23312673  0.13896934  0.89518556  1
  O  O405  1  0.21987251  0.63426584  0.21499336  1
  O  O406  1  0.23206396  0.64127129  0.56936713  1
  O  O407  1  0.22378636  0.63313747  0.88583632  1
  O  O408  1  0.72744522  0.14108299  0.23075813  1
  O  O409  1  0.71433105  0.13708099  0.55565259  1
  O  O410  1  0.71187591  0.13843023  0.88826107  1
  O  O411  1  0.71779786  0.64637057  0.21619828  1
  O  O412  1  0.71144899  0.63536162  0.55892817  1
  O  O413  1  0.71091833  0.64191977  0.88567410  1
  O  O414  1  0.49625383  0.33631444  0.03065565  1
  O  O415  1  0.49209479  0.33314922  0.36262028  1
  O  O416  1  0.49093865  0.32725404  0.69504780  1
  O  O417  1  0.50543552  0.85674147  0.03119980  1
  O  O418  1  0.49157510  0.84509807  0.36755565  1
  O  O419  1  0.49201212  0.83562826  0.69804679  1
  O  O420  1  0.98673340  0.32770256  0.02653081  1
  O  O421  1  0.99592622  0.33275273  0.36565122  1
  O  O422  1  0.98991990  0.32892832  0.70025318  1
  O  O423  1  0.98988464  0.82301266  0.02853709  1
  O  O424  1  0.99684117  0.83936542  0.36295819  1
  O  O425  1  0.99052173  0.83076720  0.70182782  1
  O  O426  1  0.16045409  0.00436955  0.13348197  1
  O  O427  1  0.16380444  0.00512704  0.46898578  1
  O  O428  1  0.17082173  0.01146512  0.80659857  1
  O  O429  1  0.16992977  0.50176570  0.13187677  1
  O  O430  1  0.16846438  0.51350332  0.47823826  1
  O  O431  1  0.16758561  0.50277896  0.79895354  1
  O  O432  1  0.67689279  0.01049171  0.13953577  1
  O  O433  1  0.66327120  0.00525832  0.46930665  1
  O  O434  1  0.66833715  0.00602828  0.80366083  1
  O  O435  1  0.65928803  0.51517755  0.13179754  1
  O  O436  1  0.65436664  0.50204633  0.47460515  1
  O  O437  1  0.65886491  0.50978908  0.80068085  1
  O  O438  1  0.00788953  0.16472535  0.30496751  1
  O  O439  1  0.00318314  0.16280747  0.63363849  1
  O  O440  1  0.00760628  0.16553091  0.96826904  1
  O  O441  1  0.00227109  0.66836111  0.31297987  1
  O  O442  1  0.00933915  0.67069629  0.63611108  1
  O  O443  1  0.01164373  0.66206375  0.96361380  1
  O  O444  1  0.50958053  0.16543535  0.30324026  1
  O  O445  1  0.50596051  0.16195772  0.63158015  1
  O  O446  1  0.50845812  0.16023506  0.97436882  1
  O  O447  1  0.50682450  0.67872887  0.30678734  1
  O  O448  1  0.50666476  0.67237657  0.63992359  1
  O  O449  1  0.50277754  0.67500238  0.97248251  1
  O  O450  1  0.33518131  0.49001622  0.19682389  1
  O  O451  1  0.34025406  0.49499461  0.53369823  1
  O  O452  1  0.33647201  0.49028080  0.86268064  1
  O  O453  1  0.32957402  0.99792525  0.19457361  1
  O  O454  1  0.32795733  0.99050901  0.52808594  1
  O  O455  1  0.33377558  0.99785077  0.86374669  1
  O  O456  1  0.82963348  0.49430967  0.19085739  1
  O  O457  1  0.82678077  0.48561761  0.53017643  1
  O  O458  1  0.82602490  0.48852905  0.85908236  1
  O  O459  1  0.84126789  0.99067695  0.20180524  1
  O  O460  1  0.82517392  0.99435022  0.53544455  1
  O  O461  1  0.83375807  0.98956631  0.85984532  1
