# generated using pymatgen
data_Na31Fe20(SO4)36
_symmetry_space_group_name_H-M   'P 1'
_cell_length_a   18.06154750
_cell_length_b   18.05908940
_cell_length_c   19.67677477
_cell_angle_alpha   107.56828074
_cell_angle_beta   107.59607984
_cell_angle_gamma   90.72686216
_symmetry_Int_Tables_number   1
_chemical_formula_structural   Na31Fe20(SO4)36
_chemical_formula_sum   'Na62 Fe40 S72 O288'
_cell_volume   5794.16367910
_cell_formula_units_Z   2
loop_
 _symmetry_equiv_pos_site_id
 _symmetry_equiv_pos_as_xyz
  1  'x, y, z'
loop_
 _atom_site_type_symbol
 _atom_site_label
 _atom_site_symmetry_multiplicity
 _atom_site_fract_x
 _atom_site_fract_y
 _atom_site_fract_z
 _atom_site_occupancy
  Na  Na0  1  0.12648887  0.35593125  0.08198131  1
  Na  Na1  1  0.13711619  0.35940726  0.41300826  1
  Na  Na2  1  0.13367173  0.36097538  0.75071814  1
  Na  Na3  1  0.14140736  0.86792478  0.08626916  1
  Na  Na4  1  0.13029013  0.86820814  0.41283058  1
  Na  Na5  1  0.13805630  0.87753013  0.74939812  1
  Na  Na6  1  0.63526794  0.35288476  0.07456355  1
  Na  Na7  1  0.62730361  0.35655485  0.39803711  1
  Na  Na8  1  0.63524804  0.36302055  0.74306751  1
  Na  Na9  1  0.62487663  0.86465939  0.07568193  1
  Na  Na10  1  0.65015880  0.87288059  0.43907250  1
  Na  Na11  1  0.64401515  0.87096492  0.76190486  1
  Na  Na12  1  0.36397838  0.14056166  0.24643756  1
  Na  Na13  1  0.36332347  0.13344411  0.58351564  1
  Na  Na14  1  0.37572066  0.14608030  0.93352669  1
  Na  Na15  1  0.36022277  0.62921056  0.24108044  1
  Na  Na16  1  0.36787078  0.63426444  0.58722439  1
  Na  Na17  1  0.36723887  0.64582940  0.92629807  1
  Na  Na18  1  0.86139094  0.13567670  0.25123916  1
  Na  Na19  1  0.86261396  0.13430163  0.58755018  1
  Na  Na20  1  0.86742768  0.12787784  0.92262914  1
  Na  Na21  1  0.86611936  0.63677673  0.25074297  1
  Na  Na22  1  0.86202335  0.63851915  0.58000608  1
  Na  Na23  1  0.86973649  0.63779136  0.91571006  1
  Na  Na24  1  0.98640753  0.50280834  0.42831072  1
  Na  Na25  1  0.50689194  0.50013165  0.40576141  1
  Na  Na26  1  0.97809162  0.02140915  0.07315300  1
  Na  Na27  1  0.49186104  0.01594032  0.74234576  1
  Na  Na28  1  0.99083615  0.50715242  0.74985403  1
  Na  Na29  1  0.99880786  0.49564906  0.06807994  1
  Na  Na30  1  0.49732586  0.06585003  0.10423415  1
  Na  Na31  1  0.96644548  0.01228818  0.73805936  1
  Na  Na32  1  0.51389212  0.45438626  0.13540829  1
  Na  Na33  1  0.52078356  0.99899498  0.56280933  1
  Na  Na34  1  0.48594588  0.53727646  0.87759416  1
  Na  Na35  1  0.50081174  1.00452807  0.26056088  1
  Na  Na36  1  0.50571899  0.48960142  0.59504750  1
  Na  Na37  1  0.51172607  0.97317878  0.92298965  1
  Na  Na38  1  0.00315964  0.45351731  0.23626875  1
  Na  Na39  1  0.00761819  0.99323840  0.25522132  1
  Na  Na40  1  0.03643038  0.98894369  0.92342905  1
  Na  Na41  1  0.01977271  0.98924793  0.58326321  1
  Na  Na42  1  0.25194326  0.74803478  0.66687808  1
  Na  Na43  1  0.73789765  0.74688965  -0.00351094  1
  Na  Na44  1  0.24613603  0.74510152  0.01221792  1
  Na  Na45  1  0.24029841  0.23475472  0.01452623  1
  Na  Na46  1  0.25764419  0.75824940  0.31644071  1
  Na  Na47  1  0.76268753  0.77654683  0.64673394  1
  Na  Na48  1  0.73594410  0.24160639  0.33607062  1
  Na  Na49  1  0.76360339  0.25591816  -0.00158193  1
  Na  Na50  1  0.74212701  0.74757431  0.35094865  1
  Na  Na51  1  0.24009256  0.23351434  0.67466297  1
  Na  Na52  1  0.75992329  0.76403546  0.82956958  1
  Na  Na53  1  0.73776665  0.24100464  0.51288935  1
  Na  Na54  1  0.24921480  0.75095818  0.83413469  1
  Na  Na55  1  0.23897743  0.23395375  0.18004946  1
  Na  Na56  1  0.76108977  0.25730516  0.82105444  1
  Na  Na57  1  0.25805785  0.25697499  0.49046991  1
  Na  Na58  1  0.74517729  0.74810805  0.16714416  1
  Na  Na59  1  0.24253750  0.23406219  0.84309253  1
  Na  Na60  1  0.74769647  0.24651013  0.16904569  1
  Na  Na61  1  0.25215326  0.75520779  0.49333133  1
  Fe  Fe62  1  0.96396665  0.31134533  0.45711286  1
  Fe  Fe63  1  0.46681981  0.30889294  0.78542804  1
  Fe  Fe64  1  0.96115905  0.31173196  0.78712054  1
  Fe  Fe65  1  0.96723372  0.80559882  0.11313927  1
  Fe  Fe66  1  0.46408448  0.30449015  0.44471643  1
  Fe  Fe67  1  0.46079928  0.80678819  0.45145576  1
  Fe  Fe68  1  0.46527534  0.80851610  0.12352262  1
  Fe  Fe69  1  0.96978552  0.80939463  0.78302001  1
  Fe  Fe70  1  0.46700068  0.79871087  0.79222473  1
  Fe  Fe71  1  0.96455683  0.80637663  0.44984000  1
  Fe  Fe72  1  0.69785143  0.03243520  0.38271402  1
  Fe  Fe73  1  0.70586944  0.02724460  0.71256266  1
  Fe  Fe74  1  0.69105525  0.53749652  0.37834666  1
  Fe  Fe75  1  0.18862803  0.53210480  0.71197095  1
  Fe  Fe76  1  0.19168924  0.53157621  0.37993861  1
  Fe  Fe77  1  0.69395737  0.53985590  0.71618335  1
  Fe  Fe78  1  0.68816563  0.53698356  0.04152718  1
  Fe  Fe79  1  0.18966363  0.53458390  0.04632576  1
  Fe  Fe80  1  0.70291347  0.02625761  0.04167716  1
  Fe  Fe81  1  0.18988970  0.03969032  0.38151401  1
  Fe  Fe82  1  0.03369417  0.19301629  0.88414504  1
  Fe  Fe83  1  0.03382487  0.19071617  0.54791226  1
  Fe  Fe84  1  0.53306413  0.69169392  0.21431808  1
  Fe  Fe85  1  0.53110469  0.69182533  0.54636444  1
  Fe  Fe86  1  0.03499244  0.69182637  0.21327252  1
  Fe  Fe87  1  0.53805676  0.19373339  0.88142935  1
  Fe  Fe88  1  0.53619869  0.19112473  0.54471627  1
  Fe  Fe89  1  0.03937903  0.69327594  0.88169534  1
  Fe  Fe90  1  0.03161111  0.19773494  0.21348803  1
  Fe  Fe91  1  0.03694445  0.69064818  0.54765214  1
  Fe  Fe92  1  0.30408292  0.96787816  0.28563986  1
  Fe  Fe93  1  0.30019378  0.97637562  0.96245088  1
  Fe  Fe94  1  0.29933833  0.96939644  0.62772794  1
  Fe  Fe95  1  0.30573180  0.46224786  0.28239786  1
  Fe  Fe96  1  0.81500434  0.96335218  0.29030036  1
  Fe  Fe97  1  0.80814382  0.46571475  0.94897127  1
  Fe  Fe98  1  0.80724017  0.46690938  0.28192563  1
  Fe  Fe99  1  0.31104699  0.46053884  0.95477519  1
  Fe  Fe100  1  0.30971951  0.46274879  0.62130629  1
  Fe  Fe101  1  0.80413629  0.46562577  0.61614736  1
  S  S102  1  0.35758830  0.14757570  0.08319568  1
  S  S103  1  0.36021559  0.13971450  0.41824772  1
  S  S104  1  0.36269553  0.14189628  0.75020420  1
  S  S105  1  0.35914649  0.63797520  0.08254580  1
  S  S106  1  0.35582993  0.63907601  0.41443411  1
  S  S107  1  0.35623016  0.63507858  0.75273911  1
  S  S108  1  0.85655843  0.14207091  0.09258238  1
  S  S109  1  0.85898459  0.14456625  0.41757558  1
  S  S110  1  0.86027605  0.14432285  0.75287005  1
  S  S111  1  0.86059931  0.64259336  0.07908224  1
  S  S112  1  0.86030427  0.63868163  0.41556197  1
  S  S113  1  0.86198974  0.64173770  0.74707961  1
  S  S114  1  0.14176278  0.35834040  0.25111370  1
  S  S115  1  0.14205446  0.35667173  0.58503766  1
  S  S116  1  0.13877121  0.35923186  0.91633179  1
  S  S117  1  0.13817743  0.86083476  0.25135032  1
  S  S118  1  0.14024023  0.85419843  0.57863603  1
  S  S119  1  0.14532275  0.85700361  0.91596384  1
  S  S120  1  0.64492427  0.36372079  0.24779437  1
  S  S121  1  0.63692310  0.36289465  0.58131042  1
  S  S122  1  0.64241849  0.35897144  0.91381211  1
  S  S123  1  0.64259303  0.85790518  0.25421742  1
  S  S124  1  0.63314674  0.85990920  0.58466983  1
  S  S125  1  0.63867737  0.85725491  0.91470138  1
  S  S126  1  0.05960829  0.16858196  0.04586003  1
  S  S127  1  0.06510111  0.17410934  0.37952045  1
  S  S128  1  0.05813415  0.16980856  0.71056124  1
  S  S129  1  0.06794133  0.66829277  0.04097014  1
  S  S130  1  0.06474423  0.66255939  0.37279950  1
  S  S131  1  0.06679645  0.66692101  0.70772954  1
  S  S132  1  0.58080923  0.16226069  0.03885983  1
  S  S133  1  0.56700158  0.16765385  0.37527566  1
  S  S134  1  0.56928083  0.16591582  0.70710509  1
  S  S135  1  0.56556224  0.67229583  0.04469316  1
  S  S136  1  0.56560488  0.67269001  0.37735571  1
  S  S137  1  0.56678326  0.67179780  0.70872514  1
  S  S138  1  0.31869459  0.42937601  0.11704388  1
  S  S139  1  0.33228520  0.43468789  0.46116760  1
  S  S140  1  0.32673603  0.42946137  0.78826048  1
  S  S141  1  0.33191796  0.93375461  0.12684696  1
  S  S142  1  0.32487044  0.93155335  0.45897980  1
  S  S143  1  0.32985766  0.92752255  0.79564405  1
  S  S144  1  0.83039275  0.44353132  0.12026761  1
  S  S145  1  0.82673718  0.43468534  0.45618940  1
  S  S146  1  0.82910910  0.43765270  0.78865814  1
  S  S147  1  0.83336739  0.92843990  0.12626418  1
  S  S148  1  0.83889104  0.93714375  0.45923458  1
  S  S149  1  0.83950322  0.93466035  0.79227890  1
  S  S150  1  0.43079375  0.33478229  0.28991510  1
  S  S151  1  0.43359451  0.32810375  0.62111203  1
  S  S152  1  0.43686562  0.33217156  0.95333896  1
  S  S153  1  0.43101457  0.82992166  0.29204623  1
  S  S154  1  0.42549219  0.82794868  0.62692577  1
  S  S155  1  0.42510589  0.83693557  0.96345258  1
  S  S156  1  0.93448409  0.33449969  0.29618073  1
  S  S157  1  0.93160353  0.33360581  0.62447848  1
  S  S158  1  0.93348821  0.33188819  0.95656465  1
  S  S159  1  0.93462115  0.82702445  0.28644394  1
  S  S160  1  0.94315282  0.83000993  0.62115255  1
  S  S161  1  0.94521473  0.83297259  0.95552494  1
  S  S162  1  0.16217497  0.06308329  0.20938166  1
  S  S163  1  0.16848609  0.06693681  0.54199918  1
  S  S164  1  0.16895287  0.06513309  0.87364694  1
  S  S165  1  0.16479994  0.56434406  0.20784714  1
  S  S166  1  0.17081832  0.56383549  0.54228676  1
  S  S167  1  0.17062572  0.56569817  0.87563475  1
  S  S168  1  0.67262904  0.05708191  0.21070635  1
  S  S169  1  0.67117283  0.07016226  0.54394860  1
  S  S170  1  0.67314102  0.07020592  0.87469303  1
  S  S171  1  0.67192105  0.57112424  0.20811184  1
  S  S172  1  0.66716806  0.56850830  0.54162749  1
  S  S173  1  0.67559883  0.56846958  0.87686591  1
  O  O174  1  0.37322076  0.21482894  0.06075141  1
  O  O175  1  0.37000287  0.21951743  0.41297339  1
  O  O176  1  0.37656874  0.21684872  0.73453324  1
  O  O177  1  0.37122133  0.71669518  0.07399032  1
  O  O178  1  0.36334452  0.71977206  0.40906973  1
  O  O179  1  0.36762220  0.71575923  0.74771200  1
  O  O180  1  0.85322929  0.22231453  0.09127668  1
  O  O181  1  0.86703344  0.22382210  0.40885543  1
  O  O182  1  0.86510743  0.22677111  0.75162092  1
  O  O183  1  0.87118525  0.71894913  0.06550156  1
  O  O184  1  0.87035700  0.71705634  0.40644335  1
  O  O185  1  0.87239531  0.71956778  0.73736448  1
  O  O186  1  0.27769386  0.14226750  0.08732310  1
  O  O187  1  0.28206679  0.13130046  0.42891517  1
  O  O188  1  0.28440849  0.13768325  0.75605172  1
  O  O189  1  0.28050200  0.63130003  0.09116063  1
  O  O190  1  0.27766320  0.62907624  0.42446329  1
  O  O191  1  0.27300627  0.62777115  0.75357502  1
  O  O192  1  0.78066252  0.11938570  0.10501420  1
  O  O193  1  0.77791335  0.13460830  0.42186973  1
  O  O194  1  0.78125664  0.12993181  0.75968876  1
  O  O195  1  0.77977479  0.63681829  0.08365279  1
  O  O196  1  0.78106239  0.63065658  0.42257640  1
  O  O197  1  0.78405664  0.63539610  0.75799275  1
  O  O198  1  0.13124819  0.27964026  0.25864621  1
  O  O199  1  0.13255031  0.27826521  0.59471244  1
  O  O200  1  0.13127098  0.27965763  0.92469959  1
  O  O201  1  0.12844467  0.78273644  0.26200900  1
  O  O202  1  0.13584693  0.77267711  0.58398242  1
  O  O203  1  0.14173697  0.77361520  0.91612021  1
  O  O204  1  0.63786068  0.28953642  0.26194955  1
  O  O205  1  0.62847249  0.28490354  0.59042620  1
  O  O206  1  0.63339826  0.28104327  0.92451486  1
  O  O207  1  0.63128921  0.77887004  0.26222996  1
  O  O208  1  0.61885234  0.78121516  0.59276409  1
  O  O209  1  0.62580156  0.78390267  0.92822120  1
  O  O210  1  0.22249329  0.36702762  0.24652937  1
  O  O211  1  0.22159816  0.36580736  0.57765666  1
  O  O212  1  0.21767752  0.36826438  0.90725306  1
  O  O213  1  0.21931935  0.87064093  0.24980120  1
  O  O214  1  0.22059578  0.86720975  0.57389516  1
  O  O215  1  0.22656294  0.87341985  0.91309414  1
  O  O216  1  0.72739997  0.37386558  0.24268208  1
  O  O217  1  0.71619735  0.37216723  0.57355073  1
  O  O218  1  0.72241120  0.36629236  0.90701513  1
  O  O219  1  0.72211076  0.86475334  0.24701169  1
  O  O220  1  0.70725031  0.86421293  0.57057845  1
  O  O221  1  0.71239303  0.86603416  0.90001411  1
  O  O222  1  0.41471906  0.14064883  0.15159265  1
  O  O223  1  0.41970270  0.12956418  0.48531634  1
  O  O224  1  0.42216367  0.13550695  0.81944230  1
  O  O225  1  0.41880134  0.62990696  0.15037281  1
  O  O226  1  0.41643642  0.62987383  0.48112756  1
  O  O227  1  0.40949678  0.62444834  0.82029232  1
  O  O228  1  0.91928603  0.13462088  0.16049871  1
  O  O229  1  0.91503432  0.14013518  0.48841416  1
  O  O230  1  0.91901410  0.13483028  0.82177963  1
  O  O231  1  0.91633928  0.63935897  0.15112023  1
  O  O232  1  0.91915749  0.62911165  0.48330900  1
  O  O233  1  0.92241842  0.63203979  0.81396830  1
  O  O234  1  0.36616523  0.07587852  0.01706753  1
  O  O235  1  0.36479188  0.08145912  0.34833324  1
  O  O236  1  0.37244871  0.07741083  0.68466216  1
  O  O237  1  0.36506038  0.57858359  0.01355565  1
  O  O238  1  0.36179220  0.58236014  0.34457855  1
  O  O239  1  0.36444565  0.57887201  0.68281281  1
  O  O240  1  0.86672180  0.08720318  0.02504306  1
  O  O241  1  0.87005582  0.08579332  0.35127446  1
  O  O242  1  0.87195461  0.09002741  0.68611934  1
  O  O243  1  0.87370840  0.58001208  0.01602776  1
  O  O244  1  0.86978504  0.57936865  0.34798015  1
  O  O245  1  0.86739033  0.58064150  0.67865928  1
  O  O246  1  0.08499165  0.37068871  0.18577839  1
  O  O247  1  0.08416080  0.36347561  0.51608793  1
  O  O248  1  0.08005064  0.36596700  0.84749618  1
  O  O249  1  0.08210612  0.86524783  0.18021993  1
  O  O250  1  0.08341332  0.85776158  0.50654441  1
  O  O251  1  0.08905922  0.86422603  0.84538503  1
  O  O252  1  0.59083746  0.36933936  0.17795915  1
  O  O253  1  0.57806007  0.37107078  0.51292181  1
  O  O254  1  0.58520035  0.36426562  0.84345575  1
  O  O255  1  0.58411056  0.86610943  0.18568551  1
  O  O256  1  0.56887948  0.87288691  0.52069645  1
  O  O257  1  0.57379796  0.86862320  0.84979435  1
  O  O258  1  0.13431356  0.41728328  0.32135108  1
  O  O259  1  0.13376722  0.41593633  0.65287258  1
  O  O260  1  0.12983411  0.41772640  0.98384415  1
  O  O261  1  0.12365869  0.92145690  0.31552572  1
  O  O262  1  0.12591618  0.91086934  0.64226986  1
  O  O263  1  0.13080564  0.90937127  0.98170741  1
  O  O264  1  0.63627636  0.42763766  0.31461479  1
  O  O265  1  0.62786082  0.42364664  0.64847574  1
  O  O266  1  0.63334049  0.41904685  0.98036955  1
  O  O267  1  0.63471743  0.91757793  0.32219433  1
  O  O268  1  0.63017477  0.91924407  0.65558432  1
  O  O269  1  0.63394239  0.92284445  0.98350704  1
  O  O270  1  0.02313247  0.19884524  0.10554232  1
  O  O271  1  0.02762600  0.20150961  0.44061836  1
  O  O272  1  0.02437452  0.20753857  0.77284891  1
  O  O273  1  0.03286375  0.70078184  0.10324507  1
  O  O274  1  0.02904891  0.69370116  0.43415108  1
  O  O275  1  0.03189371  0.70182287  0.76919412  1
  O  O276  1  0.55333586  0.18257983  0.10316006  1
  O  O277  1  0.53343729  0.20121441  0.43943544  1
  O  O278  1  0.53331397  0.19546048  0.76850761  1
  O  O279  1  0.53369026  0.70319484  0.11003961  1
  O  O280  1  0.52649318  0.70309839  0.43704711  1
  O  O281  1  0.52820002  0.69766798  0.76638548  1
  O  O282  1  0.28774822  0.47092995  0.05805096  1
  O  O283  1  0.30114420  0.47128303  0.40050687  1
  O  O284  1  0.29543790  0.46607841  0.72712255  1
  O  O285  1  0.30671368  0.96801526  0.06510665  1
  O  O286  1  0.29764699  0.96966477  0.39910250  1
  O  O287  1  0.30720485  0.96488551  0.73669805  1
  O  O288  1  0.79142126  0.47919435  0.05949347  1
  O  O289  1  0.79960406  0.47221262  0.39568401  1
  O  O290  1  0.79618631  0.47323123  0.72638438  1
  O  O291  1  0.79951611  0.96120946  0.06489739  1
  O  O292  1  0.80508273  0.97038782  0.39420447  1
  O  O293  1  0.80754574  0.96433553  0.72725537  1
  O  O294  1  0.46478356  0.31781180  0.23076550  1
  O  O295  1  0.47041998  0.29889763  0.56042794  1
  O  O296  1  0.47188142  0.29984791  0.88965155  1
  O  O297  1  0.46903459  0.79917572  0.23154590  1
  O  O298  1  0.45820223  0.79861211  0.56310375  1
  O  O299  1  0.46018663  0.81592509  0.90292244  1
  O  O300  1  0.97326168  0.30641371  0.23903697  1
  O  O301  1  0.97083469  0.30505765  0.56519168  1
  O  O302  1  0.96841072  0.29968309  0.89396320  1
  O  O303  1  0.96961292  0.79702951  0.22402429  1
  O  O304  1  0.97567623  0.79080230  0.55722806  1
  O  O305  1  0.97898012  0.79417310  0.89240964  1
  O  O306  1  0.19794254  0.03247241  0.27653538  1
  O  O307  1  0.19855747  0.02869870  0.59978969  1
  O  O308  1  0.20001896  0.02753939  0.93471609  1
  O  O309  1  0.19461103  0.52744085  0.26876282  1
  O  O310  1  0.19840164  0.52642519  0.60256338  1
  O  O311  1  0.19837295  0.52954092  0.93650867  1
  O  O312  1  0.71151953  0.02155700  0.27186378  1
  O  O313  1  0.68996670  0.03410625  0.60409940  1
  O  O314  1  0.69811642  0.03668700  0.93651542  1
  O  O315  1  0.70568030  0.53770655  0.27079974  1
  O  O316  1  0.69808444  0.53281747  0.60327851  1
  O  O317  1  0.70957839  0.52867834  0.93633741  1
  O  O318  1  0.06954494  0.08542231  0.03552057  1
  O  O319  1  0.08129801  0.09145202  0.37057300  1
  O  O320  1  0.06093740  0.08673417  0.70244579  1
  O  O321  1  0.08509761  0.58729189  0.04035823  1
  O  O322  1  0.07963885  0.57963492  0.36748441  1
  O  O323  1  0.08289817  0.58609344  0.70825075  1
  O  O324  1  0.59861437  0.07731967  0.02249037  1
  O  O325  1  0.59372379  0.08979001  0.37724093  1
  O  O326  1  0.58544337  0.08323227  0.70061507  1
  O  O327  1  0.59127847  0.59356324  0.04412622  1
  O  O328  1  0.58484756  0.59233733  0.37669143  1
  O  O329  1  0.58872363  0.59040573  0.70250393  1
  O  O330  1  0.39427588  0.40655131  0.11412918  1
  O  O331  1  0.41444001  0.41757603  0.46621656  1
  O  O332  1  0.40837302  0.41290143  0.79179700  1
  O  O333  1  0.41564055  0.91691624  0.14047287  1
  O  O334  1  0.40696703  0.91319296  0.46670986  1
  O  O335  1  0.41280604  0.90935810  0.80749523  1
  O  O336  1  0.91122185  0.43522817  0.12043855  1
  O  O337  1  0.90867326  0.41706431  0.46256826  1
  O  O338  1  0.90909450  0.41856999  0.78800968  1
  O  O339  1  0.91611207  0.91308125  0.12849782  1
  O  O340  1  0.91761285  0.91188567  0.45619243  1
  O  O341  1  0.92228225  0.91461261  0.79278912  1
  O  O342  1  0.40828227  0.41830371  0.30754202  1
  O  O343  1  0.41608288  0.40991023  0.62550430  1
  O  O344  1  0.41269247  0.41082625  0.95173244  1
  O  O345  1  0.40949361  0.90926307  0.29246194  1
  O  O346  1  0.40644453  0.90967283  0.63356102  1
  O  O347  1  0.40438274  0.91968073  0.97517481  1
  O  O348  1  0.91655347  0.41732236  0.29942294  1
  O  O349  1  0.91151743  0.41465007  0.62839305  1
  O  O350  1  0.90653477  0.40958843  0.95128279  1
  O  O351  1  0.92045687  0.90957779  0.29289076  1
  O  O352  1  0.93696325  0.91156100  0.62416474  1
  O  O353  1  0.94236282  0.91548836  0.96182618  1
  O  O354  1  0.08271653  0.08628488  0.21289694  1
  O  O355  1  0.08806505  0.08688425  0.54182749  1
  O  O356  1  0.08857247  0.08655929  0.87668260  1
  O  O357  1  0.08258762  0.58216632  0.20262157  1
  O  O358  1  0.08955383  0.58398720  0.53622254  1
  O  O359  1  0.08932357  0.58643022  0.86925414  1
  O  O360  1  0.59069836  0.06088202  0.20812059  1
  O  O361  1  0.58747354  0.08783173  0.52962857  1
  O  O362  1  0.58842537  0.08503405  0.86015357  1
  O  O363  1  0.59054397  0.58729756  0.20581384  1
  O  O364  1  0.58375125  0.58266382  0.53537123  1
  O  O365  1  0.59921141  0.58912226  0.87976274  1
  O  O366  1  0.13430518  0.21796760  0.06481108  1
  O  O367  1  0.13731342  0.22557533  0.39918824  1
  O  O368  1  0.13539361  0.21427745  0.72870959  1
  O  O369  1  0.13817932  0.71877207  0.05324563  1
  O  O370  1  0.13718671  0.71227229  0.38794500  1
  O  O371  1  0.13875974  0.71628632  0.72032057  1
  O  O372  1  0.65138466  0.21390726  0.04994187  1
  O  O373  1  0.63576604  0.22336006  0.38980073  1
  O  O374  1  0.63919785  0.21826465  0.72193221  1
  O  O375  1  0.63434659  0.72746461  0.05857640  1
  O  O376  1  0.63561823  0.72529722  0.39341504  1
  O  O377  1  0.63651495  0.72545883  0.72367827  1
  O  O378  1  0.26114410  0.36257431  0.10145332  1
  O  O379  1  0.28095991  0.36472006  0.44811348  1
  O  O380  1  0.27555300  0.35765992  0.77236279  1
  O  O381  1  0.28017484  0.86254617  0.11048854  1
  O  O382  1  0.27197478  0.85862128  0.43767201  1
  O  O383  1  0.27637285  0.85532294  0.77551145  1
  O  O384  1  0.78343052  0.36940469  0.10541793  1
  O  O385  1  0.77443662  0.36362687  0.43962009  1
  O  O386  1  0.77707052  0.36841381  0.77620973  1
  O  O387  1  0.78536212  0.85610199  0.11547388  1
  O  O388  1  0.78491771  0.86847019  0.44584038  1
  O  O389  1  0.79007146  0.86075614  0.77733935  1
  O  O390  1  0.36292190  0.28011004  0.27808992  1
  O  O391  1  0.36177251  0.27673880  0.60456908  1
  O  O392  1  0.36757507  0.27792232  0.93794393  1
  O  O393  1  0.36282834  0.77480348  0.27720942  1
  O  O394  1  0.35437144  0.77459301  0.61093673  1
  O  O395  1  0.35541685  0.78188713  0.94653383  1
  O  O396  1  0.86297228  0.28381837  0.28191864  1
  O  O397  1  0.86219991  0.27988026  0.60798927  1
  O  O398  1  0.86519655  0.27713398  0.94386892  1
  O  O399  1  0.86187898  0.77710545  0.27013886  1
  O  O400  1  0.86916053  0.78408006  0.60730393  1
  O  O401  1  0.86891640  0.78848827  0.93860072  1
  O  O402  1  0.21482344  0.13082015  0.21975666  1
  O  O403  1  0.22055074  0.13840775  0.55678789  1
  O  O404  1  0.22154580  0.13788597  0.89348044  1
  O  O405  1  0.21688268  0.63499076  0.22397931  1
  O  O406  1  0.22460278  0.63385095  0.55863347  1
  O  O407  1  0.22463497  0.63559762  0.89156886  1
  O  O408  1  0.71689634  0.13420094  0.22963742  1
  O  O409  1  0.72367933  0.14125625  0.56208687  1
  O  O410  1  0.72334974  0.14291195  0.89117728  1
  O  O411  1  0.72236800  0.64340695  0.22259605  1
  O  O412  1  0.71706912  0.64035873  0.55721105  1
  O  O413  1  0.73104997  0.63757294  0.89216851  1
  O  O414  1  0.49877820  0.34082811  0.02404780  1
  O  O415  1  0.49255482  0.33796418  0.36485356  1
  O  O416  1  0.49216718  0.32989085  0.69390402  1
  O  O417  1  0.48584361  0.83565323  0.03451836  1
  O  O418  1  0.49109203  0.83581529  0.36559375  1
  O  O419  1  0.48579199  0.82915989  0.69820641  1
  O  O420  1  0.99454077  0.34696456  0.02879792  1
  O  O421  1  0.99211622  0.34267222  0.37264362  1
  O  O422  1  0.99120742  0.33934714  0.69845094  1
  O  O423  1  1.00085828  0.82570322  0.02688984  1
  O  O424  1  0.99341470  0.82451721  0.35723678  1
  O  O425  1  1.00198681  0.82657137  0.69261601  1
  O  O426  1  0.15137470  -0.00156485  0.14056383  1
  O  O427  1  0.16209169  0.01029756  0.46604568  1
  O  O428  1  0.16140016  0.00949557  0.80051752  1
  O  O429  1  0.16027270  0.50503746  0.13454627  1
  O  O430  1  0.16751732  0.50415856  0.46951050  1
  O  O431  1  0.16615941  0.50524079  0.80272409  1
  O  O432  1  0.67634157  0.00430951  0.13671268  1
  O  O433  1  0.67579705  0.00994844  0.47389583  1
  O  O434  1  0.67684521  0.01021295  0.80416473  1
  O  O435  1  0.66828220  0.51066569  0.13600379  1
  O  O436  1  0.66435538  0.50864674  0.46868026  1
  O  O437  1  0.67108528  0.50934245  0.80281435  1
  O  O438  1  0.00665551  0.17692000  0.30864527  1
  O  O439  1  0.00394935  0.17798427  0.63883480  1
  O  O440  1  0.00456885  0.17528411  0.97341877  1
  O  O441  1  0.00582602  0.66212584  0.30050371  1
  O  O442  1  0.00747116  0.66184233  0.63435860  1
  O  O443  1  0.00747402  0.66306493  0.96798407  1
  O  O444  1  0.50486839  0.15669976  0.30438638  1
  O  O445  1  0.50875124  0.16327090  0.63399066  1
  O  O446  1  0.51758015  0.16424817  0.96875126  1
  O  O447  1  0.50626856  0.66739078  0.30365187  1
  O  O448  1  0.50707943  0.66442840  0.63307260  1
  O  O449  1  0.50283648  0.66376192  0.97465008  1
  O  O450  1  0.32430000  0.48936171  0.19129251  1
  O  O451  1  0.33677709  0.49528920  0.53481374  1
  O  O452  1  0.32920662  0.48920718  0.86059410  1
  O  O453  1  0.32981343  0.99461196  0.19772643  1
  O  O454  1  0.32442244  0.98800893  0.53167862  1
  O  O455  1  0.32649013  0.98481877  0.86835918  1
  O  O456  1  0.83212944  0.49968911  0.19497019  1
  O  O457  1  0.82727274  0.49426836  0.52821182  1
  O  O458  1  0.83543805  0.49899859  0.86110460  1
  O  O459  1  0.84065931  0.98843669  0.20091884  1
  O  O460  1  0.84973305  0.99961011  0.52938619  1
  O  O461  1  0.84610492  0.99367849  0.86349785  1
