# generated using pymatgen
data_Na31Fe20(SO4)36
_symmetry_space_group_name_H-M   'P 1'
_cell_length_a   18.08541677
_cell_length_b   18.07253861
_cell_length_c   19.71309846
_cell_angle_alpha   107.58786311
_cell_angle_beta   107.59394595
_cell_angle_gamma   90.70166088
_symmetry_Int_Tables_number   1
_chemical_formula_structural   Na31Fe20(SO4)36
_chemical_formula_sum   'Na62 Fe40 S72 O288'
_cell_volume   5816.55221480
_cell_formula_units_Z   2
loop_
 _symmetry_equiv_pos_site_id
 _symmetry_equiv_pos_as_xyz
  1  'x, y, z'
loop_
 _atom_site_type_symbol
 _atom_site_label
 _atom_site_symmetry_multiplicity
 _atom_site_fract_x
 _atom_site_fract_y
 _atom_site_fract_z
 _atom_site_occupancy
  Na  Na0  1  0.13749871  0.36049824  0.07976338  1
  Na  Na1  1  0.13613454  0.35793428  0.41612336  1
  Na  Na2  1  0.14319156  0.36529718  0.75822483  1
  Na  Na3  1  0.12998781  0.88005512  0.07591410  1
  Na  Na4  1  0.13641761  0.87132278  0.42172866  1
  Na  Na5  1  0.13594035  0.86188743  0.75863921  1
  Na  Na6  1  0.63391516  0.36341469  0.07822457  1
  Na  Na7  1  0.63257383  0.36438570  0.41513148  1
  Na  Na8  1  0.66127190  0.37199340  0.77935336  1
  Na  Na9  1  0.62742092  0.85179343  0.06727988  1
  Na  Na10  1  0.63193838  0.86753221  0.42086508  1
  Na  Na11  1  0.62710853  0.84933958  0.73336001  1
  Na  Na12  1  0.35715183  0.11432707  0.22480516  1
  Na  Na13  1  0.36833272  0.13733469  0.58741079  1
  Na  Na14  1  0.33445593  0.14762448  0.92016017  1
  Na  Na15  1  0.36081468  0.63385111  0.24662225  1
  Na  Na16  1  0.36284246  0.63172186  0.57508728  1
  Na  Na17  1  0.38282643  0.64496290  0.93043050  1
  Na  Na18  1  0.86830084  0.13541474  0.25265316  1
  Na  Na19  1  0.86670961  0.13943795  0.58596265  1
  Na  Na20  1  0.86819563  0.13520899  0.91613511  1
  Na  Na21  1  0.86840130  0.63211559  0.25467330  1
  Na  Na22  1  0.85950279  0.64044614  0.58775982  1
  Na  Na23  1  0.86457019  0.63132324  0.92024158  1
  Na  Na24  1  0.48949494  0.54472952  0.42413124  1
  Na  Na25  1  0.50208958  0.52200519  0.05976375  1
  Na  Na26  1  0.49388298  0.01374119  0.41062208  1
  Na  Na27  1  0.49243208  0.54273319  0.78232960  1
  Na  Na28  1  1.04323096  0.48168262  0.35929365  1
  Na  Na29  1  0.99305083  0.51132524  0.74681371  1
  Na  Na30  1  0.96759351  0.50246141  0.08407480  1
  Na  Na31  1  0.98955241  0.01977224  0.41036045  1
  Na  Na32  1  0.99454221  -0.00544897  0.77243999  1
  Na  Na33  1  0.45505909  1.02101212  0.95039332  1
  Na  Na34  1  0.01406729  0.99122475  0.58817415  1
  Na  Na35  1  0.01333808  0.46704455  0.55798592  1
  Na  Na36  1  0.49348770  0.94939495  0.11993292  1
  Na  Na37  1  0.01866447  0.99604103  0.22328124  1
  Na  Na38  1  0.50005028  0.98067489  0.61074857  1
  Na  Na39  1  -0.00027955  0.49131424  0.91856090  1
  Na  Na40  1  0.51085846  0.49150155  0.24379037  1
  Na  Na41  1  0.50244750  0.50596634  0.58853909  1
  Na  Na42  1  0.27349339  0.78433632  -0.00350801  1
  Na  Na43  1  0.76530478  0.26080349  0.32925347  1
  Na  Na44  1  0.74623892  0.24720732  0.68234206  1
  Na  Na45  1  0.74163470  0.74102448  0.00044879  1
  Na  Na46  1  0.74029433  0.74665171  0.33983934  1
  Na  Na47  1  0.26205253  0.25705908  0.32313542  1
  Na  Na48  1  0.24701209  0.74622887  0.66492915  1
  Na  Na49  1  0.24800515  0.74364883  0.33413542  1
  Na  Na50  1  0.76061978  0.26660067  -0.02085031  1
  Na  Na51  1  0.24395897  0.24216325  0.68043237  1
  Na  Na52  1  0.25475264  0.24578992  0.14550599  1
  Na  Na53  1  0.75971603  0.25414143  0.49736762  1
  Na  Na54  1  0.26065917  0.76364337  0.83221072  1
  Na  Na55  1  0.76189041  0.25779754  0.15889321  1
  Na  Na56  1  0.24957900  0.24901179  0.50140848  1
  Na  Na57  1  0.23796150  0.73534254  0.49882445  1
  Na  Na58  1  0.74008937  0.74771943  0.82830047  1
  Na  Na59  1  0.74533569  0.74312584  0.17137365  1
  Na  Na60  1  0.72569785  0.74173386  0.52463652  1
  Na  Na61  1  0.25924825  0.75708809  0.15831973  1
  Fe  Fe62  1  0.96203421  0.80969419  0.45218857  1
  Fe  Fe63  1  0.96747108  0.30968967  0.11928365  1
  Fe  Fe64  1  0.46316932  0.31462590  0.79008323  1
  Fe  Fe65  1  0.95898683  0.80988605  0.78858981  1
  Fe  Fe66  1  0.46770642  0.79861571  0.46108054  1
  Fe  Fe67  1  0.96713461  0.30659548  0.78439707  1
  Fe  Fe68  1  0.46906933  0.80077277  0.79279496  1
  Fe  Fe69  1  0.46430325  0.30715218  0.11567990  1
  Fe  Fe70  1  0.46796873  0.30800891  0.45484302  1
  Fe  Fe71  1  0.96497493  0.80498530  0.11829433  1
  Fe  Fe72  1  0.19520072  0.03511209  0.38028498  1
  Fe  Fe73  1  0.69332310  0.53542365  0.38331926  1
  Fe  Fe74  1  0.19078405  0.53545575  0.71402510  1
  Fe  Fe75  1  0.68863504  0.03414929  0.37738359  1
  Fe  Fe76  1  0.68862652  0.03464950  0.04403314  1
  Fe  Fe77  1  0.19731007  0.04156824  0.73262081  1
  Fe  Fe78  1  0.69118611  0.53683816  0.71541673  1
  Fe  Fe79  1  0.19127067  0.53431023  0.04707147  1
  Fe  Fe80  1  0.69500521  0.04073025  0.72097679  1
  Fe  Fe81  1  0.70229476  0.52748751  0.03658117  1
  Fe  Fe82  1  0.53691196  0.19790143  0.55315959  1
  Fe  Fe83  1  0.53104054  0.19108972  0.87996841  1
  Fe  Fe84  1  0.03239924  0.69536777  0.88372918  1
  Fe  Fe85  1  0.03918232  0.19637432  0.88978034  1
  Fe  Fe86  1  0.52905307  0.70121586  0.20772975  1
  Fe  Fe87  1  0.03630847  0.68980085  0.21647831  1
  Fe  Fe88  1  0.53696270  0.19273997  0.21429522  1
  Fe  Fe89  1  0.03144981  0.19856476  0.54420703  1
  Fe  Fe90  1  0.03371209  0.68980480  0.54582267  1
  Fe  Fe91  1  0.03513826  0.18998249  0.20915870  1
  Fe  Fe92  1  0.30612787  0.96613766  0.62485519  1
  Fe  Fe93  1  0.81028744  0.46432146  0.61781440  1
  Fe  Fe94  1  0.30665838  0.46816719  0.62027720  1
  Fe  Fe95  1  0.80456634  0.96468193  0.28294620  1
  Fe  Fe96  1  0.81284368  0.46424578  0.29091803  1
  Fe  Fe97  1  0.30765984  0.96228679  0.28704828  1
  Fe  Fe98  1  0.80588171  0.96737846  0.61959010  1
  Fe  Fe99  1  0.80710293  0.96815649  0.95207441  1
  Fe  Fe100  1  0.30669416  0.46223618  0.95103024  1
  Fe  Fe101  1  0.29906846  0.46943719  0.28720308  1
  S  S102  1  0.36821482  0.14136350  0.08564740  1
  S  S103  1  0.36402314  0.14071481  0.41948525  1
  S  S104  1  0.36292855  0.14110069  0.74730501  1
  S  S105  1  0.35759840  0.63668799  0.08110608  1
  S  S106  1  0.35442765  0.64053023  0.41418261  1
  S  S107  1  0.35280427  0.64218245  0.74887459  1
  S  S108  1  0.85669103  0.13987709  0.08372709  1
  S  S109  1  0.85684719  0.13798342  0.41609924  1
  S  S110  1  0.86321141  0.13945786  0.74979402  1
  S  S111  1  0.86309568  0.64181885  0.08814847  1
  S  S112  1  0.85658927  0.64395305  0.41867857  1
  S  S113  1  0.86065432  0.64079059  0.74914542  1
  S  S114  1  0.14182721  0.35598764  0.25035662  1
  S  S115  1  0.14619389  0.35822271  0.58563716  1
  S  S116  1  0.14020735  0.36154896  0.91496291  1
  S  S117  1  0.13911885  0.85850546  0.25155422  1
  S  S118  1  0.13784889  0.86238034  0.58371555  1
  S  S119  1  0.13271069  0.85709869  0.91422089  1
  S  S120  1  0.64077105  0.35995987  0.25034270  1
  S  S121  1  0.64461921  0.35890418  0.58589601  1
  S  S122  1  0.63692353  0.35659649  0.91775138  1
  S  S123  1  0.64240510  0.86184197  0.25027291  1
  S  S124  1  0.63749945  0.86764632  0.58553383  1
  S  S125  1  0.64185131  0.86110918  0.91271868  1
  S  S126  1  0.06234440  0.16982820  0.04609181  1
  S  S127  1  0.06622103  0.16129549  0.37267517  1
  S  S128  1  0.06812754  0.17161172  0.70549572  1
  S  S129  1  0.06493325  0.66753731  0.04390980  1
  S  S130  1  0.06660480  0.67882702  0.38181339  1
  S  S131  1  0.06328342  0.66523357  0.70594723  1
  S  S132  1  0.57046911  0.17361965  0.04506186  1
  S  S133  1  0.56870538  0.17208774  0.37901142  1
  S  S134  1  0.56986801  0.17320400  0.71127681  1
  S  S135  1  0.57608830  0.66147450  0.04111831  1
  S  S136  1  0.56791115  0.66933902  0.37219768  1
  S  S137  1  0.55716119  0.66329266  0.70865487  1
  S  S138  1  0.32878590  0.43075964  0.12531026  1
  S  S139  1  0.33364425  0.42995828  0.45880543  1
  S  S140  1  0.33096019  0.43820047  0.79025857  1
  S  S141  1  0.32922840  0.92129313  0.12986578  1
  S  S142  1  0.33225248  0.93194928  0.46161756  1
  S  S143  1  0.32688912  0.92829524  0.78913812  1
  S  S144  1  0.82987468  0.43267649  0.12653002  1
  S  S145  1  0.82900310  0.43446728  0.45548991  1
  S  S146  1  0.84190526  0.43820464  0.78959283  1
  S  S147  1  0.82818423  0.93055817  0.12345263  1
  S  S148  1  0.83133172  0.93572910  0.45873025  1
  S  S149  1  0.82430648  0.93209635  0.78828172  1
  S  S150  1  0.43546993  0.33703110  0.29345991  1
  S  S151  1  0.43456083  0.33288584  0.62601514  1
  S  S152  1  0.43103281  0.33308272  0.95961681  1
  S  S153  1  0.43207560  0.82632868  0.29843543  1
  S  S154  1  0.42335036  0.82455349  0.62587666  1
  S  S155  1  0.43755087  0.83254583  0.95680276  1
  S  S156  1  0.93700136  0.32836411  0.29051533  1
  S  S157  1  0.93879072  0.33163163  0.62415568  1
  S  S158  1  0.93973442  0.33297605  0.95805446  1
  S  S159  1  0.93330066  0.83297569  0.29185390  1
  S  S160  1  0.93005945  0.83255988  0.62214656  1
  S  S161  1  0.92451843  0.82725650  0.95681615  1
  S  S162  1  0.17552605  0.06801057  0.21375867  1
  S  S163  1  0.16991341  0.06802038  0.54266315  1
  S  S164  1  0.16092480  0.06461249  0.86496051  1
  S  S165  1  0.16531947  0.56360696  0.20506525  1
  S  S166  1  0.16353944  0.56119281  0.54061603  1
  S  S167  1  0.16705261  0.57143694  0.87667086  1
  S  S168  1  0.67097922  0.06819494  0.20936762  1
  S  S169  1  0.67091370  0.07237538  0.54391027  1
  S  S170  1  0.67186873  0.07272126  0.87875278  1
  S  S171  1  0.67267267  0.56328281  0.20785075  1
  S  S172  1  0.66689295  0.55843183  0.54258094  1
  S  S173  1  0.68016821  0.56573094  0.87893470  1
  O  O174  1  0.37522979  0.22654386  0.08842948  1
  O  O175  1  0.37164321  0.21954251  0.41078280  1
  O  O176  1  0.37541599  0.21896064  0.73663151  1
  O  O177  1  0.36181894  0.71060527  0.06668899  1
  O  O178  1  0.37036301  0.71929022  0.40565363  1
  O  O179  1  0.36709622  0.72413582  0.74624028  1
  O  O180  1  0.86073001  0.22004057  0.07704816  1
  O  O181  1  0.86244216  0.21486341  0.40761533  1
  O  O182  1  0.87382732  0.21727612  0.73909717  1
  O  O183  1  0.86723517  0.72298685  0.08273118  1
  O  O184  1  0.86516023  0.72155556  0.40713394  1
  O  O185  1  0.87058523  0.71880784  0.74013336  1
  O  O186  1  0.29473254  0.12689261  0.09822116  1
  O  O187  1  0.28607268  0.13116166  0.42943992  1
  O  O188  1  0.28032253  0.13266828  0.74471104  1
  O  O189  1  0.28031728  0.62390363  0.09293558  1
  O  O190  1  0.27516435  0.63568366  0.41787417  1
  O  O191  1  0.26973611  0.63702976  0.74858207  1
  O  O192  1  0.77927383  0.12667317  0.09445627  1
  O  O193  1  0.77873012  0.12422952  0.42584505  1
  O  O194  1  0.78410221  0.13291152  0.75697241  1
  O  O195  1  0.78254558  0.62809134  0.09212095  1
  O  O196  1  0.77680810  0.63559611  0.42564676  1
  O  O197  1  0.78130243  0.63091671  0.75515198  1
  O  O198  1  0.13317912  0.27388254  0.25334510  1
  O  O199  1  0.13563051  0.27715357  0.58935620  1
  O  O200  1  0.13356079  0.28419138  0.92430138  1
  O  O201  1  0.12789383  0.77955943  0.25924687  1
  O  O202  1  0.12797630  0.78225594  0.59001301  1
  O  O203  1  0.12201924  0.77882664  0.92794460  1
  O  O204  1  0.63144337  0.28223007  0.26122387  1
  O  O205  1  0.63501930  0.27951255  0.59345270  1
  O  O206  1  0.62013182  0.28189894  0.93225600  1
  O  O207  1  0.63108717  0.78193923  0.25690917  1
  O  O208  1  0.63389508  0.79169028  0.59598020  1
  O  O209  1  0.64113056  0.78632469  0.92650047  1
  O  O210  1  0.22267878  0.36564041  0.24474293  1
  O  O211  1  0.22835952  0.36749701  0.58352061  1
  O  O212  1  0.21625312  0.37441790  0.90331922  1
  O  O213  1  0.21882557  0.86588020  0.24624979  1
  O  O214  1  0.21468180  0.86873023  0.57089919  1
  O  O215  1  0.20796868  0.85859881  0.90030643  1
  O  O216  1  0.72101553  0.36707508  0.24456035  1
  O  O217  1  0.72290954  0.36581752  0.57585496  1
  O  O218  1  0.71261409  0.35677944  0.90602248  1
  O  O219  1  0.72549438  0.86781258  0.24878985  1
  O  O220  1  0.71333517  0.88122793  0.57096442  1
  O  O221  1  0.71803609  0.87728571  0.90087455  1
  O  O222  1  0.43291862  0.13075617  0.15130971  1
  O  O223  1  0.42407841  0.13444784  0.48843654  1
  O  O224  1  0.41512692  0.13737620  0.82015437  1
  O  O225  1  0.41834191  0.63334106  0.15094179  1
  O  O226  1  0.41279035  0.62949186  0.47959411  1
  O  O227  1  0.40508881  0.62873816  0.81521277  1
  O  O228  1  0.91736799  0.13248276  0.15114939  1
  O  O229  1  0.91741832  0.12995469  0.48403599  1
  O  O230  1  0.92212660  0.13081751  0.81699040  1
  O  O231  1  0.91875153  0.63795532  0.16055402  1
  O  O232  1  0.91427255  0.63962440  0.48866587  1
  O  O233  1  0.91908160  0.63301747  0.81815994  1
  O  O234  1  0.37745030  0.09284443  0.01527554  1
  O  O235  1  0.37381148  0.08055673  0.35343857  1
  O  O236  1  0.37666000  0.07977695  0.68331227  1
  O  O237  1  0.36821810  0.57218392  0.01677160  1
  O  O238  1  0.36292514  0.58131190  0.34431205  1
  O  O239  1  0.36122640  0.58644738  0.67872158  1
  O  O240  1  0.86379686  0.08296098  0.01451436  1
  O  O241  1  0.86683684  0.07701905  0.34890066  1
  O  O242  1  0.87035290  0.07893023  0.68146402  1
  O  O243  1  0.88000403  0.58591418  0.02548922  1
  O  O244  1  0.86580276  0.58332215  0.35245301  1
  O  O245  1  0.87200517  0.58122128  0.68262738  1
  O  O246  1  0.08518952  0.36594542  0.18212877  1
  O  O247  1  0.09115314  0.36923501  0.51897580  1
  O  O248  1  0.07822265  0.37008045  0.84803548  1
  O  O249  1  0.08071438  0.86776463  0.18327219  1
  O  O250  1  0.07642304  0.87367053  0.51803558  1
  O  O251  1  0.07044709  0.85618164  0.84185708  1
  O  O252  1  0.58321744  0.36746886  0.18119741  1
  O  O253  1  0.58502033  0.36677281  0.51803286  1
  O  O254  1  0.57594903  0.36628840  0.85129884  1
  O  O255  1  0.58921008  0.87268013  0.18325242  1
  O  O256  1  0.57435236  0.87386161  0.51823257  1
  O  O257  1  0.57983483  0.86074578  0.84118226  1
  O  O258  1  0.13434282  0.41045794  0.31905542  1
  O  O259  1  0.13742046  0.41469914  0.65543178  1
  O  O260  1  0.13132529  0.42185451  0.98254024  1
  O  O261  1  0.13063751  0.91815434  0.31913659  1
  O  O262  1  0.13277643  0.92121177  0.65262769  1
  O  O263  1  0.12496957  0.91948331  0.97665972  1
  O  O264  1  0.63039562  0.42089577  0.31614332  1
  O  O265  1  0.63787138  0.41747557  0.65432461  1
  O  O266  1  0.63473165  0.42043793  0.98662030  1
  O  O267  1  0.63591023  0.91889730  0.32105145  1
  O  O268  1  0.62920056  0.93015245  0.65243548  1
  O  O269  1  0.63055535  0.92350305  0.97746432  1
  O  O270  1  0.02154704  0.20785804  0.10498668  1
  O  O271  1  0.03119355  0.18154056  0.43352301  1
  O  O272  1  0.03274717  0.20092407  0.76686710  1
  O  O273  1  0.02838278  0.69815288  0.10534986  1
  O  O274  1  0.02604258  0.71033931  0.44100291  1
  O  O275  1  0.02936341  0.69137050  0.76827440  1
  O  O276  1  0.53737252  0.20753493  0.10783695  1
  O  O277  1  0.53265609  0.20373715  0.44048765  1
  O  O278  1  0.53507861  0.20143387  0.77299098  1
  O  O279  1  0.54477709  0.67740041  0.10564307  1
  O  O280  1  0.53122316  0.69436892  0.43153497  1
  O  O281  1  0.52215618  0.69803185  0.77020361  1
  O  O282  1  0.29756368  0.46370726  0.06201449  1
  O  O283  1  0.31405947  0.46331542  0.39742201  1
  O  O284  1  0.29964736  0.47767242  0.73106590  1
  O  O285  1  0.31534763  0.95559357  0.07025637  1
  O  O286  1  0.30418306  0.96977018  0.40121689  1
  O  O287  1  0.29734360  0.96550000  0.72661715  1
  O  O288  1  0.80233682  0.47072979  0.06788997  1
  O  O289  1  0.79317156  0.47235241  0.39516643  1
  O  O290  1  0.80675702  0.46873785  0.72430977  1
  O  O291  1  0.79906543  0.96489212  0.06136039  1
  O  O292  1  0.80097147  0.96922308  0.39635589  1
  O  O293  1  0.79449116  0.97023361  0.72765215  1
  O  O294  1  0.47534596  0.30806944  0.23531721  1
  O  O295  1  0.47388717  0.30351150  0.56649101  1
  O  O296  1  0.46185761  0.30020779  0.89503836  1
  O  O297  1  0.47053259  0.80052728  0.24072176  1
  O  O298  1  0.46180727  0.80303247  0.56766606  1
  O  O299  1  0.47130804  0.80632237  0.89240923  1
  O  O300  1  0.96732776  0.29659118  0.22463276  1
  O  O301  1  0.97258736  0.30115092  0.56310026  1
  O  O302  1  0.97414938  0.29535985  0.89552975  1
  O  O303  1  0.96988612  0.80322181  0.23149567  1
  O  O304  1  0.96828236  0.80294193  0.56249180  1
  O  O305  1  0.95950252  0.79534073  0.89490495  1
  O  O306  1  0.20535896  0.03254975  0.27833798  1
  O  O307  1  0.19809799  0.02952511  0.60121249  1
  O  O308  1  0.20182613  0.04910834  0.93249168  1
  O  O309  1  0.19445492  0.52720119  0.26390297  1
  O  O310  1  0.19690100  0.52801429  0.60475623  1
  O  O311  1  0.19823354  0.53555574  0.93759168  1
  O  O312  1  0.70191451  0.03051428  0.26998519  1
  O  O313  1  0.70114675  0.03952295  0.60695476  1
  O  O314  1  0.70302947  0.03658246  0.94016383  1
  O  O315  1  0.70413994  0.52751905  0.26961911  1
  O  O316  1  0.70528909  0.52508569  0.60535728  1
  O  O317  1  0.71504266  0.52839777  0.93794128  1
  O  O318  1  0.07854300  0.09377448  0.05080558  1
  O  O319  1  0.08170178  0.07614856  0.35805210  1
  O  O320  1  0.08631058  0.08935358  0.69828786  1
  O  O321  1  0.07941738  0.58437708  0.03699741  1
  O  O322  1  0.09148950  0.60398485  0.38542979  1
  O  O323  1  0.07867178  0.58124779  0.69598761  1
  O  O324  1  0.58561499  0.09166821  0.04106976  1
  O  O325  1  0.58465259  0.09037758  0.37642281  1
  O  O326  1  0.58854625  0.09115159  0.70372820  1
  O  O327  1  0.60477675  0.58136297  0.03324205  1
  O  O328  1  0.58628875  0.58586093  0.36560978  1
  O  O329  1  0.58158919  0.58419513  0.71498122  1
  O  O330  1  0.41192297  0.41545907  0.13157256  1
  O  O331  1  0.41773701  0.41279211  0.47566211  1
  O  O332  1  0.41249918  0.42295350  0.79305873  1
  O  O333  1  0.40365438  0.88802152  0.14517218  1
  O  O334  1  0.41479907  0.91620902  0.47097157  1
  O  O335  1  0.40452052  0.89978302  0.78998332  1
  O  O336  1  0.90991868  0.41115484  0.12737623  1
  O  O337  1  0.90672025  0.41726853  0.45399959  1
  O  O338  1  0.92300413  0.41732417  0.78830376  1
  O  O339  1  0.90962860  0.91080362  0.13027675  1
  O  O340  1  0.91483284  0.92071981  0.46501611  1
  O  O341  1  0.90474584  0.91322160  0.78888807  1
  O  O342  1  0.41991769  0.41966840  0.29951006  1
  O  O343  1  0.41595613  0.41413643  0.62957972  1
  O  O344  1  0.41456439  0.41530133  0.96378267  1
  O  O345  1  0.41394453  0.90905973  0.30979112  1
  O  O346  1  0.40815073  0.90821544  0.63893813  1
  O  O347  1  0.41730907  0.91234275  0.96634285  1
  O  O348  1  0.91347796  0.40846946  0.29149020  1
  O  O349  1  0.92170230  0.41438914  0.62831760  1
  O  O350  1  0.92859067  0.41366410  0.95914349  1
  O  O351  1  0.91442638  0.91451953  0.29608036  1
  O  O352  1  0.91593203  0.91619931  0.62825588  1
  O  O353  1  0.90495687  0.90663882  0.95944656  1
  O  O354  1  0.09716280  0.09323400  0.21654594  1
  O  O355  1  0.08732613  0.08484227  0.53594145  1
  O  O356  1  0.08285699  0.09389592  0.86534370  1
  O  O357  1  0.08284766  0.58207571  0.19817914  1
  O  O358  1  0.08384355  0.58372638  0.54252697  1
  O  O359  1  0.08354777  0.58506102  0.87139448  1
  O  O360  1  0.59028352  0.08559620  0.20641690  1
  O  O361  1  0.58856496  0.08966468  0.53677081  1
  O  O362  1  0.59296992  0.09389285  0.87784170  1
  O  O363  1  0.58927424  0.57494405  0.20063448  1
  O  O364  1  0.58515676  0.56549755  0.53917698  1
  O  O365  1  0.60116862  0.58170599  0.87632533  1
  O  O366  1  0.13138755  0.22465565  0.06107747  1
  O  O367  1  0.13916242  0.21247598  0.39234603  1
  O  O368  1  0.13744521  0.22391404  0.71910209  1
  O  O369  1  0.13669023  0.71721978  0.06040717  1
  O  O370  1  0.13342094  0.73677625  0.39698786  1
  O  O371  1  0.13503368  0.71609154  0.72136712  1
  O  O372  1  0.64252566  0.22288950  0.05888596  1
  O  O373  1  0.64153740  0.22216573  0.39558228  1
  O  O374  1  0.63919958  0.22550076  0.72450984  1
  O  O375  1  0.64420755  0.72001431  0.06053418  1
  O  O376  1  0.64045225  0.72159125  0.39141491  1
  O  O377  1  0.62710836  0.71451706  0.72051082  1
  O  O378  1  0.27913745  0.36026107  0.11291185  1
  O  O379  1  0.28128762  0.35790532  0.44120073  1
  O  O380  1  0.28079476  0.36523405  0.77115932  1
  O  O381  1  0.26371600  0.85896017  0.11311828  1
  O  O382  1  0.27942877  0.86044184  0.44276476  1
  O  O383  1  0.26890449  0.86006776  0.77067288  1
  O  O384  1  0.77629582  0.36189035  0.10959416  1
  O  O385  1  0.77538475  0.36397503  0.44024468  1
  O  O386  1  0.79253588  0.36747757  0.77869084  1
  O  O387  1  0.77526736  0.86094179  0.11009472  1
  O  O388  1  0.78210448  0.86369908  0.44481287  1
  O  O389  1  0.77262940  0.86219226  0.77322811  1
  O  O390  1  0.36354928  0.28491355  0.27444353  1
  O  O391  1  0.36345970  0.27914926  0.60630750  1
  O  O392  1  0.36217450  0.28448605  0.95176090  1
  O  O393  1  0.35876857  0.77433249  0.27813407  1
  O  O394  1  0.35012410  0.77294273  0.60492992  1
  O  O395  1  0.36705384  0.77588115  0.93603270  1
  O  O396  1  0.86621336  0.27560526  0.27660419  1
  O  O397  1  0.86611147  0.28254459  0.61099289  1
  O  O398  1  0.86855737  0.28383247  0.94538643  1
  O  O399  1  0.86304906  0.78040811  0.27739293  1
  O  O400  1  0.85709871  0.78315209  0.60370222  1
  O  O401  1  0.85493074  0.77377058  0.94327163  1
  O  O402  1  0.23073343  0.13717824  0.23078097  1
  O  O403  1  0.22210919  0.13981257  0.56012108  1
  O  O404  1  0.20707237  0.12092231  0.84577149  1
  O  O405  1  0.21579895  0.63626448  0.21998283  1
  O  O406  1  0.21572708  0.63209559  0.55464796  1
  O  O407  1  0.21598085  0.64299406  0.89022736  1
  O  O408  1  0.72344257  0.13959134  0.22652752  1
  O  O409  1  0.72252318  0.14348629  0.55830047  1
  O  O410  1  0.72642497  0.14096399  0.89222462  1
  O  O411  1  0.72152718  0.63836062  0.22771703  1
  O  O412  1  0.71313552  0.63213468  0.55626975  1
  O  O413  1  0.73164265  0.63773884  0.89384389  1
  O  O414  1  0.49573132  0.33901599  0.03109303  1
  O  O415  1  0.49215065  0.33733019  0.36735452  1
  O  O416  1  0.49176778  0.33473035  0.69876264  1
  O  O417  1  0.49712932  0.82945826  0.02533622  1
  O  O418  1  0.48900870  0.82563049  0.37181876  1
  O  O419  1  0.48008533  0.81761321  0.69703171  1
  O  O420  1  0.99894270  0.33601941  0.03165345  1
  O  O421  1  0.99952629  0.33583698  0.35983824  1
  O  O422  1  0.99789406  0.33474400  0.69728111  1
  O  O423  1  0.98600593  0.83001930  0.02877697  1
  O  O424  1  0.99249629  0.83804875  0.36552336  1
  O  O425  1  0.98711462  0.83366778  0.69517279  1
  O  O426  1  0.16784071  0.00733282  0.14436422  1
  O  O427  1  0.16793771  0.01089287  0.46838898  1
  O  O428  1  0.13867324  -0.00687595  0.79411008  1
  O  O429  1  0.16273325  0.50538048  0.13108334  1
  O  O430  1  0.15522971  0.49965103  0.47010473  1
  O  O431  1  0.16334383  0.51122939  0.80331724  1
  O  O432  1  0.66849721  0.00928406  0.13670684  1
  O  O433  1  0.66847080  0.01099732  0.47221549  1
  O  O434  1  0.66659546  0.01158352  0.80621867  1
  O  O435  1  0.67611684  0.50753499  0.13592318  1
  O  O436  1  0.66801547  0.50100958  0.46937759  1
  O  O437  1  0.68141756  0.50746719  0.80576536  1
  O  O438  1  0.00806406  0.16561241  0.30206768  1
  O  O439  1  0.00688063  0.16745801  0.63235580  1
  O  O440  1  0.00402687  0.16776793  0.97200361  1
  O  O441  1  0.00742536  0.67240965  0.30761322  1
  O  O442  1  0.00341899  0.66749716  0.63529623  1
  O  O443  1  0.00513713  0.66630947  0.97182043  1
  O  O444  1  0.51085857  0.17112280  0.30703795  1
  O  O445  1  0.50804539  0.16963397  0.63895030  1
  O  O446  1  0.50888647  0.17043134  0.97361431  1
  O  O447  1  0.51213957  0.66524656  0.29733192  1
  O  O448  1  0.49727323  0.64728233  0.63508218  1
  O  O449  1  0.51443912  0.65804276  0.97313490  1
  O  O450  1  0.33121542  0.49256964  0.19684678  1
  O  O451  1  0.32919421  0.49008963  0.52892029  1
  O  O452  1  0.33086810  0.49450094  0.86305720  1
  O  O453  1  0.33032214  0.98497871  0.20275248  1
  O  O454  1  0.33107967  0.99040479  0.53400474  1
  O  O455  1  0.33304020  0.99032947  0.85858509  1
  O  O456  1  0.83580518  0.49024755  0.20112689  1
  O  O457  1  0.83230223  0.49318267  0.52943919  1
  O  O458  1  0.85267620  0.50066384  0.85997124  1
  O  O459  1  0.83192693  0.99237423  0.19551755  1
  O  O460  1  0.83339454  0.99587995  0.53075156  1
  O  O461  1  0.83048713  0.99293960  0.86098930  1
