# generated using pymatgen
data_Na31Fe20(SO4)36
_symmetry_space_group_name_H-M   'P 1'
_cell_length_a   18.08656837
_cell_length_b   18.08557865
_cell_length_c   19.71253635
_cell_angle_alpha   107.57221416
_cell_angle_beta   107.57817775
_cell_angle_gamma   90.77940662
_symmetry_Int_Tables_number   1
_chemical_formula_structural   Na31Fe20(SO4)36
_chemical_formula_sum   'Na62 Fe40 S72 O288'
_cell_volume   5821.08653810
_cell_formula_units_Z   2
loop_
 _symmetry_equiv_pos_site_id
 _symmetry_equiv_pos_as_xyz
  1  'x, y, z'
loop_
 _atom_site_type_symbol
 _atom_site_label
 _atom_site_symmetry_multiplicity
 _atom_site_fract_x
 _atom_site_fract_y
 _atom_site_fract_z
 _atom_site_occupancy
  Na  Na0  1  0.15322984  0.35445274  0.08712648  1
  Na  Na1  1  0.13477578  0.36501150  0.41535689  1
  Na  Na2  1  0.14125007  0.36894797  0.75331326  1
  Na  Na3  1  0.12900681  0.86162214  0.07913682  1
  Na  Na4  1  0.12934078  0.85645050  0.40289560  1
  Na  Na5  1  0.13590615  0.86511982  0.74462067  1
  Na  Na6  1  0.63296355  0.36991130  0.08711665  1
  Na  Na7  1  0.62906875  0.37565212  0.41815921  1
  Na  Na8  1  0.63260452  0.36784504  0.74926394  1
  Na  Na9  1  0.61937850  0.83198560  0.05749079  1
  Na  Na10  1  0.63110466  0.87612253  0.42082638  1
  Na  Na11  1  0.63998014  0.86579542  0.75498473  1
  Na  Na12  1  0.36391341  0.12832817  0.23973456  1
  Na  Na13  1  0.35916310  0.13410174  0.58428724  1
  Na  Na14  1  0.35190599  0.13101683  0.90744730  1
  Na  Na15  1  0.37020485  0.63455219  0.25349120  1
  Na  Na16  1  0.35946388  0.63624477  0.57910254  1
  Na  Na17  1  0.36701628  0.64210250  0.91901014  1
  Na  Na18  1  0.87250306  0.12641092  0.24875525  1
  Na  Na19  1  0.86599051  0.12398026  0.58214181  1
  Na  Na20  1  0.86616440  0.13519121  0.91983880  1
  Na  Na21  1  0.86874596  0.64324951  0.24765681  1
  Na  Na22  1  0.86503757  0.64232089  0.58693153  1
  Na  Na23  1  0.86830332  0.64544857  0.92662418  1
  Na  Na24  1  0.48966045  0.54733440  0.75775485  1
  Na  Na25  1  1.00209130  -0.07899408  0.19918674  1
  Na  Na26  1  0.43432286  0.00023511  0.72962024  1
  Na  Na27  1  1.00159730  0.56495624  0.10264518  1
  Na  Na28  1  0.51708396  -0.04644896  0.13551551  1
  Na  Na29  1  0.48746279  0.51633925  0.09580078  1
  Na  Na30  1  0.98872334  0.51496847  0.41679708  1
  Na  Na31  1  0.99650692  0.51154318  0.74929748  1
  Na  Na32  1  0.97851642  0.01294106  0.73972112  1
  Na  Na33  1  0.05158459  0.49572107  0.59754817  1
  Na  Na34  1  0.50154892  0.50516142  0.56802464  1
  Na  Na35  1  0.01360039  0.48905181  0.91630978  1
  Na  Na36  1  0.50262292  0.99036830  0.57135921  1
  Na  Na37  1  0.05214050  0.99083965  0.59037618  1
  Na  Na38  1  0.49604756  0.98396952  0.93378427  1
  Na  Na39  1  0.49269798  0.50970068  0.91354311  1
  Na  Na40  1  0.00778943  0.98761622  0.92680087  1
  Na  Na41  1  0.00225614  0.50553710  0.24669163  1
  Na  Na42  1  0.74178184  0.24816040  0.33960082  1
  Na  Na43  1  0.25964424  0.25671964  0.31818259  1
  Na  Na44  1  0.23568469  0.22936167  0.67600437  1
  Na  Na45  1  0.74467967  0.75255690  0.67430075  1
  Na  Na46  1  0.75793267  0.75875237  -0.01843261  1
  Na  Na47  1  0.76093039  0.76494124  0.32576917  1
  Na  Na48  1  0.74494088  0.24543797  0.00555996  1
  Na  Na49  1  0.74314244  0.24525654  0.67078532  1
  Na  Na50  1  0.25947594  0.76149010  0.65719795  1
  Na  Na51  1  0.25394978  0.74946138  0.00478414  1
  Na  Na52  1  0.74944045  0.24502540  0.83596641  1
  Na  Na53  1  0.24604740  0.74702606  0.83118830  1
  Na  Na54  1  0.24528720  0.24475880  0.50303208  1
  Na  Na55  1  0.74322758  0.24408026  0.50589681  1
  Na  Na56  1  0.23704048  0.73486676  0.18554823  1
  Na  Na57  1  0.75917553  0.75750628  0.15289070  1
  Na  Na58  1  0.25792595  0.76566415  0.47933552  1
  Na  Na59  1  0.23559058  0.23489180  0.84780721  1
  Na  Na60  1  0.76064693  0.77161252  0.49746301  1
  Na  Na61  1  0.74634787  0.24638675  0.17302692  1
  Fe  Fe62  1  0.46875880  0.79975228  0.79119183  1
  Fe  Fe63  1  0.96563553  0.30867383  0.45127179  1
  Fe  Fe64  1  0.46003838  0.31385996  0.12118399  1
  Fe  Fe65  1  0.96972733  0.30606606  0.11897446  1
  Fe  Fe66  1  0.46122385  0.80512374  0.45004001  1
  Fe  Fe67  1  0.96267744  0.80911181  0.78478332  1
  Fe  Fe68  1  0.96600525  0.80812240  0.45361284  1
  Fe  Fe69  1  0.46357599  0.30773269  0.44973623  1
  Fe  Fe70  1  0.96421808  0.30756020  0.78463050  1
  Fe  Fe71  1  0.46790570  0.30979448  0.78548954  1
  Fe  Fe72  1  0.68710183  0.53912181  0.37786060  1
  Fe  Fe73  1  0.19588431  0.53098144  0.05056801  1
  Fe  Fe74  1  0.68845212  0.53246630  0.04501389  1
  Fe  Fe75  1  0.19139705  0.03299883  0.37879302  1
  Fe  Fe76  1  0.69411695  0.03334996  0.37896131  1
  Fe  Fe77  1  0.69105982  0.03748050  0.04410525  1
  Fe  Fe78  1  0.69963985  0.02904552  0.70794889  1
  Fe  Fe79  1  0.69273515  0.53782381  0.71867933  1
  Fe  Fe80  1  0.19342042  0.04118048  0.05175716  1
  Fe  Fe81  1  0.19044883  0.53450884  0.37824894  1
  Fe  Fe82  1  0.53228602  0.70354586  0.21332117  1
  Fe  Fe83  1  0.53247824  0.19203544  0.21017247  1
  Fe  Fe84  1  0.03985197  0.18396903  0.21067004  1
  Fe  Fe85  1  0.03600947  0.19066372  0.88299777  1
  Fe  Fe86  1  0.53524957  0.68829815  0.54279491  1
  Fe  Fe87  1  0.03185872  0.18911490  0.54189959  1
  Fe  Fe88  1  0.53129465  0.19331083  0.54205487  1
  Fe  Fe89  1  0.03436033  0.69094022  0.54976828  1
  Fe  Fe90  1  0.53295535  0.19311726  0.87702865  1
  Fe  Fe91  1  0.03484260  0.69509921  0.88357692  1
  Fe  Fe92  1  0.31565107  0.96458578  0.29141029  1
  Fe  Fe93  1  0.80477336  0.46741630  0.28419573  1
  Fe  Fe94  1  0.31160707  0.46218377  0.28444107  1
  Fe  Fe95  1  0.81289251  0.96231592  0.95534834  1
  Fe  Fe96  1  0.30156542  0.46970428  0.62269176  1
  Fe  Fe97  1  0.30432469  0.46433489  0.94935520  1
  Fe  Fe98  1  0.81016184  0.46561350  0.95357724  1
  Fe  Fe99  1  0.81389743  0.96526526  0.29055031  1
  Fe  Fe100  1  0.30473218  0.96857784  0.95660850  1
  Fe  Fe101  1  0.80695283  0.46708442  0.61724381  1
  S  S102  1  0.36007923  0.14321153  0.08162916  1
  S  S103  1  0.35715294  0.14207997  0.41363552  1
  S  S104  1  0.35951298  0.14751513  0.75116555  1
  S  S105  1  0.36092393  0.63604748  0.08438125  1
  S  S106  1  0.35925860  0.63654753  0.41758560  1
  S  S107  1  0.35589371  0.64340492  0.74641585  1
  S  S108  1  0.86089508  0.14208370  0.08348189  1
  S  S109  1  0.85632250  0.14563878  0.41463868  1
  S  S110  1  0.85991034  0.14557418  0.75224275  1
  S  S111  1  0.85390449  0.63928786  0.08214595  1
  S  S112  1  0.85769276  0.64040776  0.41730965  1
  S  S113  1  0.85882316  0.63980807  0.75004666  1
  S  S114  1  0.14138484  0.35649340  0.25030501  1
  S  S115  1  0.13985947  0.35583434  0.58395217  1
  S  S116  1  0.13842562  0.35909732  0.91393123  1
  S  S117  1  0.15575363  0.85646116  0.25356602  1
  S  S118  1  0.14174496  0.85093881  0.58141118  1
  S  S119  1  0.13877211  0.86182337  0.91758991  1
  S  S120  1  0.63951617  0.36109887  0.24904776  1
  S  S121  1  0.63936196  0.36382174  0.58260755  1
  S  S122  1  0.64350165  0.35697402  0.91600920  1
  S  S123  1  0.64561583  0.86149664  0.24811652  1
  S  S124  1  0.63809758  0.85929061  0.58247048  1
  S  S125  1  0.63723837  0.86529269  0.91574597  1
  S  S126  1  0.06622778  0.16948729  0.04239328  1
  S  S127  1  0.06765349  0.17365302  0.37528190  1
  S  S128  1  0.05938801  0.16980907  0.70915869  1
  S  S129  1  0.07330700  0.66395021  0.04062434  1
  S  S130  1  0.06069225  0.66128058  0.37475899  1
  S  S131  1  0.05993025  0.66862372  0.71190862  1
  S  S132  1  0.56835093  0.17414600  0.04159156  1
  S  S133  1  0.57166190  0.17791368  0.37720314  1
  S  S134  1  0.57014368  0.17005550  0.70594029  1
  S  S135  1  0.56336980  0.65574556  0.04083042  1
  S  S136  1  0.57093339  0.67735058  0.37812295  1
  S  S137  1  0.56610828  0.66876037  0.70522497  1
  S  S138  1  0.33362048  0.43351921  0.12554061  1
  S  S139  1  0.32670633  0.43028622  0.45696573  1
  S  S140  1  0.33318461  0.43185837  0.78922328  1
  S  S141  1  0.32173682  0.93129296  0.12254798  1
  S  S142  1  0.33307573  0.93942004  0.45896380  1
  S  S143  1  0.33354780  0.92445155  0.79358657  1
  S  S144  1  0.83233010  0.42962279  0.12484504  1
  S  S145  1  0.83412592  0.43632484  0.45848198  1
  S  S146  1  0.83169577  0.43473524  0.79066408  1
  S  S147  1  0.81713796  0.92898004  0.11558159  1
  S  S148  1  0.83002117  0.93621607  0.45922457  1
  S  S149  1  0.83408446  0.93816956  0.79336926  1
  S  S150  1  0.43228420  0.32647445  0.28912585  1
  S  S151  1  0.43387322  0.33460495  0.62314184  1
  S  S152  1  0.43445559  0.33226029  0.95691115  1
  S  S153  1  0.43319852  0.82773668  0.29190210  1
  S  S154  1  0.43550709  0.82396566  0.62175267  1
  S  S155  1  0.42916206  0.83142649  0.95715128  1
  S  S156  1  0.93296185  0.33527091  0.29039937  1
  S  S157  1  0.93233375  0.33327399  0.62410602  1
  S  S158  1  0.93609015  0.33338452  0.95874019  1
  S  S159  1  0.93288033  0.83321176  0.29152213  1
  S  S160  1  0.93755160  0.83256724  0.62398443  1
  S  S161  1  0.93524404  0.83010540  0.95610237  1
  S  S162  1  0.17365929  0.06503154  0.21149001  1
  S  S163  1  0.16447921  0.07045764  0.53773177  1
  S  S164  1  0.16155266  0.06042841  0.87390263  1
  S  S165  1  0.17181383  0.55519118  0.20989562  1
  S  S166  1  0.16863403  0.56336802  0.54012102  1
  S  S167  1  0.16803996  0.56417149  0.87529727  1
  S  S168  1  0.67347488  0.07058041  0.20950305  1
  S  S169  1  0.66631555  0.07189357  0.54123360  1
  S  S170  1  0.67317214  0.07320333  0.87410782  1
  S  S171  1  0.67276137  0.57053618  0.21187561  1
  S  S172  1  0.67301089  0.56887748  0.54448583  1
  S  S173  1  0.66793410  0.55911433  0.87663430  1
  O  O174  1  0.37400881  0.22121652  0.07466950  1
  O  O175  1  0.36770589  0.22037664  0.40437658  1
  O  O176  1  0.37610288  0.22696035  0.74413457  1
  O  O177  1  0.36676406  0.70937106  0.06951968  1
  O  O178  1  0.36783606  0.71772169  0.41501872  1
  O  O179  1  0.37519069  0.72247481  0.73639853  1
  O  O180  1  0.87136450  0.21947784  0.07166592  1
  O  O181  1  0.86694997  0.22498114  0.40661128  1
  O  O182  1  0.86519392  0.22782002  0.74848261  1
  O  O183  1  0.85169272  0.71398150  0.06744674  1
  O  O184  1  0.86674101  0.72004136  0.41099829  1
  O  O185  1  0.86635034  0.71708843  0.73853496  1
  O  O186  1  0.28363939  0.13546445  0.09325871  1
  O  O187  1  0.27743652  0.13337969  0.41939825  1
  O  O188  1  0.28432853  0.14613736  0.76454860  1
  O  O189  1  0.28402600  0.62409668  0.09692084  1
  O  O190  1  0.28118530  0.62662576  0.42807249  1
  O  O191  1  0.27624691  0.64142271  0.74802679  1
  O  O192  1  0.78101210  0.13690757  0.09103572  1
  O  O193  1  0.77494728  0.13782404  0.41847335  1
  O  O194  1  0.77884362  0.13331462  0.75528915  1
  O  O195  1  0.77617562  0.62053944  0.09127117  1
  O  O196  1  0.77948238  0.63141198  0.42656894  1
  O  O197  1  0.77960178  0.62888436  0.75568443  1
  O  O198  1  0.12803140  0.27876926  0.25987473  1
  O  O199  1  0.13036153  0.27466687  0.58745742  1
  O  O200  1  0.12957183  0.27797537  0.91575267  1
  O  O201  1  0.15315076  0.78223939  0.26715273  1
  O  O202  1  0.12803802  0.77187583  0.59171553  1
  O  O203  1  0.13108496  0.78297864  0.92690731  1
  O  O204  1  0.63279727  0.28074788  0.25508267  1
  O  O205  1  0.63026335  0.28375526  0.58821479  1
  O  O206  1  0.63373582  0.27678703  0.92132777  1
  O  O207  1  0.63368695  0.78330334  0.25756617  1
  O  O208  1  0.62888533  0.77917203  0.58946159  1
  O  O209  1  0.63407910  0.79373835  0.93456393  1
  O  O210  1  0.22215454  0.36314524  0.24747429  1
  O  O211  1  0.21862111  0.36651792  0.57590772  1
  O  O212  1  0.21561536  0.36966995  0.90237155  1
  O  O213  1  0.23869924  0.87361125  0.25095721  1
  O  O214  1  0.21845324  0.85421454  0.57188823  1
  O  O215  1  0.21876638  0.87156466  0.91206978  1
  O  O216  1  0.71758951  0.37101384  0.23812759  1
  O  O217  1  0.71728159  0.37182657  0.57156666  1
  O  O218  1  0.72238582  0.36583555  0.90765572  1
  O  O219  1  0.72903070  0.86787685  0.24853715  1
  O  O220  1  0.71132642  0.86946952  0.56829352  1
  O  O221  1  0.71362250  0.88072720  0.90547309  1
  O  O222  1  0.42146074  0.13163989  0.14748646  1
  O  O223  1  0.41500219  0.13737577  0.48339889  1
  O  O224  1  0.42116822  0.13600107  0.81824793  1
  O  O225  1  0.42258915  0.63086446  0.15308284  1
  O  O226  1  0.41969239  0.62437745  0.48292122  1
  O  O227  1  0.41266051  0.63391381  0.81345901  1
  O  O228  1  0.91833046  0.13776535  0.15358349  1
  O  O229  1  0.91142510  0.14072947  0.48541103  1
  O  O230  1  0.91588398  0.14064346  0.82389034  1
  O  O231  1  0.91511198  0.63732057  0.14973853  1
  O  O232  1  0.91709971  0.62900937  0.48363154  1
  O  O233  1  0.91741283  0.63304077  0.81901239  1
  O  O234  1  0.36436577  0.08377205  0.01147206  1
  O  O235  1  0.36653070  0.08225379  0.34620057  1
  O  O236  1  0.36327480  0.08842171  0.68316291  1
  O  O237  1  0.36969558  0.57064660  0.01909561  1
  O  O238  1  0.36459434  0.58092970  0.34717270  1
  O  O239  1  0.36575177  0.58368092  0.67780640  1
  O  O240  1  0.86826652  0.08047579  0.01744574  1
  O  O241  1  0.86552409  0.08675288  0.34806477  1
  O  O242  1  0.87455741  0.09050413  0.68805788  1
  O  O243  1  0.86621619  0.57775906  0.01531784  1
  O  O244  1  0.86515522  0.58212364  0.34818573  1
  O  O245  1  0.87040438  0.57924058  0.68371957  1
  O  O246  1  0.08552925  0.36308041  0.17975626  1
  O  O247  1  0.08092095  0.36490282  0.51468785  1
  O  O248  1  0.07710953  0.37301035  0.84958169  1
  O  O249  1  0.10279345  0.85863326  0.18163373  1
  O  O250  1  0.08111598  0.85684180  0.51121418  1
  O  O251  1  0.08091646  0.86696898  0.84783657  1
  O  O252  1  0.57881091  0.36951388  0.18281151  1
  O  O253  1  0.57847375  0.37547066  0.51752616  1
  O  O254  1  0.58457767  0.36666000  0.84886524  1
  O  O255  1  0.59406715  0.86798383  0.17780453  1
  O  O256  1  0.57187798  0.87170843  0.52065737  1
  O  O257  1  0.57628248  0.86068584  0.84171104  1
  O  O258  1  0.12936562  0.41738334  0.31555413  1
  O  O259  1  0.12979000  0.41213821  0.65045353  1
  O  O260  1  0.13308403  0.41457638  0.98465351  1
  O  O261  1  0.14000814  0.91947045  0.31611784  1
  O  O262  1  0.13243678  0.91096219  0.64638543  1
  O  O263  1  0.12738338  0.92178997  0.98327171  1
  O  O264  1  0.63628135  0.41853102  0.31956260  1
  O  O265  1  0.63510973  0.42122705  0.65294128  1
  O  O266  1  0.63680861  0.41345835  0.98575840  1
  O  O267  1  0.63528156  0.92145260  0.31490908  1
  O  O268  1  0.63545369  0.91652132  0.65495016  1
  O  O269  1  0.61961452  0.93158195  0.97411290  1
  O  O270  1  0.03133388  0.19972452  0.10542291  1
  O  O271  1  0.02542617  0.20157990  0.43269718  1
  O  O272  1  0.02260527  0.20504476  0.77014386  1
  O  O273  1  0.04368562  0.68702373  0.10340152  1
  O  O274  1  0.02634120  0.69157916  0.43791816  1
  O  O275  1  0.02358305  0.70507970  0.77266044  1
  O  O276  1  0.53429006  0.20325620  0.10363618  1
  O  O277  1  0.53167207  0.20610693  0.43638183  1
  O  O278  1  0.53552415  0.19961142  0.76815211  1
  O  O279  1  0.53858054  0.68753402  0.10767069  1
  O  O280  1  0.52977034  0.70407673  0.43633364  1
  O  O281  1  0.53047128  0.69965003  0.76567104  1
  O  O282  1  0.29620551  0.46273148  0.06013997  1
  O  O283  1  0.29827915  0.46639862  0.39606889  1
  O  O284  1  0.31191749  0.46814954  0.72955402  1
  O  O285  1  0.29362496  0.97687224  0.06769993  1
  O  O286  1  0.30506286  0.97479950  0.39416220  1
  O  O287  1  0.31525197  0.95551428  0.73176280  1
  O  O288  1  0.80192056  0.46071405  0.06097523  1
  O  O289  1  0.80300817  0.46959758  0.39555028  1
  O  O290  1  0.80070784  0.46901471  0.72853864  1
  O  O291  1  0.78697024  0.97325124  0.05927873  1
  O  O292  1  0.80097407  0.97457017  0.39731605  1
  O  O293  1  0.80614490  0.97608847  0.73523231  1
  O  O294  1  0.47200994  0.29835084  0.22989899  1
  O  O295  1  0.46991936  0.30309099  0.56139151  1
  O  O296  1  0.47535616  0.30430756  0.89889738  1
  O  O297  1  0.47109785  0.80377480  0.23348723  1
  O  O298  1  0.47308633  0.78655424  0.56296489  1
  O  O299  1  0.46266220  0.80707642  0.89334189  1
  O  O300  1  0.96776890  0.30553241  0.22911313  1
  O  O301  1  0.96724261  0.30305218  0.56240316  1
  O  O302  1  0.97214300  0.30171637  0.89791734  1
  O  O303  1  0.96835087  0.81700254  0.23259890  1
  O  O304  1  0.96863269  0.79133775  0.56052909  1
  O  O305  1  0.96750746  0.79745120  0.89019222  1
  O  O306  1  0.20785914  0.02658051  0.27070009  1
  O  O307  1  0.18117388  0.04013408  0.60016144  1
  O  O308  1  0.19679330  0.03309429  0.94184884  1
  O  O309  1  0.20923453  0.51984625  0.27170534  1
  O  O310  1  0.19474215  0.52505090  0.59838130  1
  O  O311  1  0.20077265  0.53293172  0.94100838  1
  O  O312  1  0.70393866  0.03218447  0.26841388  1
  O  O313  1  0.69053809  0.03756971  0.60209413  1
  O  O314  1  0.70356320  0.04048760  0.93725590  1
  O  O315  1  0.70167056  0.53239566  0.27287370  1
  O  O316  1  0.70232516  0.53045711  0.60427647  1
  O  O317  1  0.70413633  0.52207234  0.93709025  1
  O  O318  1  0.08384402  0.08807784  0.03824736  1
  O  O319  1  0.08909039  0.09473574  0.37069304  1
  O  O320  1  0.06788303  0.08839131  0.70527494  1
  O  O321  1  0.08929315  0.57816025  0.02759634  1
  O  O322  1  0.08141357  0.57918550  0.37416036  1
  O  O323  1  0.07092667  0.58795773  0.71118096  1
  O  O324  1  0.58702921  0.09251222  0.03488891  1
  O  O325  1  0.59796062  0.10154016  0.37710558  1
  O  O326  1  0.58958480  0.08915031  0.69893936  1
  O  O327  1  0.57968338  0.57097757  0.03515258  1
  O  O328  1  0.59192816  0.59802416  0.37644422  1
  O  O329  1  0.58468422  0.58693544  0.70482860  1
  O  O330  1  0.41603969  0.42161472  0.12634097  1
  O  O331  1  0.40888841  0.41266345  0.46372533  1
  O  O332  1  0.41691113  0.41405874  0.80198415  1
  O  O333  1  0.39889061  0.91041846  0.12431120  1
  O  O334  1  0.40910745  0.90853883  0.45649937  1
  O  O335  1  0.41822644  0.90281713  0.80753433  1
  O  O336  1  0.91452975  0.41203152  0.13210142  1
  O  O337  1  0.91704159  0.42097135  0.46455066  1
  O  O338  1  0.91407624  0.41788984  0.79483230  1
  O  O339  1  0.89054711  0.90338550  0.10752331  1
  O  O340  1  0.90835551  0.91085711  0.46011082  1
  O  O341  1  0.91701884  0.92046983  0.79806353  1
  O  O342  1  0.40856157  0.40432577  0.28906633  1
  O  O343  1  0.41779649  0.41649185  0.62816248  1
  O  O344  1  0.41658686  0.41428471  0.96172512  1
  O  O345  1  0.40862007  0.90824642  0.29609900  1
  O  O346  1  0.43125445  0.90576892  0.62476741  1
  O  O347  1  0.40774118  0.91346424  0.96597482  1
  O  O348  1  0.91617757  0.41831432  0.29674817  1
  O  O349  1  0.91532503  0.41573424  0.62958855  1
  O  O350  1  0.92034047  0.41547173  0.96200043  1
  O  O351  1  0.91377308  0.91629764  0.30953966  1
  O  O352  1  0.93358518  0.91405914  0.62723829  1
  O  O353  1  0.91564151  0.91089445  0.95540969  1
  O  O354  1  0.09410588  0.08325174  0.21326657  1
  O  O355  1  0.08083587  0.09016165  0.52042280  1
  O  O356  1  0.08010680  0.08178348  0.87435608  1
  O  O357  1  0.09140934  0.56499303  0.21034927  1
  O  O358  1  0.08535993  0.58051351  0.53500910  1
  O  O359  1  0.08603489  0.58394152  0.87299201  1
  O  O360  1  0.59337699  0.09088736  0.20815171  1
  O  O361  1  0.58420219  0.09151987  0.53174012  1
  O  O362  1  0.59155487  0.09077961  0.86800756  1
  O  O363  1  0.59292736  0.59061573  0.20744544  1
  O  O364  1  0.59107348  0.58427807  0.53974013  1
  O  O365  1  0.58555977  0.56510112  0.87106582  1
  O  O366  1  0.13461909  0.22061273  0.05401303  1
  O  O367  1  0.13690623  0.23007598  0.39531789  1
  O  O368  1  0.13394036  0.21909821  0.72879251  1
  O  O369  1  0.14542085  0.71217121  0.05160914  1
  O  O370  1  0.13111597  0.71209460  0.38889775  1
  O  O371  1  0.13226619  0.71758790  0.72671799  1
  O  O372  1  0.64024646  0.22655919  0.05821231  1
  O  O373  1  0.63894075  0.23714253  0.39519577  1
  O  O374  1  0.64056566  0.22455935  0.72228784  1
  O  O375  1  0.63611134  0.70158048  0.04938821  1
  O  O376  1  0.64061581  0.73263290  0.39716084  1
  O  O377  1  0.63557655  0.71905568  0.71584406  1
  O  O378  1  0.28977871  0.36152314  0.11766633  1
  O  O379  1  0.27526336  0.35824139  0.43981453  1
  O  O380  1  0.27999000  0.36116317  0.77153114  1
  O  O381  1  0.26411201  0.86330436  0.10181859  1
  O  O382  1  0.27394197  0.87638690  0.44625022  1
  O  O383  1  0.28042786  0.85436054  0.77983136  1
  O  O384  1  0.78094961  0.35926412  0.11310145  1
  O  O385  1  0.78421433  0.36444613  0.44475681  1
  O  O386  1  0.78082223  0.36334491  0.77614658  1
  O  O387  1  0.75763859  0.86269303  0.09806462  1
  O  O388  1  0.77310724  0.86586702  0.43776631  1
  O  O389  1  0.78349815  0.86635616  0.77747045  1
  O  O390  1  0.36631380  0.26962843  0.27489256  1
  O  O391  1  0.36282474  0.28287501  0.60739916  1
  O  O392  1  0.36354367  0.27972431  0.93791828  1
  O  O393  1  0.36568387  0.77177938  0.27713539  1
  O  O394  1  0.35917758  0.77798417  0.60136597  1
  O  O395  1  0.35835205  0.77741436  0.93885495  1
  O  O396  1  0.86123681  0.28496716  0.27612405  1
  O  O397  1  0.86074477  0.28273488  0.60994994  1
  O  O398  1  0.86333240  0.28371275  0.94326889  1
  O  O399  1  0.85999296  0.77876571  0.26993447  1
  O  O400  1  0.86166626  0.78829999  0.61026167  1
  O  O401  1  0.86362541  0.77963885  0.94075883  1
  O  O402  1  0.22520304  0.13583503  0.22659927  1
  O  O403  1  0.21873643  0.14218679  0.55475316  1
  O  O404  1  0.21136804  0.13012961  0.88336621  1
  O  O405  1  0.21967905  0.62708814  0.22320112  1
  O  O406  1  0.21921880  0.63494889  0.55605609  1
  O  O407  1  0.21866816  0.63594417  0.88937048  1
  O  O408  1  0.72730319  0.14168482  0.22659752  1
  O  O409  1  0.72017887  0.14350212  0.55861242  1
  O  O410  1  0.72537150  0.14529426  0.89018256  1
  O  O411  1  0.72780469  0.63946660  0.22873781  1
  O  O412  1  0.72399427  0.64136721  0.56321319  1
  O  O413  1  0.71448264  0.63315020  0.89299742  1
  O  O414  1  0.49192193  0.33526272  0.03094002  1
  O  O415  1  0.49255707  0.33524912  0.36361748  1
  O  O416  1  0.49380450  0.33556862  0.69518475  1
  O  O417  1  0.48991487  0.83348766  0.02636683  1
  O  O418  1  0.49250370  0.83495271  0.36639586  1
  O  O419  1  0.48699516  0.82097309  0.69716239  1
  O  O420  1  0.99444378  0.33482527  0.03113062  1
  O  O421  1  0.99225546  0.33826685  0.36336626  1
  O  O422  1  0.99218246  0.33681749  0.69679853  1
  O  O423  1  0.99659555  0.83455765  0.02499956  1
  O  O424  1  0.98873844  0.82465377  0.36215959  1
  O  O425  1  0.99393653  0.82849112  0.69637061  1
  O  O426  1  0.16637138  0.00817539  0.13658246  1
  O  O427  1  0.16949102  0.01084791  0.46778783  1
  O  O428  1  0.15302005  -0.00377078  0.80571208  1
  O  O429  1  0.16917438  0.49667200  0.13612690  1
  O  O430  1  0.16456651  0.50514996  0.46586808  1
  O  O431  1  0.16212801  0.50226124  0.80587830  1
  O  O432  1  0.66653361  0.01345340  0.13493795  1
  O  O433  1  0.66749652  0.01361069  0.46962239  1
  O  O434  1  0.67347597  0.01385031  0.80301406  1
  O  O435  1  0.67109172  0.50898917  0.14054941  1
  O  O436  1  0.67273705  0.51189447  0.47166865  1
  O  O437  1  0.67130246  0.50264752  0.80363413  1
  O  O438  1  0.00964275  0.17281117  0.30207906  1
  O  O439  1  0.00476767  0.17323285  0.63607455  1
  O  O440  1  0.00281782  0.16560915  0.97118253  1
  O  O441  1  -0.00019867  0.65076851  0.30303509  1
  O  O442  1  0.00278690  0.66539661  0.63718579  1
  O  O443  1  0.01104622  0.66339004  0.96877501  1
  O  O444  1  0.51250972  0.17224612  0.30392429  1
  O  O445  1  0.50956995  0.16948410  0.63460926  1
  O  O446  1  0.50913453  0.17234038  0.96968176  1
  O  O447  1  0.51369019  0.67363712  0.30449574  1
  O  O448  1  0.50550069  0.65707187  0.63004651  1
  O  O449  1  0.50018518  0.65045634  0.97183495  1
  O  O450  1  0.33706093  0.49615240  0.19640038  1
  O  O451  1  0.32839338  0.48911414  0.52960276  1
  O  O452  1  0.33324108  0.49146591  0.86167116  1
  O  O453  1  0.32463862  0.98744344  0.19899009  1
  O  O454  1  0.34884857  1.00355813  0.52931032  1
  O  O455  1  0.33515888  0.98642327  0.86534130  1
  O  O456  1  0.83506986  0.49212704  0.19606714  1
  O  O457  1  0.83467947  0.49634731  0.52995784  1
  O  O458  1  0.83585369  0.49414023  0.86337615  1
  O  O459  1  0.82803654  0.98544980  0.19227778  1
  O  O460  1  0.83370149  0.99395850  0.52987234  1
  O  O461  1  0.83894455  0.99526889  0.86865729  1
