# generated using pymatgen
data_Na31Fe20(SO4)36
_symmetry_space_group_name_H-M   'P 1'
_cell_length_a   18.07959286
_cell_length_b   18.07346323
_cell_length_c   19.70958663
_cell_angle_alpha   107.60656836
_cell_angle_beta   107.58872393
_cell_angle_gamma   90.70435582
_symmetry_Int_Tables_number   1
_chemical_formula_structural   Na31Fe20(SO4)36
_chemical_formula_sum   'Na62 Fe40 S72 O288'
_cell_volume   5813.41612532
_cell_formula_units_Z   2
loop_
 _symmetry_equiv_pos_site_id
 _symmetry_equiv_pos_as_xyz
  1  'x, y, z'
loop_
 _atom_site_type_symbol
 _atom_site_label
 _atom_site_symmetry_multiplicity
 _atom_site_fract_x
 _atom_site_fract_y
 _atom_site_fract_z
 _atom_site_occupancy
  Na  Na0  1  0.13505196  0.36764847  0.08787179  1
  Na  Na1  1  0.10183019  0.36623902  0.40179785  1
  Na  Na2  1  0.12891010  0.37757717  0.75039574  1
  Na  Na3  1  0.12906980  0.87098285  0.08705622  1
  Na  Na4  1  0.14171412  0.86929686  0.42476520  1
  Na  Na5  1  0.12822909  0.85674740  0.74993619  1
  Na  Na6  1  0.63646896  0.36794393  0.08863298  1
  Na  Na7  1  0.64492108  0.36763712  0.42186928  1
  Na  Na8  1  0.64273708  0.36314751  0.76262956  1
  Na  Na9  1  0.64257100  0.86531681  0.09294748  1
  Na  Na10  1  0.63293644  0.86517239  0.41161559  1
  Na  Na11  1  0.63038041  0.87027333  0.74812773  1
  Na  Na12  1  0.37439730  0.15053107  0.27069824  1
  Na  Na13  1  0.35758691  0.13472422  0.56558222  1
  Na  Na14  1  0.36082010  0.13319072  0.91363840  1
  Na  Na15  1  0.36826825  0.63188994  0.25226413  1
  Na  Na16  1  0.36587582  0.62881331  0.58390794  1
  Na  Na17  1  0.36093456  0.62952125  0.90875102  1
  Na  Na18  1  0.88452288  0.15434292  0.27329505  1
  Na  Na19  1  0.86511179  0.14063560  0.58590589  1
  Na  Na20  1  0.86348516  0.14177467  0.91621085  1
  Na  Na21  1  0.85122768  0.63094808  0.24634751  1
  Na  Na22  1  0.87181978  0.63215958  0.58582698  1
  Na  Na23  1  0.85311066  0.63291382  0.91331397  1
  Na  Na24  1  1.02679960  0.47333780  0.58241972  1
  Na  Na25  1  0.49490371  0.50540158  0.41837680  1
  Na  Na26  1  0.98803676  -0.00092651  0.74807335  1
  Na  Na27  1  0.98982574  0.05261266  0.18336177  1
  Na  Na28  1  0.47547377  0.50938356  0.75066324  1
  Na  Na29  1  0.49252067  0.00307067  0.08866785  1
  Na  Na30  1  1.04957962  -0.00388146  0.35951681  1
  Na  Na31  1  0.48981329  0.51215310  0.07592795  1
  Na  Na32  1  0.95008463  0.50176190  0.08439596  1
  Na  Na33  1  0.48905870  1.03501962  0.55057015  1
  Na  Na34  1  0.00293834  0.95894679  0.91623313  1
  Na  Na35  1  0.51544006  0.47661055  0.58738063  1
  Na  Na36  1  0.52618349  0.48709597  0.91730686  1
  Na  Na37  1  0.48586172  1.00662915  0.29559252  1
  Na  Na38  1  0.51028403  0.99454974  0.90358367  1
  Na  Na39  1  -0.01739433  0.50895147  0.91590713  1
  Na  Na40  1  0.52570857  0.49286737  0.24921026  1
  Na  Na41  1  0.00077006  1.00500187  0.56371680  1
  Na  Na42  1  0.24072067  0.74415398  0.00551322  1
  Na  Na43  1  0.74273932  0.74154016  0.01409366  1
  Na  Na44  1  0.25823320  0.25697259  0.65175087  1
  Na  Na45  1  0.77362692  0.27551525  0.33056528  1
  Na  Na46  1  0.76766888  0.76206502  0.66083778  1
  Na  Na47  1  0.24587805  0.74617488  0.33785390  1
  Na  Na48  1  0.24199886  0.24287875  0.00810908  1
  Na  Na49  1  0.76317324  0.27258514  -0.01888554  1
  Na  Na50  1  0.23664548  0.73229564  0.67361498  1
  Na  Na51  1  0.73384493  0.23944044  0.67774307  1
  Na  Na52  1  0.23395320  0.73209305  0.83706383  1
  Na  Na53  1  0.24267779  0.74555201  0.17133497  1
  Na  Na54  1  0.25359358  0.25611188  0.82680363  1
  Na  Na55  1  0.76277440  0.76311442  0.82781726  1
  Na  Na56  1  0.75328491  0.26338316  0.15509947  1
  Na  Na57  1  0.76091650  0.25804839  0.49779116  1
  Na  Na58  1  0.23138008  0.23729065  0.18788579  1
  Na  Na59  1  0.76253562  0.75815747  0.48711502  1
  Na  Na60  1  0.24163556  0.23899132  0.45679744  1
  Na  Na61  1  0.24339716  0.74059576  0.50666743  1
  Fe  Fe62  1  0.96183123  0.81629755  0.12652297  1
  Fe  Fe63  1  0.46521077  0.80528461  0.78337398  1
  Fe  Fe64  1  0.46429745  0.30141960  0.78223172  1
  Fe  Fe65  1  0.47488884  0.30113197  0.45553436  1
  Fe  Fe66  1  0.46685419  0.80603498  0.45551814  1
  Fe  Fe67  1  0.96309102  0.31026163  0.78980954  1
  Fe  Fe68  1  0.46247022  0.30656270  0.11861534  1
  Fe  Fe69  1  0.46557435  0.80736858  0.11995814  1
  Fe  Fe70  1  0.96251608  0.80438906  0.44859506  1
  Fe  Fe71  1  0.96746119  0.30388266  0.12680678  1
  Fe  Fe72  1  0.69455325  0.03547069  0.38287194  1
  Fe  Fe73  1  0.19033265  0.03544224  0.05113979  1
  Fe  Fe74  1  0.70597896  0.52551595  0.05010542  1
  Fe  Fe75  1  0.69627918  0.53274383  0.71870338  1
  Fe  Fe76  1  0.69267220  0.03932362  0.05005452  1
  Fe  Fe77  1  0.18917097  0.53543250  0.04475370  1
  Fe  Fe78  1  0.70354726  0.53042099  0.38112319  1
  Fe  Fe79  1  0.18866642  0.53113938  0.37546977  1
  Fe  Fe80  1  0.68837376  0.03868604  0.71241111  1
  Fe  Fe81  1  0.19028789  0.03344830  0.71348941  1
  Fe  Fe82  1  0.02894513  0.69521800  0.87182351  1
  Fe  Fe83  1  0.03158351  0.68814120  0.54349989  1
  Fe  Fe84  1  0.03537461  0.19141482  0.87940866  1
  Fe  Fe85  1  0.53368091  0.19272714  0.21467723  1
  Fe  Fe86  1  0.03294122  0.69422632  0.21293998  1
  Fe  Fe87  1  0.03290189  0.19692476  0.53806128  1
  Fe  Fe88  1  0.53872527  0.69451104  0.21692535  1
  Fe  Fe89  1  0.53587870  0.69260947  0.55016578  1
  Fe  Fe90  1  0.53412332  0.18678029  0.87819509  1
  Fe  Fe91  1  0.53469561  0.69416431  0.88306806  1
  Fe  Fe92  1  0.81077267  0.96216477  0.28823153  1
  Fe  Fe93  1  0.29808960  0.46293882  0.61652026  1
  Fe  Fe94  1  0.30561251  0.96338360  0.95281453  1
  Fe  Fe95  1  0.30719083  0.46130839  0.28446795  1
  Fe  Fe96  1  0.81975441  0.46450423  0.62723359  1
  Fe  Fe97  1  0.80862089  0.96866882  0.95529705  1
  Fe  Fe98  1  0.30497081  0.96440990  0.61768938  1
  Fe  Fe99  1  0.80777342  0.96509296  0.61683609  1
  Fe  Fe100  1  0.30330560  0.96918659  0.29345132  1
  Fe  Fe101  1  0.30349677  0.46743977  0.95033890  1
  S  S102  1  0.35870516  0.13828102  0.08183244  1
  S  S103  1  0.37943125  0.13259425  0.42027426  1
  S  S104  1  0.35729610  0.13721613  0.74921401  1
  S  S105  1  0.36101216  0.64134475  0.08350833  1
  S  S106  1  0.36105852  0.63574652  0.41659953  1
  S  S107  1  0.36065703  0.63981076  0.74872377  1
  S  S108  1  0.85314055  0.14350938  0.07944323  1
  S  S109  1  0.85898579  0.13739862  0.41960966  1
  S  S110  1  0.86019225  0.14025012  0.74894986  1
  S  S111  1  0.86210154  0.64387608  0.08415094  1
  S  S112  1  0.85820396  0.64421735  0.41710897  1
  S  S113  1  0.85445470  0.64259488  0.75534028  1
  S  S114  1  0.14065725  0.35912824  0.24492953  1
  S  S115  1  0.14353245  0.35411847  0.58169844  1
  S  S116  1  0.14257145  0.35758568  0.91665481  1
  S  S117  1  0.14101965  0.85764872  0.25070681  1
  S  S118  1  0.13891531  0.85869780  0.58356612  1
  S  S119  1  0.14189880  0.85952841  0.91739030  1
  S  S120  1  0.63587582  0.36001012  0.24957403  1
  S  S121  1  0.64526357  0.36298514  0.58597001  1
  S  S122  1  0.63438698  0.35693767  0.91878361  1
  S  S123  1  0.63649979  0.86446118  0.25050192  1
  S  S124  1  0.64121634  0.85766449  0.58495654  1
  S  S125  1  0.63980490  0.86177021  0.91886758  1
  S  S126  1  0.06501673  0.17004073  0.04055587  1
  S  S127  1  0.07153355  0.16577494  0.37941778  1
  S  S128  1  0.06665715  0.16743226  0.70738543  1
  S  S129  1  0.06543781  0.67245511  0.04135765  1
  S  S130  1  0.07088353  0.67470301  0.37688282  1
  S  S131  1  0.06487268  0.66634769  0.70598253  1
  S  S132  1  0.56087733  0.16649583  0.04089863  1
  S  S133  1  0.57883623  0.17571549  0.37653700  1
  S  S134  1  0.56029220  0.16903850  0.70827255  1
  S  S135  1  0.56435578  0.66936775  0.04175032  1
  S  S136  1  0.56714218  0.66795456  0.37792247  1
  S  S137  1  0.56912050  0.66902245  0.71141944  1
  S  S138  1  0.33413537  0.43542400  0.12346156  1
  S  S139  1  0.33580107  0.42907414  0.45724459  1
  S  S140  1  0.33580847  0.43129488  0.79239832  1
  S  S141  1  0.33181506  0.93181344  0.12648791  1
  S  S142  1  0.33255746  0.92590360  0.45836075  1
  S  S143  1  0.32808660  0.92899734  0.78998606  1
  S  S144  1  0.82797065  0.42871391  0.12330381  1
  S  S145  1  0.83365017  0.43682342  0.46603551  1
  S  S146  1  0.83057164  0.43400513  0.79248704  1
  S  S147  1  0.82798988  0.93866489  0.12563693  1
  S  S148  1  0.82861177  0.93329868  0.45878143  1
  S  S149  1  0.82821692  0.94102291  0.79083692  1
  S  S150  1  0.43350453  0.33410211  0.29172861  1
  S  S151  1  0.43154516  0.33385912  0.62331642  1
  S  S152  1  0.42804366  0.32877740  0.95713062  1
  S  S153  1  0.42717352  0.82453080  0.29000885  1
  S  S154  1  0.42951973  0.82651524  0.62198701  1
  S  S155  1  0.43216604  0.83051023  0.95675745  1
  S  S156  1  0.92335453  0.32748227  0.28074478  1
  S  S157  1  0.93796803  0.32705958  0.62685082  1
  S  S158  1  0.94118891  0.33157286  0.95962388  1
  S  S159  1  0.93626582  0.83152423  0.29400514  1
  S  S160  1  0.93681964  0.83536864  0.62445839  1
  S  S161  1  0.93089099  0.82857803  0.96037480  1
  S  S162  1  0.18309180  0.06767386  0.21036032  1
  S  S163  1  0.16676920  0.06647008  0.54488337  1
  S  S164  1  0.16883702  0.06431870  0.87557582  1
  S  S165  1  0.17114544  0.57050682  0.20751003  1
  S  S166  1  0.17161365  0.56570952  0.53961304  1
  S  S167  1  0.16872281  0.56830678  0.87882167  1
  S  S168  1  0.66843611  0.07126660  0.20912525  1
  S  S169  1  0.67616494  0.06657500  0.54715562  1
  S  S170  1  0.66929173  0.06646729  0.87775952  1
  S  S171  1  0.66166252  0.56787127  0.20692216  1
  S  S172  1  0.66786470  0.56985196  0.54414348  1
  S  S173  1  0.66107710  0.56563846  0.87741222  1
  O  O174  1  0.36989366  0.21578137  0.07091309  1
  O  O175  1  0.39084817  0.20800767  0.40413467  1
  O  O176  1  0.36474539  0.21704308  0.74176899  1
  O  O177  1  0.36990349  0.71965007  0.07379285  1
  O  O178  1  0.37034750  0.71338704  0.40617075  1
  O  O179  1  0.37421070  0.71700751  0.73699146  1
  O  O180  1  0.86791552  0.22289197  0.07120313  1
  O  O181  1  0.86097713  0.21234294  0.40642889  1
  O  O182  1  0.87178527  0.21865537  0.74050844  1
  O  O183  1  0.86984510  0.72673952  0.08380094  1
  O  O184  1  0.86454117  0.72891983  0.42051750  1
  O  O185  1  0.85678071  0.72185520  0.75092253  1
  O  O186  1  0.27750519  0.13134036  0.08402762  1
  O  O187  1  0.30309937  0.12795257  0.43116027  1
  O  O188  1  0.28075677  0.12915790  0.76325283  1
  O  O189  1  0.28157207  0.63314693  0.09051841  1
  O  O190  1  0.28182487  0.62709839  0.42362206  1
  O  O191  1  0.28447483  0.63553493  0.75893394  1
  O  O192  1  0.76952507  0.13838939  0.07811092  1
  O  O193  1  0.78434921  0.12416849  0.43567231  1
  O  O194  1  0.77992189  0.13261076  0.75298226  1
  O  O195  1  0.78097121  0.62906305  0.08472108  1
  O  O196  1  0.77968895  0.63180355  0.42712771  1
  O  O197  1  0.77814572  0.62689916  0.76930365  1
  O  O198  1  0.14008925  0.28170791  0.25042517  1
  O  O199  1  0.13056512  0.27022076  0.58389807  1
  O  O200  1  0.13647797  0.27720420  0.92246635  1
  O  O201  1  0.13519791  0.77393239  0.25033380  1
  O  O202  1  0.13179527  0.77756247  0.58717316  1
  O  O203  1  0.13264198  0.77867830  0.92176181  1
  O  O204  1  0.62302818  0.28174217  0.25804879  1
  O  O205  1  0.63904878  0.28696570  0.59509581  1
  O  O206  1  0.61917567  0.28056437  0.93084264  1
  O  O207  1  0.62680078  0.78790204  0.26198485  1
  O  O208  1  0.62965163  0.78064144  0.59702336  1
  O  O209  1  0.62946568  0.78326593  0.92757425  1
  O  O210  1  0.21486699  0.37785454  0.22844467  1
  O  O211  1  0.22629299  0.35795737  0.57890527  1
  O  O212  1  0.22078497  0.36916874  0.90700760  1
  O  O213  1  0.21991345  0.86968460  0.24164632  1
  O  O214  1  0.21663440  0.86936903  0.57230658  1
  O  O215  1  0.22321437  0.86771193  0.91203008  1
  O  O216  1  0.71099921  0.36687367  0.23819740  1
  O  O217  1  0.72214433  0.37764051  0.57519402  1
  O  O218  1  0.70956482  0.36115816  0.90753170  1
  O  O219  1  0.71414025  0.87583994  0.24200962  1
  O  O220  1  0.72234351  0.86289581  0.58067659  1
  O  O221  1  0.71825455  0.86990626  0.91011040  1
  O  O222  1  0.41499909  0.13190622  0.15196718  1
  O  O223  1  0.44144740  0.12463401  0.48409549  1
  O  O224  1  0.41858953  0.12886522  0.81573583  1
  O  O225  1  0.41972614  0.63400105  0.15197356  1
  O  O226  1  0.42006030  0.62892388  0.48543677  1
  O  O227  1  0.42240614  0.63216270  0.81664401  1
  O  O228  1  0.90422535  0.13432750  0.14831616  1
  O  O229  1  0.92250355  0.13489443  0.48944549  1
  O  O230  1  0.91752004  0.13204188  0.81810302  1
  O  O231  1  0.91810421  0.63494454  0.15455147  1
  O  O232  1  0.91756700  0.63484174  0.48525334  1
  O  O233  1  0.91651965  0.63330019  0.82120995  1
  O  O234  1  0.36994059  0.07660250  0.01615212  1
  O  O235  1  0.38114183  0.06899741  0.34855208  1
  O  O236  1  0.36006772  0.07918045  0.67909429  1
  O  O237  1  0.37079472  0.58112062  0.01655546  1
  O  O238  1  0.37086280  0.57474741  0.34999653  1
  O  O239  1  0.36867782  0.57778243  0.68191238  1
  O  O240  1  0.86268458  0.08491891  0.01152097  1
  O  O241  1  0.86636463  0.07412769  0.35393471  1
  O  O242  1  0.87268101  0.08002542  0.68327377  1
  O  O243  1  0.87823594  0.59053584  0.01885046  1
  O  O244  1  0.86504430  0.59305879  0.34798338  1
  O  O245  1  0.85944495  0.58615254  0.68486019  1
  O  O246  1  0.07567555  0.36732608  0.17881300  1
  O  O247  1  0.08911083  0.36635640  0.51571115  1
  O  O248  1  0.08212377  0.36631471  0.85040187  1
  O  O249  1  0.08133481  0.86721247  0.18371595  1
  O  O250  1  0.07771628  0.87109484  0.51927701  1
  O  O251  1  0.08450197  0.87267134  0.85324392  1
  O  O252  1  0.57242022  0.37010495  0.18319954  1
  O  O253  1  0.58379979  0.37283470  0.51838979  1
  O  O254  1  0.57200749  0.36784654  0.85264762  1
  O  O255  1  0.57668856  0.86902460  0.18042361  1
  O  O256  1  0.58553981  0.86086718  0.51315048  1
  O  O257  1  0.57968312  0.86989735  0.85063024  1
  O  O258  1  0.13622544  0.41874524  0.31440438  1
  O  O259  1  0.13746305  0.40829027  0.65127848  1
  O  O260  1  0.13745878  0.41452164  0.98703746  1
  O  O261  1  0.13412173  0.90969596  0.32044449  1
  O  O262  1  0.13534076  0.91439548  0.65513730  1
  O  O263  1  0.13603264  0.91602431  0.98841330  1
  O  O264  1  0.62855744  0.42009261  0.31838908  1
  O  O265  1  0.63424917  0.42446883  0.65307121  1
  O  O266  1  0.62753811  0.41913818  0.98725507  1
  O  O267  1  0.62475669  0.92606043  0.31596901  1
  O  O268  1  0.63079566  0.91948145  0.64952566  1
  O  O269  1  0.63134551  0.92166724  0.98636239  1
  O  O270  1  0.02550949  0.20097394  0.09736894  1
  O  O271  1  0.02831882  0.18848811  0.43793121  1
  O  O272  1  0.03121608  0.19668730  0.76909538  1
  O  O273  1  0.03019050  0.70132702  0.10284091  1
  O  O274  1  0.03210897  0.70341176  0.43667916  1
  O  O275  1  0.03054418  0.69414043  0.76771129  1
  O  O276  1  0.52508837  0.19662145  0.10246821  1
  O  O277  1  0.55126070  0.21151229  0.44018042  1
  O  O278  1  0.53143212  0.20207519  0.77617467  1
  O  O279  1  0.52982722  0.70231474  0.10422372  1
  O  O280  1  0.52894279  0.69768018  0.43810888  1
  O  O281  1  0.53468530  0.70168040  0.77370279  1
  O  O282  1  0.30362728  0.47246629  0.06318701  1
  O  O283  1  0.30277848  0.46301823  0.39428287  1
  O  O284  1  0.31425743  0.46643026  0.73229682  1
  O  O285  1  0.30154969  0.97097920  0.06762909  1
  O  O286  1  0.30661830  0.95428331  0.39342495  1
  O  O287  1  0.29955153  0.96568351  0.72936976  1
  O  O288  1  0.80555168  0.46267854  0.05962464  1
  O  O289  1  0.79768608  0.46938638  0.40423765  1
  O  O290  1  0.80082270  0.46655827  0.72716155  1
  O  O291  1  0.79853285  0.97732538  0.06564192  1
  O  O292  1  0.79429391  0.96224039  0.39321591  1
  O  O293  1  0.79201395  0.97542942  0.72889280  1
  O  O294  1  0.46408482  0.29880534  0.22716760  1
  O  O295  1  0.46976562  0.31617762  0.56504157  1
  O  O296  1  0.45926052  0.29660603  0.89365038  1
  O  O297  1  0.46445376  0.79684455  0.22928390  1
  O  O298  1  0.46822608  0.79610603  0.56203483  1
  O  O299  1  0.46788026  0.80029122  0.89522516  1
  O  O300  1  0.96430532  0.29767768  0.22002698  1
  O  O301  1  0.97705203  0.29415348  0.56918420  1
  O  O302  1  0.97861700  0.29554387  0.89887047  1
  O  O303  1  0.97450035  0.80144892  0.23329640  1
  O  O304  1  0.97098949  0.80301027  0.56203740  1
  O  O305  1  0.97194903  0.80148767  0.90448571  1
  O  O306  1  0.21069314  0.02862553  0.26926708  1
  O  O307  1  0.19511900  0.03230439  0.60940812  1
  O  O308  1  0.19751145  0.02765880  0.93648531  1
  O  O309  1  0.20093900  0.53641520  0.26984063  1
  O  O310  1  0.20092974  0.52686093  0.59715269  1
  O  O311  1  0.20137084  0.53328906  0.94339723  1
  O  O312  1  0.69915401  0.03738058  0.27120540  1
  O  O313  1  0.70933894  0.02450534  0.60532074  1
  O  O314  1  0.69884062  0.02662400  0.93663288  1
  O  O315  1  0.67888877  0.53333266  0.26806549  1
  O  O316  1  0.69615209  0.53706499  0.60684499  1
  O  O317  1  0.67977013  0.53043235  0.93779946  1
  O  O318  1  0.08434616  0.08885981  0.03665703  1
  O  O319  1  0.12525127  0.10947109  0.39797841  1
  O  O320  1  0.07932815  0.08294531  0.69956159  1
  O  O321  1  0.08364693  0.59020097  0.03509096  1
  O  O322  1  0.09348629  0.59635811  0.37412742  1
  O  O323  1  0.07901349  0.58496877  0.69116381  1
  O  O324  1  0.57790646  0.08387040  0.03598080  1
  O  O325  1  0.59399684  0.09320372  0.37203871  1
  O  O326  1  0.58829962  0.09160786  0.70954611  1
  O  O327  1  0.57971180  0.58749583  0.03776695  1
  O  O328  1  0.58401463  0.58619592  0.37381371  1
  O  O329  1  0.58374750  0.58642424  0.70635212  1
  O  O330  1  0.41770609  0.42149887  0.12959139  1
  O  O331  1  0.42077784  0.42032133  0.46444615  1
  O  O332  1  0.42013306  0.41441319  0.80618510  1
  O  O333  1  0.41367635  0.91500615  0.12822181  1
  O  O334  1  0.41643233  0.91000267  0.47206239  1
  O  O335  1  0.40991028  0.91033553  0.79649440  1
  O  O336  1  0.90678911  0.39857887  0.12285695  1
  O  O337  1  0.91497128  0.42645253  0.47474907  1
  O  O338  1  0.91176424  0.41281140  0.79607895  1
  O  O339  1  0.91028776  0.92339874  0.13117830  1
  O  O340  1  0.90721028  0.90950425  0.45826675  1
  O  O341  1  0.90993826  0.93152018  0.79495432  1
  O  O342  1  0.42130518  0.41776197  0.29575905  1
  O  O343  1  0.41049694  0.41669600  0.63519116  1
  O  O344  1  0.41274789  0.41188987  0.96377618  1
  O  O345  1  0.40380393  0.90365852  0.29261927  1
  O  O346  1  0.40687842  0.90477465  0.62366100  1
  O  O347  1  0.41591508  0.91324498  0.96223184  1
  O  O348  1  0.90324642  0.40502918  0.28313719  1
  O  O349  1  0.92282040  0.40815402  0.62814721  1
  O  O350  1  0.93777437  0.41449021  0.96593281  1
  O  O351  1  0.91845085  0.91271347  0.29529694  1
  O  O352  1  0.91089847  0.91450520  0.62058574  1
  O  O353  1  0.90873851  0.90875246  0.96003473  1
  O  O354  1  0.11076386  0.09919469  0.21168001  1
  O  O355  1  0.08910474  0.09647821  0.54705336  1
  O  O356  1  0.08630057  0.08080365  0.86740019  1
  O  O357  1  0.09004323  0.58912746  0.19962259  1
  O  O358  1  0.09253775  0.58816316  0.53838832  1
  O  O359  1  0.09142643  0.59333921  0.88216830  1
  O  O360  1  0.58469571  0.08554850  0.20139042  1
  O  O361  1  0.59983312  0.08638189  0.55027348  1
  O  O362  1  0.58786013  0.08316187  0.87691128  1
  O  O363  1  0.57531107  0.58352252  0.19188079  1
  O  O364  1  0.58329688  0.58465013  0.53660926  1
  O  O365  1  0.57603662  0.58233542  0.86234989  1
  O  O366  1  0.13765621  0.22222537  0.05811629  1
  O  O367  1  0.11496007  0.23652185  0.38257417  1
  O  O368  1  0.14005176  0.21611412  0.72466038  1
  O  O369  1  0.13791667  0.72448908  0.05900202  1
  O  O370  1  0.14119232  0.73059255  0.39547647  1
  O  O371  1  0.13821153  0.72006868  0.72600457  1
  O  O372  1  0.63075402  0.21842333  0.05598731  1
  O  O373  1  0.64979698  0.22153414  0.38154310  1
  O  O374  1  0.62469425  0.22460953  0.71642877  1
  O  O375  1  0.63427601  0.72012368  0.05404367  1
  O  O376  1  0.63664989  0.72096257  0.39395858  1
  O  O377  1  0.64051379  0.71932803  0.72560927  1
  O  O378  1  0.28563095  0.36202471  0.10606719  1
  O  O379  1  0.29207333  0.35487476  0.44316713  1
  O  O380  1  0.28421606  0.35912317  0.77507098  1
  O  O381  1  0.28085477  0.85943782  0.10876304  1
  O  O382  1  0.28232504  0.85459101  0.44615894  1
  O  O383  1  0.27577804  0.85843758  0.77478791  1
  O  O384  1  0.76996539  0.35986368  0.10346633  1
  O  O385  1  0.78415608  0.36236248  0.45036642  1
  O  O386  1  0.77745808  0.36453000  0.77719888  1
  O  O387  1  0.77689815  0.86621850  0.10577103  1
  O  O388  1  0.77453078  0.86947156  0.45441895  1
  O  O389  1  0.77982502  0.86661875  0.77424703  1
  O  O390  1  0.36024707  0.28870762  0.27958451  1
  O  O391  1  0.36221456  0.27771114  0.60293020  1
  O  O392  1  0.35592527  0.27965513  0.94467356  1
  O  O393  1  0.35843033  0.76917819  0.27431100  1
  O  O394  1  0.36145648  0.77043135  0.60651566  1
  O  O395  1  0.36095264  0.77945168  0.94161504  1
  O  O396  1  0.85179194  0.26968070  0.25602741  1
  O  O397  1  0.86418969  0.27801235  0.60951933  1
  O  O398  1  0.86579432  0.28558817  0.93913859  1
  O  O399  1  0.86789574  0.77957238  0.28083896  1
  O  O400  1  0.86751689  0.78162866  0.61140403  1
  O  O401  1  0.85974862  0.77573102  0.94396404  1
  O  O402  1  0.24480798  0.12787669  0.21939365  1
  O  O403  1  0.22463880  0.13131072  0.55815064  1
  O  O404  1  0.22067835  0.13630251  0.89354395  1
  O  O405  1  0.22530590  0.64070682  0.22347082  1
  O  O406  1  0.22627143  0.63690310  0.55695815  1
  O  O407  1  0.22523085  0.63822147  0.89691236  1
  O  O408  1  0.71676454  0.14278753  0.22109393  1
  O  O409  1  0.73121633  0.13639240  0.56548593  1
  O  O410  1  0.71996018  0.13826687  0.89529655  1
  O  O411  1  0.71134896  0.63890702  0.22313178  1
  O  O412  1  0.71637117  0.64250604  0.55814738  1
  O  O413  1  0.71192413  0.63863560  0.89710129  1
  O  O414  1  0.48908749  0.33025677  0.02867610  1
  O  O415  1  0.49475844  0.33597387  0.36284565  1
  O  O416  1  0.48978699  0.33427610  0.69648402  1
  O  O417  1  0.49214780  0.83378572  0.02927218  1
  O  O418  1  0.48751276  0.82884182  0.36252680  1
  O  O419  1  0.49022277  0.83128913  0.69497477  1
  O  O420  1  0.99462391  0.32577053  0.03300531  1
  O  O421  1  0.97671624  0.32000456  0.34978167  1
  O  O422  1  0.99319643  0.32983015  0.70173569  1
  O  O423  1  0.98691902  0.83628705  0.03652989  1
  O  O424  1  0.99811932  0.83863452  0.36733238  1
  O  O425  1  0.99664875  0.85030565  0.69730336  1
  O  O426  1  0.17101759  0.00381457  0.13518580  1
  O  O427  1  0.15360103  0.00182384  0.47535151  1
  O  O428  1  0.16871214  0.00596524  0.80319134  1
  O  O429  1  0.17144402  0.51023678  0.13595730  1
  O  O430  1  0.16695319  0.50895267  0.46475047  1
  O  O431  1  0.16439612  0.50866360  0.80942057  1
  O  O432  1  0.66534743  0.00975766  0.13642156  1
  O  O433  1  0.67214566  0.00865681  0.47280989  1
  O  O434  1  0.66514718  0.00925722  0.80386570  1
  O  O435  1  0.66316173  0.50688918  0.13565424  1
  O  O436  1  0.66518550  0.51018962  0.47161275  1
  O  O437  1  0.66526100  0.50728232  0.80680205  1
  O  O438  1  0.00868733  0.12807541  0.30697872  1
  O  O439  1  0.00889319  0.16829436  0.63504754  1
  O  O440  1  0.00931014  0.16469151  0.96470454  1
  O  O441  1  0.01268988  0.67269349  0.30441808  1
  O  O442  1  0.00755461  0.67782426  0.63688383  1
  O  O443  1  0.00718297  0.67101503  0.96909939  1
  O  O444  1  0.51357831  0.16890675  0.30420820  1
  O  O445  1  0.49244381  0.15661859  0.64119879  1
  O  O446  1  0.50080207  0.16200482  0.96778992  1
  O  O447  1  0.50801982  0.66416357  0.30406924  1
  O  O448  1  0.50855517  0.66719020  0.63948469  1
  O  O449  1  0.50273960  0.66632240  0.96931880  1
  O  O450  1  0.33447018  0.49286774  0.19628542  1
  O  O451  1  0.33380343  0.48884084  0.52851955  1
  O  O452  1  0.33335028  0.49069296  0.86401097  1
  O  O453  1  0.33730870  0.98772872  0.20151157  1
  O  O454  1  0.32985494  0.98912568  0.52724163  1
  O  O455  1  0.33134109  0.98945545  0.86289459  1
  O  O456  1  0.83447217  0.48939097  0.19294057  1
  O  O457  1  0.82776348  0.49493537  0.53815838  1
  O  O458  1  0.83689233  0.49680755  0.86205549  1
  O  O459  1  0.82834825  0.99550631  0.19839828  1
  O  O460  1  0.84122490  0.99977743  0.53005613  1
  O  O461  1  0.82660046  0.99728666  0.86382022  1
