# generated using pymatgen
data_Na31Fe20(SO4)36
_symmetry_space_group_name_H-M   'P 1'
_cell_length_a   18.07838637
_cell_length_b   18.08301711
_cell_length_c   19.71223629
_cell_angle_alpha   107.59362294
_cell_angle_beta   107.56284246
_cell_angle_gamma   90.73807057
_symmetry_Int_Tables_number   1
_chemical_formula_structural   Na31Fe20(SO4)36
_chemical_formula_sum   'Na62 Fe40 S72 O288'
_cell_volume   5817.85720868
_cell_formula_units_Z   2
loop_
 _symmetry_equiv_pos_site_id
 _symmetry_equiv_pos_as_xyz
  1  'x, y, z'
loop_
 _atom_site_type_symbol
 _atom_site_label
 _atom_site_symmetry_multiplicity
 _atom_site_fract_x
 _atom_site_fract_y
 _atom_site_fract_z
 _atom_site_occupancy
  Na  Na0  1  0.13216877  0.36204076  0.07876184  1
  Na  Na1  1  0.14677317  0.36336255  0.41516426  1
  Na  Na2  1  0.13768166  0.37234435  0.76213779  1
  Na  Na3  1  0.13345060  0.86695693  0.08001162  1
  Na  Na4  1  0.15113974  0.87094560  0.42851653  1
  Na  Na5  1  0.12965363  0.84982251  0.74263847  1
  Na  Na6  1  0.62430940  0.36512163  0.06938091  1
  Na  Na7  1  0.63364283  0.37067049  0.41996759  1
  Na  Na8  1  0.63092474  0.36252261  0.75628657  1
  Na  Na9  1  0.61538021  0.84395350  0.04924419  1
  Na  Na10  1  0.63622324  0.86506280  0.41324869  1
  Na  Na11  1  0.64070759  0.84822451  0.76055174  1
  Na  Na12  1  0.36455090  0.13682582  0.25277181  1
  Na  Na13  1  0.33084878  0.12014163  0.55582858  1
  Na  Na14  1  0.38170780  0.12829634  0.91344401  1
  Na  Na15  1  0.36347295  0.63110603  0.24662541  1
  Na  Na16  1  0.36156993  0.63555941  0.58625523  1
  Na  Na17  1  0.36538875  0.63310406  0.91005966  1
  Na  Na18  1  0.86644762  0.13416201  0.24965669  1
  Na  Na19  1  0.86558482  0.13885991  0.58722704  1
  Na  Na20  1  0.85624572  0.13503001  0.91087463  1
  Na  Na21  1  0.86739338  0.63165235  0.24613611  1
  Na  Na22  1  0.87562178  0.64859532  0.60267644  1
  Na  Na23  1  0.83558864  0.65154548  0.90876256  1
  Na  Na24  1  1.00688188  -0.00441608  0.40574562  1
  Na  Na25  1  0.47992946  0.00244230  0.42203439  1
  Na  Na26  1  1.01086905  -0.01626745  0.75244645  1
  Na  Na27  1  0.51180215  -0.04435657  0.80770181  1
  Na  Na28  1  0.98611813  0.51443738  0.76266302  1
  Na  Na29  1  1.00029910  0.51591434  0.05512174  1
  Na  Na30  1  0.48019482  0.50815285  0.42819293  1
  Na  Na31  1  1.02524055  0.49540578  0.40724647  1
  Na  Na32  1  0.98385680  0.01081322  0.08427249  1
  Na  Na33  1  0.00366638  0.95393644  0.90498248  1
  Na  Na34  1  0.05167138  0.99197109  0.25841736  1
  Na  Na35  1  0.48272426  0.51014973  0.92067590  1
  Na  Na36  1  0.47906990  0.50644817  0.63057158  1
  Na  Na37  1  0.44973128  1.02441748  0.63298692  1
  Na  Na38  1  0.01086273  0.49379503  0.58079098  1
  Na  Na39  1  0.01323366  0.99035126  0.58170893  1
  Na  Na40  1  0.50629266  0.49724115  0.23456062  1
  Na  Na41  1  0.04089556  0.49568924  0.24875929  1
  Na  Na42  1  0.74558333  0.24943754  -0.01262563  1
  Na  Na43  1  0.25548371  0.75300738  -0.00590528  1
  Na  Na44  1  0.75452158  0.75335361  0.32785189  1
  Na  Na45  1  0.28116109  0.77511408  0.66807401  1
  Na  Na46  1  0.24750511  0.24679307  0.66336139  1
  Na  Na47  1  0.25722726  0.74697775  0.33154077  1
  Na  Na48  1  0.26006845  0.26708067  -0.00626502  1
  Na  Na49  1  0.73736743  0.24063943  0.68290074  1
  Na  Na50  1  0.75131875  0.74667201  0.68123937  1
  Na  Na51  1  0.74099017  0.24935062  0.33737227  1
  Na  Na52  1  0.26084185  0.75807884  0.16117458  1
  Na  Na53  1  0.25438923  0.25145270  0.48129395  1
  Na  Na54  1  0.74780918  0.74458864  0.50574695  1
  Na  Na55  1  0.25950598  0.26021579  0.83203220  1
  Na  Na56  1  0.24495427  0.24927550  0.17636499  1
  Na  Na57  1  0.74955611  0.25028385  0.16446132  1
  Na  Na58  1  0.74180546  0.24364986  0.50718107  1
  Na  Na59  1  0.75504909  0.75819506  0.14206348  1
  Na  Na60  1  0.27310608  0.75498805  0.82308869  1
  Na  Na61  1  0.26322621  0.75947070  0.50059959  1
  Fe  Fe62  1  0.47190217  0.80832997  0.45945859  1
  Fe  Fe63  1  0.46388223  0.30867653  0.11568130  1
  Fe  Fe64  1  0.96430693  0.30609590  0.11642257  1
  Fe  Fe65  1  0.96650102  0.80629167  0.45094700  1
  Fe  Fe66  1  0.46560155  0.30685710  0.45397721  1
  Fe  Fe67  1  0.46556654  0.29865681  0.79551163  1
  Fe  Fe68  1  0.46410750  0.81002857  0.12241146  1
  Fe  Fe69  1  0.96050491  0.31054022  0.78702048  1
  Fe  Fe70  1  0.96173508  0.30665828  0.44919365  1
  Fe  Fe71  1  0.96728678  0.80724985  0.11758108  1
  Fe  Fe72  1  0.19619272  0.53213116  0.71713964  1
  Fe  Fe73  1  0.68847720  0.03484466  0.71614267  1
  Fe  Fe74  1  0.69535052  0.53587667  0.37954850  1
  Fe  Fe75  1  0.68191271  0.03863179  0.03793309  1
  Fe  Fe76  1  0.19847517  0.53063671  0.03956071  1
  Fe  Fe77  1  0.69455917  0.53453417  0.72791765  1
  Fe  Fe78  1  0.19526044  0.03512902  0.71266805  1
  Fe  Fe79  1  0.19097859  0.03719253  0.04592722  1
  Fe  Fe80  1  0.68791583  0.54009424  0.04365535  1
  Fe  Fe81  1  0.68741108  0.03378572  0.37228378  1
  Fe  Fe82  1  0.03023784  0.19298309  0.54657619  1
  Fe  Fe83  1  0.02883030  0.19212562  0.88021041  1
  Fe  Fe84  1  0.03755065  0.69058216  0.54778746  1
  Fe  Fe85  1  0.03509304  0.19287724  0.21566583  1
  Fe  Fe86  1  0.54474435  0.69427429  0.56279046  1
  Fe  Fe87  1  0.03716419  0.69178761  0.21275812  1
  Fe  Fe88  1  0.53431191  0.19236523  0.55057917  1
  Fe  Fe89  1  0.03169154  0.70231342  0.87813223  1
  Fe  Fe90  1  0.53529925  0.68903605  0.20978899  1
  Fe  Fe91  1  0.53305755  0.19074628  0.20858199  1
  Fe  Fe92  1  0.80541149  0.46633136  0.61929309  1
  Fe  Fe93  1  0.80896653  0.46554957  0.28391489  1
  Fe  Fe94  1  0.80313271  0.46481516  0.94806203  1
  Fe  Fe95  1  0.30050429  0.96832771  0.28923708  1
  Fe  Fe96  1  0.81048114  0.96791835  0.61965165  1
  Fe  Fe97  1  0.30002376  0.47030909  0.29177324  1
  Fe  Fe98  1  0.30359445  0.46276676  0.62049234  1
  Fe  Fe99  1  0.31334919  0.96839276  0.95969218  1
  Fe  Fe100  1  0.80722965  0.96181811  0.94842184  1
  Fe  Fe101  1  0.80586257  0.96552799  0.28049446  1
  S  S102  1  0.35508831  0.14618741  0.08472858  1
  S  S103  1  0.36341721  0.13876618  0.41638432  1
  S  S104  1  0.35255651  0.14052723  0.74337817  1
  S  S105  1  0.35958262  0.64291891  0.08595547  1
  S  S106  1  0.36646137  0.64166209  0.41953474  1
  S  S107  1  0.36386452  0.63239897  0.75015372  1
  S  S108  1  0.85948021  0.13942338  0.08289590  1
  S  S109  1  0.85543700  0.14212586  0.41592309  1
  S  S110  1  0.85708724  0.14157004  0.74634998  1
  S  S111  1  0.86476390  0.63743024  0.08365898  1
  S  S112  1  0.86204735  0.63987558  0.41637856  1
  S  S113  1  0.86069735  0.63774235  0.75098595  1
  S  S114  1  0.13673689  0.35790261  0.25064825  1
  S  S115  1  0.13566013  0.35980548  0.58028054  1
  S  S116  1  0.13217768  0.35760676  0.91756102  1
  S  S117  1  0.14253222  0.85446007  0.25239186  1
  S  S118  1  0.13823814  0.85985879  0.58588020  1
  S  S119  1  0.14291728  0.86335771  0.91489120  1
  S  S120  1  0.64119926  0.36221842  0.24952182  1
  S  S121  1  0.63984040  0.35977068  0.58454933  1
  S  S122  1  0.63707829  0.36283364  0.91699226  1
  S  S123  1  0.64307515  0.85736967  0.24711055  1
  S  S124  1  0.64775956  0.86051594  0.58068425  1
  S  S125  1  0.64972868  0.86186275  0.91979428  1
  S  S126  1  0.06126739  0.16647281  0.04033192  1
  S  S127  1  0.05882323  0.17006674  0.37608105  1
  S  S128  1  0.06553765  0.17057982  0.71049410  1
  S  S129  1  0.07229013  0.67560099  0.04227420  1
  S  S130  1  0.06737348  0.67024265  0.37677647  1
  S  S131  1  0.07116081  0.66436383  0.70973508  1
  S  S132  1  0.56692406  0.17778241  0.04633263  1
  S  S133  1  0.56990629  0.17539842  0.37618311  1
  S  S134  1  0.56277979  0.17063673  0.70722248  1
  S  S135  1  0.56211894  0.66752792  0.04526259  1
  S  S136  1  0.57168404  0.66884303  0.37376123  1
  S  S137  1  0.57049131  0.66324823  0.70120394  1
  S  S138  1  0.32378310  0.43005750  0.12806601  1
  S  S139  1  0.33752218  0.43148716  0.46209241  1
  S  S140  1  0.32744432  0.42438266  0.78908301  1
  S  S141  1  0.32476415  0.93345248  0.12617732  1
  S  S142  1  0.33674301  0.92952947  0.45770815  1
  S  S143  1  0.31956459  0.93317116  0.79031882  1
  S  S144  1  0.83361853  0.43128275  0.12396897  1
  S  S145  1  0.83286950  0.43563746  0.45873985  1
  S  S146  1  0.82968474  0.43268945  0.78948027  1
  S  S147  1  0.84694171  0.93609791  0.13123908  1
  S  S148  1  0.83270525  0.93612979  0.45491784  1
  S  S149  1  0.83358181  0.94131469  0.78749764  1
  S  S150  1  0.43530321  0.33521756  0.29241938  1
  S  S151  1  0.42492917  0.31805384  0.62364889  1
  S  S152  1  0.43206963  0.33567591  0.95690973  1
  S  S153  1  0.43416532  0.83014855  0.29266487  1
  S  S154  1  0.44497119  0.82643163  0.62601012  1
  S  S155  1  0.42465547  0.82999540  0.96151502  1
  S  S156  1  0.93407708  0.33325725  0.29029873  1
  S  S157  1  0.93195055  0.33268428  0.62390609  1
  S  S158  1  0.92572238  0.32888830  0.95724159  1
  S  S159  1  0.93240649  0.82841446  0.28880870  1
  S  S160  1  0.93481944  0.83409563  0.62090314  1
  S  S161  1  0.93684352  0.83467177  0.96201692  1
  S  S162  1  0.16733974  0.06618900  0.20505153  1
  S  S163  1  0.15078308  0.06412862  0.53920320  1
  S  S164  1  0.16753652  0.07297062  0.87601117  1
  S  S165  1  0.16882272  0.56515744  0.20290824  1
  S  S166  1  0.16849978  0.56345198  0.54254639  1
  S  S167  1  0.16592132  0.57184442  0.87496798  1
  S  S168  1  0.67638478  0.07363326  0.21064296  1
  S  S169  1  0.67092207  0.06822622  0.54001227  1
  S  S170  1  0.66972288  0.06396338  0.87552115  1
  S  S171  1  0.67394864  0.56622512  0.20985347  1
  S  S172  1  0.67564089  0.56813265  0.54213918  1
  S  S173  1  0.66130775  0.55767301  0.87546548  1
  O  O174  1  0.36340539  0.22613264  0.07873723  1
  O  O175  1  0.37546524  0.21858218  0.41077966  1
  O  O176  1  0.36573110  0.22717347  0.74953265  1
  O  O177  1  0.36415585  0.72837055  0.09099079  1
  O  O178  1  0.37984304  0.71933145  0.40850226  1
  O  O179  1  0.36055767  0.70585383  0.73250593  1
  O  O180  1  0.86697053  0.21970142  0.07676658  1
  O  O181  1  0.86347185  0.22082741  0.40610628  1
  O  O182  1  0.87000854  0.21922961  0.73596270  1
  O  O183  1  0.87343877  0.71743710  0.07889860  1
  O  O184  1  0.86914573  0.71773879  0.40523784  1
  O  O185  1  0.86955229  0.70980473  0.73404544  1
  O  O186  1  0.27581500  0.13544322  0.09264693  1
  O  O187  1  0.28958008  0.13003797  0.43059803  1
  O  O188  1  0.26967192  0.13578063  0.74768806  1
  O  O189  1  0.28141995  0.62890822  0.09602339  1
  O  O190  1  0.29206872  0.63793921  0.43359347  1
  O  O191  1  0.28487044  0.61695545  0.76085041  1
  O  O192  1  0.78120068  0.12824447  0.09103559  1
  O  O193  1  0.77477614  0.13228541  0.42015087  1
  O  O194  1  0.77623744  0.13468061  0.74875640  1
  O  O195  1  0.78760762  0.62712755  0.09501804  1
  O  O196  1  0.78257385  0.63077796  0.42373386  1
  O  O197  1  0.78176498  0.62669128  0.75810736  1
  O  O198  1  0.12856011  0.27667151  0.25368997  1
  O  O199  1  0.12569062  0.28082223  0.58757662  1
  O  O200  1  0.11738119  0.28192858  0.93200953  1
  O  O201  1  0.13371078  0.77315346  0.25655073  1
  O  O202  1  0.12422070  0.78284832  0.59737819  1
  O  O203  1  0.13228878  0.78533539  0.92475010  1
  O  O204  1  0.63107939  0.28268503  0.25532868  1
  O  O205  1  0.63325874  0.27841265  0.58882219  1
  O  O206  1  0.63297248  0.29098794  0.93486490  1
  O  O207  1  0.63341413  0.77965341  0.25785681  1
  O  O208  1  0.64499728  0.77869709  0.58261740  1
  O  O209  1  0.63644524  0.78818850  0.93088016  1
  O  O210  1  0.21766492  0.37096187  0.24873954  1
  O  O211  1  0.21199722  0.36648412  0.56647751  1
  O  O212  1  0.20918366  0.35984312  0.90844483  1
  O  O213  1  0.22200758  0.86380748  0.24540982  1
  O  O214  1  0.21575256  0.86455771  0.57788295  1
  O  O215  1  0.22438151  0.87263973  0.91364753  1
  O  O216  1  0.72083096  0.37037664  0.24181909  1
  O  O217  1  0.71792338  0.37052358  0.57405397  1
  O  O218  1  0.71170290  0.37505186  0.90187885  1
  O  O219  1  0.72357626  0.86518920  0.24062708  1
  O  O220  1  0.72565943  0.87492234  0.57056333  1
  O  O221  1  0.72785297  0.86883228  0.90634467  1
  O  O222  1  0.41390414  0.13928808  0.15332565  1
  O  O223  1  0.42840090  0.12518776  0.47889868  1
  O  O224  1  0.40701089  0.12267024  0.80550337  1
  O  O225  1  0.41929463  0.63205362  0.15326932  1
  O  O226  1  0.43093019  0.62928513  0.48203548  1
  O  O227  1  0.42449396  0.63151178  0.81715893  1
  O  O228  1  0.91955135  0.13253035  0.15153417  1
  O  O229  1  0.91132194  0.13859873  0.48725903  1
  O  O230  1  0.91304708  0.13476704  0.81637884  1
  O  O231  1  0.92579269  0.62754000  0.15050969  1
  O  O232  1  0.92012490  0.63433639  0.48577932  1
  O  O233  1  0.91914361  0.63492403  0.82220125  1
  O  O234  1  0.36186290  0.08884577  0.01593784  1
  O  O235  1  0.36686403  0.08110782  0.34512372  1
  O  O236  1  0.35464273  0.09356594  0.66940620  1
  O  O237  1  0.36622995  0.59376494  0.01571417  1
  O  O238  1  0.36744569  0.58122505  0.34798992  1
  O  O239  1  0.37059599  0.56868218  0.68162208  1
  O  O240  1  0.87067552  0.08216104  0.01574862  1
  O  O241  1  0.86834183  0.08246355  0.35120655  1
  O  O242  1  0.86920885  0.08168223  0.68030748  1
  O  O243  1  0.87292312  0.57948075  0.01508879  1
  O  O244  1  0.87107877  0.57973297  0.34944485  1
  O  O245  1  0.87339004  0.57136569  0.68783618  1
  O  O246  1  0.08108264  0.36477937  0.17879673  1
  O  O247  1  0.07390551  0.37151456  0.51527666  1
  O  O248  1  0.07242145  0.36283855  0.84789205  1
  O  O249  1  0.08492890  0.86331754  0.18327678  1
  O  O250  1  0.07841381  0.86830628  0.51727486  1
  O  O251  1  0.08679923  0.87177183  0.84701360  1
  O  O252  1  0.58226091  0.37532965  0.18436833  1
  O  O253  1  0.57962392  0.36779663  0.51735867  1
  O  O254  1  0.57262193  0.36193278  0.84637399  1
  O  O255  1  0.58520364  0.86506071  0.17974265  1
  O  O256  1  0.58755398  0.86867441  0.51342381  1
  O  O257  1  0.59090648  0.87824218  0.85805656  1
  O  O258  1  0.12071855  0.41416971  0.31447921  1
  O  O259  1  0.13134597  0.41848128  0.65021901  1
  O  O260  1  0.12494210  0.42099100  0.98323759  1
  O  O261  1  0.13207404  0.91079779  0.31893057  1
  O  O262  1  0.12821271  0.92169908  0.65241748  1
  O  O263  1  0.13119165  0.92321731  0.98222943  1
  O  O264  1  0.63613125  0.41997182  0.31999952  1
  O  O265  1  0.63279330  0.41543842  0.65380238  1
  O  O266  1  0.62783833  0.42921489  0.98030872  1
  O  O267  1  0.63812660  0.91740781  0.31658478  1
  O  O268  1  0.63998835  0.91445975  0.65048071  1
  O  O269  1  0.65373275  0.92477471  0.99359746  1
  O  O270  1  0.02551550  0.19714212  0.10206101  1
  O  O271  1  0.02159848  0.20452516  0.43692560  1
  O  O272  1  0.02986656  0.19925454  0.77186140  1
  O  O273  1  0.03382615  0.70243477  0.10311854  1
  O  O274  1  0.03087753  0.70383640  0.43816839  1
  O  O275  1  0.03569251  0.69112976  0.76953154  1
  O  O276  1  0.52920653  0.20945661  0.10896924  1
  O  O277  1  0.53428017  0.20566271  0.43750765  1
  O  O278  1  0.52503185  0.20202093  0.76573824  1
  O  O279  1  0.52888564  0.70343989  0.10950978  1
  O  O280  1  0.53915288  0.69916409  0.43597514  1
  O  O281  1  0.55708646  0.70419118  0.76969234  1
  O  O282  1  0.29566590  0.46388352  0.06719667  1
  O  O283  1  0.31746146  0.46698826  0.40174697  1
  O  O284  1  0.29631774  0.44954360  0.71997309  1
  O  O285  1  0.29784477  0.97498346  0.06834279  1
  O  O286  1  0.31269267  0.96021988  0.39335063  1
  O  O287  1  0.28780219  0.97657982  0.73567335  1
  O  O288  1  0.80292273  0.46433292  0.06149741  1
  O  O289  1  0.80286861  0.46978304  0.39639280  1
  O  O290  1  0.79424647  0.46665814  0.72704833  1
  O  O291  1  0.82460171  0.96866981  0.06846035  1
  O  O292  1  0.80182167  0.97096937  0.39320468  1
  O  O293  1  0.79532247  0.97942777  0.72824005  1
  O  O294  1  0.47323801  0.30655316  0.23246985  1
  O  O295  1  0.46860528  0.29332893  0.56731413  1
  O  O296  1  0.46704977  0.29764014  0.89592827  1
  O  O297  1  0.47302862  0.80280166  0.23345460  1
  O  O298  1  0.48276733  0.79072369  0.56362500  1
  O  O299  1  0.45394026  0.81084508  0.89899047  1
  O  O300  1  0.96799390  0.30088594  0.22811172  1
  O  O301  1  0.96649256  0.30104465  0.56177851  1
  O  O302  1  0.95643029  0.29686402  0.89266793  1
  O  O303  1  0.97032750  0.79943251  0.22919684  1
  O  O304  1  0.96292755  0.79811396  0.55444552  1
  O  O305  1  0.97296506  0.80646022  0.90211996  1
  O  O306  1  0.19396620  0.02783803  0.26329249  1
  O  O307  1  0.17452054  0.03601261  0.60499521  1
  O  O308  1  0.19730945  0.03641536  0.93648694  1
  O  O309  1  0.19349975  0.52796602  0.26221513  1
  O  O310  1  0.19973449  0.53146978  0.60736397  1
  O  O311  1  0.18941225  0.53658913  0.93527123  1
  O  O312  1  0.70511334  0.03238506  0.26934418  1
  O  O313  1  0.69847236  0.03224622  0.60096628  1
  O  O314  1  0.71112101  0.03223076  0.93922596  1
  O  O315  1  0.70566721  0.52934374  0.27132597  1
  O  O316  1  0.70189365  0.53039249  0.60171534  1
  O  O317  1  0.71205433  0.53599061  0.94407314  1
  O  O318  1  0.07577966  0.08353907  0.03346671  1
  O  O319  1  0.06756834  0.08806092  0.37024014  1
  O  O320  1  0.08400342  0.08851319  0.70500070  1
  O  O321  1  0.09118101  0.59476759  0.03694737  1
  O  O322  1  0.07720378  0.58814292  0.37025498  1
  O  O323  1  0.08441090  0.57960659  0.69764793  1
  O  O324  1  0.59118209  0.10101694  0.05189298  1
  O  O325  1  0.58989731  0.09548108  0.37387986  1
  O  O326  1  0.58767216  0.09269361  0.71014170  1
  O  O327  1  0.58696094  0.59003541  0.05104428  1
  O  O328  1  0.58718901  0.58531622  0.36572751  1
  O  O329  1  0.59599471  0.58300625  0.69931264  1
  O  O330  1  0.40563828  0.40995029  0.13513622  1
  O  O331  1  0.42243667  0.41597695  0.47766105  1
  O  O332  1  0.40537892  0.39405139  0.79162097  1
  O  O333  1  0.40417194  0.91245340  0.13317818  1
  O  O334  1  0.42055636  0.91224388  0.46861349  1
  O  O335  1  0.39200417  0.90531827  0.78147869  1
  O  O336  1  0.91692612  0.41587923  0.13206365  1
  O  O337  1  0.91455990  0.41661575  0.46259412  1
  O  O338  1  0.91087352  0.41762426  0.78914256  1
  O  O339  1  0.93276104  0.92325837  0.14690649  1
  O  O340  1  0.91529191  0.91956369  0.46005087  1
  O  O341  1  0.91455715  0.93310728  0.78753828  1
  O  O342  1  0.41824720  0.41759362  0.29907764  1
  O  O343  1  0.40592270  0.39873868  0.62814859  1
  O  O344  1  0.41904399  0.41507948  0.95889610  1
  O  O345  1  0.41189804  0.90994792  0.29740361  1
  O  O346  1  0.42283735  0.90233004  0.62152800  1
  O  O347  1  0.40636940  0.91295267  0.98252084  1
  O  O348  1  0.91847470  0.41571794  0.29532175  1
  O  O349  1  0.91679736  0.41534427  0.62886491  1
  O  O350  1  0.90823732  0.41061007  0.96239154  1
  O  O351  1  0.91298237  0.90971462  0.29397475  1
  O  O352  1  0.91748923  0.91641349  0.62166325  1
  O  O353  1  0.91914014  0.91737006  0.96461035  1
  O  O354  1  0.08450838  0.08494593  0.20160316  1
  O  O355  1  0.06587841  0.08257541  0.52889753  1
  O  O356  1  0.08391866  0.08683647  0.86940072  1
  O  O357  1  0.08497297  0.58251505  0.19464707  1
  O  O358  1  0.08510903  0.58111897  0.53849897  1
  O  O359  1  0.08491698  0.59459797  0.86523862  1
  O  O360  1  0.59827378  0.09588904  0.21126540  1
  O  O361  1  0.58906371  0.08668177  0.53150220  1
  O  O362  1  0.59085142  0.07569684  0.87699651  1
  O  O363  1  0.59341379  0.58363276  0.20904556  1
  O  O364  1  0.59376686  0.58696230  0.53223115  1
  O  O365  1  0.58233211  0.55865602  0.87841211  1
  O  O366  1  0.13392319  0.21636774  0.05754945  1
  O  O367  1  0.13213828  0.21858540  0.39343451  1
  O  O368  1  0.13535604  0.22345342  0.72513330  1
  O  O369  1  0.14362134  0.72911327  0.06178377  1
  O  O370  1  0.14079839  0.71949243  0.39400933  1
  O  O371  1  0.14434320  0.71282517  0.72557327  1
  O  O372  1  0.63754815  0.23284629  0.06526598  1
  O  O373  1  0.64101383  0.22916419  0.39276841  1
  O  O374  1  0.62895285  0.22521102  0.71637096  1
  O  O375  1  0.63147098  0.71989701  0.05749857  1
  O  O376  1  0.64427569  0.71834554  0.38724853  1
  O  O377  1  0.62906071  0.70811982  0.68298520  1
  O  O378  1  0.27149920  0.35907470  0.11439528  1
  O  O379  1  0.28585770  0.35990347  0.44365652  1
  O  O380  1  0.27012363  0.35918804  0.77950701  1
  O  O381  1  0.26822833  0.86325746  0.10472050  1
  O  O382  1  0.28552541  0.85602844  0.43983062  1
  O  O383  1  0.26162164  0.86534648  0.77438051  1
  O  O384  1  0.78392304  0.35925156  0.11041895  1
  O  O385  1  0.78106509  0.36501272  0.44499474  1
  O  O386  1  0.78185559  0.36053095  0.77658939  1
  O  O387  1  0.79875179  0.86400981  0.11675918  1
  O  O388  1  0.78282381  0.86348577  0.43942401  1
  O  O389  1  0.78698200  0.86712742  0.77073133  1
  O  O390  1  0.36472922  0.28267565  0.27564432  1
  O  O391  1  0.35255163  0.26423617  0.59945398  1
  O  O392  1  0.36050397  0.28376838  0.94323019  1
  O  O393  1  0.36484147  0.77417335  0.27519933  1
  O  O394  1  0.37390604  0.77125817  0.60692570  1
  O  O395  1  0.35326616  0.77609016  0.94673832  1
  O  O396  1  0.86232217  0.28362383  0.27694026  1
  O  O397  1  0.85940121  0.28314750  0.60855498  1
  O  O398  1  0.85699330  0.27850464  0.94840678  1
  O  O399  1  0.86196304  0.77487157  0.27173054  1
  O  O400  1  0.86297975  0.78597413  0.61051517  1
  O  O401  1  0.86830782  0.78504103  0.95258844  1
  O  O402  1  0.21848620  0.13625848  0.21873321  1
  O  O403  1  0.20028265  0.13613900  0.55247360  1
  O  O404  1  0.21710735  0.14526439  0.89174285  1
  O  O405  1  0.22035326  0.63733676  0.22112240  1
  O  O406  1  0.21731214  0.63568508  0.55628089  1
  O  O407  1  0.22110602  0.63988094  0.88901894  1
  O  O408  1  0.73206620  0.14465967  0.23189276  1
  O  O409  1  0.72399858  0.14034866  0.55890833  1
  O  O410  1  0.71874943  0.13506864  0.88574198  1
  O  O411  1  0.72562589  0.63793410  0.22706261  1
  O  O412  1  0.72983488  0.63872846  0.56020779  1
  O  O413  1  0.70025256  0.62972464  0.87670124  1
  O  O414  1  0.49004209  0.33511701  0.03035554  1
  O  O415  1  0.49387740  0.33783857  0.36630663  1
  O  O416  1  0.47934997  0.31703674  0.69715551  1
  O  O417  1  0.48495612  0.82409412  0.03181974  1
  O  O418  1  0.49364468  0.83359859  0.36577800  1
  O  O419  1  0.50361856  0.83140718  0.69742814  1
  O  O420  1  0.99038514  0.33318972  0.02796552  1
  O  O421  1  0.99411827  0.33725493  0.36315325  1
  O  O422  1  0.99107985  0.33385131  0.69581800  1
  O  O423  1  0.99797698  0.84441957  0.03725453  1
  O  O424  1  0.99164100  0.83373940  0.36268614  1
  O  O425  1  0.99732999  0.84069942  0.69029498  1
  O  O426  1  0.15892187  0.00740211  0.12956546  1
  O  O427  1  0.14860313  0.00188302  0.47084345  1
  O  O428  1  0.16453654  0.01433527  0.80228315  1
  O  O429  1  0.16548321  0.50819183  0.12876451  1
  O  O430  1  0.16282166  0.50124998  0.47265453  1
  O  O431  1  0.16317588  0.50923499  0.80297498  1
  O  O432  1  0.67528597  0.01732405  0.13857639  1
  O  O433  1  0.67109779  0.01009093  0.46768107  1
  O  O434  1  0.66777393  0.00241041  0.80306171  1
  O  O435  1  0.67280485  0.50792339  0.13800279  1
  O  O436  1  0.67469129  0.50919049  0.46929507  1
  O  O437  1  0.66479696  0.49324158  0.80645738  1
  O  O438  1  0.00202876  0.17320342  0.30354728  1
  O  O439  1  0.00496169  0.16785002  0.63827879  1
  O  O440  1  0.00182148  0.16716408  0.96903159  1
  O  O441  1  0.00991234  0.67254650  0.30419091  1
  O  O442  1  0.01200214  0.66681083  0.63763216  1
  O  O443  1  0.01367200  0.67735882  0.97167013  1
  O  O444  1  0.51145351  0.17290797  0.30358063  1
  O  O445  1  0.50239452  0.15540084  0.63097140  1
  O  O446  1  0.50906814  0.17124942  0.97544255  1
  O  O447  1  0.51162367  0.66682738  0.30127035  1
  O  O448  1  0.49848471  0.64416701  0.63143643  1
  O  O449  1  0.50006729  0.65504456  0.97468582  1
  O  O450  1  0.32803518  0.49006493  0.20164094  1
  O  O451  1  0.33463299  0.49065111  0.53349284  1
  O  O452  1  0.33793190  0.49192223  0.85532141  1
  O  O453  1  0.32342370  0.99048237  0.19873296  1
  O  O454  1  0.33342421  0.98893913  0.52565744  1
  O  O455  1  0.33094412  0.98947035  0.86753989  1
  O  O456  1  0.83448717  0.49186471  0.19578107  1
  O  O457  1  0.83776378  0.49571074  0.53146355  1
  O  O458  1  0.83402706  0.49318286  0.86148056  1
  O  O459  1  0.84169539  0.99739074  0.20069150  1
  O  O460  1  0.83450427  0.99524795  0.52724726  1
  O  O461  1  0.83567997  0.99611824  0.86258329  1
