# generated using pymatgen
data_Na31Fe20(SO4)36
_symmetry_space_group_name_H-M   'P 1'
_cell_length_a   18.07168151
_cell_length_b   18.06986747
_cell_length_c   19.71279098
_cell_angle_alpha   107.56116391
_cell_angle_beta   107.54614046
_cell_angle_gamma   90.76148112
_symmetry_Int_Tables_number   1
_chemical_formula_structural   Na31Fe20(SO4)36
_chemical_formula_sum   'Na62 Fe40 S72 O288'
_cell_volume   5813.11396664
_cell_formula_units_Z   2
loop_
 _symmetry_equiv_pos_site_id
 _symmetry_equiv_pos_as_xyz
  1  'x, y, z'
loop_
 _atom_site_type_symbol
 _atom_site_label
 _atom_site_symmetry_multiplicity
 _atom_site_fract_x
 _atom_site_fract_y
 _atom_site_fract_z
 _atom_site_occupancy
  Na  Na0  1  0.14087076  0.36304930  0.08436180  1
  Na  Na1  1  0.13352236  0.36319566  0.41620817  1
  Na  Na2  1  0.13277173  0.36597134  0.75631362  1
  Na  Na3  1  0.13598035  0.87023664  0.07706335  1
  Na  Na4  1  0.14135233  0.86211788  0.42230718  1
  Na  Na5  1  0.12351420  0.87678181  0.74720199  1
  Na  Na6  1  0.62481760  0.36598192  0.08192248  1
  Na  Na7  1  0.64468324  0.36637498  0.42299947  1
  Na  Na8  1  0.62980126  0.36140210  0.74241365  1
  Na  Na9  1  0.62395044  0.85082034  0.06388714  1
  Na  Na10  1  0.64158576  0.86391592  0.42243950  1
  Na  Na11  1  0.63731386  0.86621845  0.75531994  1
  Na  Na12  1  0.35695053  0.12783295  0.23310583  1
  Na  Na13  1  0.38087761  0.14276119  0.59102222  1
  Na  Na14  1  0.37585923  0.12721328  0.91821302  1
  Na  Na15  1  0.36423213  0.63585717  0.25169924  1
  Na  Na16  1  0.35929866  0.64061748  0.58266797  1
  Na  Na17  1  0.36360258  0.63498871  0.92079681  1
  Na  Na18  1  0.86456017  0.13162589  0.24878708  1
  Na  Na19  1  0.87756182  0.12696889  0.59543601  1
  Na  Na20  1  0.87407605  0.13047391  0.91900916  1
  Na  Na21  1  0.85832149  0.64543640  0.25783509  1
  Na  Na22  1  0.85171010  0.63364826  0.56841398  1
  Na  Na23  1  0.86209406  0.63417713  0.91243137  1
  Na  Na24  1  0.99225071  0.00647834  0.43061583  1
  Na  Na25  1  0.99008127  0.51390662  0.07887179  1
  Na  Na26  1  0.97853448  0.51199086  0.41691518  1
  Na  Na27  1  0.48232442  0.53594023  0.78963070  1
  Na  Na28  1  0.49187674  0.02195422  0.05872669  1
  Na  Na29  1  0.98567298  0.50448243  0.75028594  1
  Na  Na30  1  0.44450828  0.49421241  0.04444431  1
  Na  Na31  1  0.49234986  0.04254140  0.42515445  1
  Na  Na32  1  0.52419452  0.49169432  0.40626936  1
  Na  Na33  1  0.51374619  0.99036922  0.24211923  1
  Na  Na34  1  0.04226683  1.00029097  0.92498220  1
  Na  Na35  1  0.00973870  0.49157606  0.58747152  1
  Na  Na36  1  0.01215080  0.98856673  0.23736857  1
  Na  Na37  1  0.51456311  0.99532447  0.59182018  1
  Na  Na38  1  0.00913471  0.44188269  0.89833023  1
  Na  Na39  1  0.50794686  0.48999866  0.58872818  1
  Na  Na40  1  0.00811453  0.49091772  0.25070513  1
  Na  Na41  1  0.53492727  0.48464424  0.24019458  1
  Na  Na42  1  0.25454603  0.75800445  0.66024627  1
  Na  Na43  1  0.75065822  0.24957910  0.00212451  1
  Na  Na44  1  0.74393235  0.24334233  0.66946414  1
  Na  Na45  1  0.25491691  0.24935738  0.32756422  1
  Na  Na46  1  0.74136543  0.74777200  0.67332243  1
  Na  Na47  1  0.24417371  0.74507481  0.34012020  1
  Na  Na48  1  0.75133653  0.75240201  -0.01495242  1
  Na  Na49  1  0.25098985  0.25022458  0.66986387  1
  Na  Na50  1  0.28175000  0.26818877  -0.00089331  1
  Na  Na51  1  0.74643548  0.24815314  0.33640442  1
  Na  Na52  1  0.25688673  0.75953802  0.15680064  1
  Na  Na53  1  0.24002924  0.74501878  0.84257435  1
  Na  Na54  1  0.73705841  0.74112821  0.17136724  1
  Na  Na55  1  0.74259566  0.23923624  0.51126853  1
  Na  Na56  1  0.75853865  0.76055206  0.48832958  1
  Na  Na57  1  0.25212910  0.25143958  0.49931958  1
  Na  Na58  1  0.25986098  0.25843575  0.83471651  1
  Na  Na59  1  0.74541003  0.25017284  0.17033420  1
  Na  Na60  1  0.26420306  0.25195450  0.15610857  1
  Na  Na61  1  0.76002040  0.24880007  0.83227065  1
  Fe  Fe62  1  0.46172643  0.80638518  0.45381100  1
  Fe  Fe63  1  0.96384885  0.81382241  0.45655262  1
  Fe  Fe64  1  0.47136503  0.29856681  0.45843133  1
  Fe  Fe65  1  0.96188510  0.80786355  0.78145873  1
  Fe  Fe66  1  0.46183552  0.80373513  0.11421860  1
  Fe  Fe67  1  0.96327013  0.30652714  0.45215854  1
  Fe  Fe68  1  0.96520453  0.80132075  0.11475255  1
  Fe  Fe69  1  0.96415220  0.30764525  0.11978826  1
  Fe  Fe70  1  0.46407625  0.31790027  0.79249172  1
  Fe  Fe71  1  0.46866528  0.80675334  0.79262756  1
  Fe  Fe72  1  0.70891119  0.02835190  0.70970520  1
  Fe  Fe73  1  0.68952909  0.54107308  0.72017389  1
  Fe  Fe74  1  0.19726333  0.53070270  0.04506720  1
  Fe  Fe75  1  0.19325055  0.53478951  0.38428441  1
  Fe  Fe76  1  0.69633777  0.03034972  0.38346328  1
  Fe  Fe77  1  0.19261056  0.03474795  0.38021804  1
  Fe  Fe78  1  0.19211735  0.53586186  0.72064307  1
  Fe  Fe79  1  0.69550460  0.03178904  0.04192100  1
  Fe  Fe80  1  0.67754549  0.53526028  0.03854296  1
  Fe  Fe81  1  0.19358923  0.03744259  0.71209284  1
  Fe  Fe82  1  0.03361735  0.19841568  0.87779648  1
  Fe  Fe83  1  0.53836840  0.18474694  0.87383405  1
  Fe  Fe84  1  0.03675293  0.69552090  0.55004070  1
  Fe  Fe85  1  0.03280690  0.69188070  0.21595198  1
  Fe  Fe86  1  0.53147457  0.69010460  0.54826674  1
  Fe  Fe87  1  0.03329829  0.19852877  0.55274253  1
  Fe  Fe88  1  0.03781682  0.18611863  0.20893987  1
  Fe  Fe89  1  0.53270624  0.69190775  0.21444426  1
  Fe  Fe90  1  0.53298035  0.19842776  0.20711617  1
  Fe  Fe91  1  0.03312328  0.69450011  0.88296209  1
  Fe  Fe92  1  0.80564330  0.46441191  0.95097840  1
  Fe  Fe93  1  0.30679592  0.46913868  0.62390212  1
  Fe  Fe94  1  0.81113730  0.96144616  0.95109386  1
  Fe  Fe95  1  0.30695382  0.96724957  0.28441455  1
  Fe  Fe96  1  0.79664696  0.47149212  0.28693737  1
  Fe  Fe97  1  0.80421298  0.46939187  0.61874041  1
  Fe  Fe98  1  0.31059209  0.46233297  0.28873431  1
  Fe  Fe99  1  0.29595276  0.96911777  0.95493763  1
  Fe  Fe100  1  0.80757424  0.96030413  0.28380060  1
  Fe  Fe101  1  0.31273160  0.96214459  0.62240159  1
  S  S102  1  0.36352906  0.13757492  0.08345780  1
  S  S103  1  0.35668326  0.14177935  0.41659714  1
  S  S104  1  0.36237903  0.13955356  0.74581397  1
  S  S105  1  0.35581353  0.64461748  0.08748279  1
  S  S106  1  0.35644935  0.63901916  0.41772133  1
  S  S107  1  0.35116243  0.64464550  0.74957875  1
  S  S108  1  0.86099184  0.13896420  0.08548155  1
  S  S109  1  0.86104099  0.13787098  0.41607517  1
  S  S110  1  0.86270225  0.14482314  0.75562423  1
  S  S111  1  0.85655214  0.63800483  0.08399012  1
  S  S112  1  0.86476713  0.64141856  0.41605682  1
  S  S113  1  0.85824962  0.64185979  0.74971500  1
  S  S114  1  0.14021496  0.35993955  0.25248323  1
  S  S115  1  0.13917057  0.36170439  0.58245144  1
  S  S116  1  0.14793853  0.35417814  0.92401037  1
  S  S117  1  0.13977993  0.85868894  0.25059591  1
  S  S118  1  0.14062443  0.86267995  0.58166216  1
  S  S119  1  0.13527152  0.85857556  0.91267927  1
  S  S120  1  0.64153993  0.35900088  0.25416003  1
  S  S121  1  0.64112584  0.36324794  0.58369307  1
  S  S122  1  0.64436964  0.35482214  0.91420783  1
  S  S123  1  0.63712366  0.85928231  0.24693806  1
  S  S124  1  0.63661148  0.85780161  0.58335660  1
  S  S125  1  0.64205660  0.86021891  0.91760765  1
  S  S126  1  0.06884172  0.17656401  0.04718351  1
  S  S127  1  0.06508201  0.16995617  0.37560885  1
  S  S128  1  0.07407513  0.17385782  0.71172532  1
  S  S129  1  0.06454948  0.66519512  0.04295282  1
  S  S130  1  0.06797356  0.66613129  0.37333823  1
  S  S131  1  0.06167386  0.66697883  0.70634314  1
  S  S132  1  0.57543101  0.16824218  0.03924207  1
  S  S133  1  0.56920454  0.16817736  0.37226934  1
  S  S134  1  0.57822726  0.16337769  0.70768936  1
  S  S135  1  0.55797175  0.66790964  0.04145739  1
  S  S136  1  0.56062520  0.66894748  0.37684921  1
  S  S137  1  0.56099557  0.66903253  0.70768692  1
  S  S138  1  0.33681527  0.44089332  0.13172624  1
  S  S139  1  0.33008410  0.43006967  0.45892478  1
  S  S140  1  0.32682890  0.43782080  0.79155660  1
  S  S141  1  0.32938712  0.92951435  0.12621456  1
  S  S142  1  0.33040698  0.93498092  0.45681518  1
  S  S143  1  0.32154306  0.92922649  0.78736400  1
  S  S144  1  0.82966918  0.43325529  0.12634151  1
  S  S145  1  0.83634637  0.43478243  0.45866267  1
  S  S146  1  0.82772508  0.43853946  0.78864063  1
  S  S147  1  0.83008582  0.92816807  0.12276517  1
  S  S148  1  0.83310916  0.93564609  0.45463085  1
  S  S149  1  0.83338427  0.93224133  0.79301978  1
  S  S150  1  0.43342292  0.32635831  0.29534474  1
  S  S151  1  0.43166070  0.33766869  0.62801709  1
  S  S152  1  0.43700227  0.32237492  0.94710540  1
  S  S153  1  0.43468359  0.83600209  0.29572540  1
  S  S154  1  0.42957968  0.82756791  0.62509540  1
  S  S155  1  0.42580274  0.83513592  0.95673575  1
  S  S156  1  0.93231507  0.33205392  0.29084102  1
  S  S157  1  0.93443206  0.33595717  0.62519595  1
  S  S158  1  0.93639291  0.33499356  0.96351462  1
  S  S159  1  0.93613795  0.83163397  0.28906829  1
  S  S160  1  0.92963144  0.82601077  0.61726403  1
  S  S161  1  0.93292264  0.82714698  0.95867279  1
  S  S162  1  0.16786054  0.06281819  0.20994813  1
  S  S163  1  0.17215837  0.07264657  0.54211749  1
  S  S164  1  0.17255295  0.07605738  0.87587962  1
  S  S165  1  0.16621751  0.56434661  0.20984632  1
  S  S166  1  0.16540796  0.56433214  0.54278228  1
  S  S167  1  0.16052755  0.56670035  0.87345697  1
  S  S168  1  0.67133837  0.06557071  0.20706654  1
  S  S169  1  0.67050596  0.06019413  0.54390205  1
  S  S170  1  0.68182623  0.07014316  0.87550669  1
  S  S171  1  0.66696172  0.56710378  0.20354438  1
  S  S172  1  0.66542505  0.56566159  0.54473628  1
  S  S173  1  0.67036812  0.56455171  0.87928123  1
  O  O174  1  0.37289853  0.21414184  0.07427707  1
  O  O175  1  0.36740239  0.22301526  0.41320614  1
  O  O176  1  0.37672928  0.21719044  0.73573635  1
  O  O177  1  0.36282299  0.72702122  0.08698928  1
  O  O178  1  0.36512232  0.71801965  0.40934157  1
  O  O179  1  0.36349122  0.72398547  0.74374837  1
  O  O180  1  0.86759979  0.21883740  0.07795964  1
  O  O181  1  0.86921041  0.21602409  0.40543896  1
  O  O182  1  0.85801596  0.22439678  0.75160590  1
  O  O183  1  0.86573536  0.71650148  0.07500489  1
  O  O184  1  0.87995226  0.71764640  0.40472092  1
  O  O185  1  0.86805541  0.71963991  0.73979088  1
  O  O186  1  0.29231192  0.12655574  0.10187865  1
  O  O187  1  0.27490013  0.13370027  0.41959810  1
  O  O188  1  0.28184902  0.13663961  0.75231426  1
  O  O189  1  0.27707911  0.63227631  0.09636726  1
  O  O190  1  0.27747615  0.62895127  0.42521854  1
  O  O191  1  0.26842158  0.63603062  0.75096000  1
  O  O192  1  0.78246107  0.12895785  0.09511836  1
  O  O193  1  0.78222041  0.12960257  0.42450328  1
  O  O194  1  0.78446818  0.12281169  0.76593024  1
  O  O195  1  0.77688407  0.62660030  0.08856174  1
  O  O196  1  0.79152608  0.63697943  0.43165449  1
  O  O197  1  0.78040129  0.63410948  0.75872533  1
  O  O198  1  0.12910339  0.28142897  0.26077962  1
  O  O199  1  0.13208187  0.28206656  0.58975607  1
  O  O200  1  0.12829788  0.27780592  0.93561688  1
  O  O201  1  0.12993617  0.77921940  0.25771858  1
  O  O202  1  0.13279774  0.78353751  0.59034471  1
  O  O203  1  0.12758965  0.77720433  0.91606566  1
  O  O204  1  0.63346981  0.27564156  0.25565954  1
  O  O205  1  0.63697719  0.28623836  0.59246797  1
  O  O206  1  0.63725214  0.27597062  0.92224058  1
  O  O207  1  0.62763531  0.78057825  0.25386693  1
  O  O208  1  0.62164218  0.78253618  0.59715707  1
  O  O209  1  0.63218768  0.78661589  0.93185012  1
  O  O210  1  0.21925724  0.36712586  0.24420648  1
  O  O211  1  0.21734853  0.37151367  0.57310715  1
  O  O212  1  0.22928005  0.35615747  0.92539354  1
  O  O213  1  0.21926821  0.86855132  0.24470587  1
  O  O214  1  0.21846880  0.87360535  0.57216099  1
  O  O215  1  0.21388863  0.86975832  0.90428146  1
  O  O216  1  0.72531662  0.36858966  0.25462115  1
  O  O217  1  0.71839671  0.37658599  0.57118519  1
  O  O218  1  0.72412907  0.36494717  0.90660283  1
  O  O219  1  0.71519563  0.86831805  0.23687721  1
  O  O220  1  0.70776433  0.85793398  0.56371953  1
  O  O221  1  0.72190395  0.87117705  0.91113631  1
  O  O222  1  0.43118763  0.12544845  0.14613718  1
  O  O223  1  0.41268823  0.12993597  0.48237075  1
  O  O224  1  0.41843090  0.12932660  0.81340033  1
  O  O225  1  0.41531558  0.63553407  0.15571925  1
  O  O226  1  0.41508630  0.63042321  0.48524711  1
  O  O227  1  0.40508267  0.63296524  0.81626739  1
  O  O228  1  0.92010820  0.13321969  0.15446281  1
  O  O229  1  0.92117753  0.13136607  0.48417474  1
  O  O230  1  0.92264331  0.14432475  0.82823264  1
  O  O231  1  0.91474477  0.63241094  0.15423734  1
  O  O232  1  0.92933349  0.62748208  0.47904254  1
  O  O233  1  0.91846099  0.63314896  0.81711536  1
  O  O234  1  0.36751891  0.07566601  0.01332830  1
  O  O235  1  0.36534151  0.08594362  0.34651375  1
  O  O236  1  0.36636399  0.07862996  0.67699928  1
  O  O237  1  0.36412994  0.58992944  0.01941296  1
  O  O238  1  0.36401110  0.58057632  0.34935101  1
  O  O239  1  0.35896730  0.58655224  0.67967796  1
  O  O240  1  0.86884446  0.08078908  0.01788194  1
  O  O241  1  0.86969677  0.07784969  0.34875282  1
  O  O242  1  0.87546113  0.08859069  0.69187799  1
  O  O243  1  0.87038081  0.57820237  0.01892406  1
  O  O244  1  0.86718621  0.57969669  0.34563624  1
  O  O245  1  0.86718640  0.58146080  0.68200817  1
  O  O246  1  0.08108586  0.37126632  0.18632644  1
  O  O247  1  0.07907586  0.36930717  0.51449367  1
  O  O248  1  0.09439544  0.36220797  0.85472651  1
  O  O249  1  0.08068110  0.86720249  0.18273035  1
  O  O250  1  0.08056865  0.86811693  0.51266876  1
  O  O251  1  0.07632866  0.86645269  0.84313247  1
  O  O252  1  0.58905440  0.36890664  0.18563591  1
  O  O253  1  0.57984601  0.36999430  0.51549247  1
  O  O254  1  0.58632645  0.36217301  0.84558497  1
  O  O255  1  0.57703797  0.87034158  0.18053346  1
  O  O256  1  0.56990109  0.87210721  0.52332765  1
  O  O257  1  0.58416810  0.86503008  0.84739081  1
  O  O258  1  0.13333760  0.41941210  0.32135272  1
  O  O259  1  0.12940679  0.42001963  0.64980429  1
  O  O260  1  0.13539463  0.41703001  0.98928132  1
  O  O261  1  0.13050015  0.91741947  0.31870445  1
  O  O262  1  0.13260882  0.92152400  0.64907703  1
  O  O263  1  0.12477862  0.91571439  0.97831954  1
  O  O264  1  0.62847872  0.41234543  0.32133075  1
  O  O265  1  0.63127875  0.42398049  0.65024803  1
  O  O266  1  0.63690919  0.41300269  0.98256524  1
  O  O267  1  0.63034658  0.91879233  0.31587318  1
  O  O268  1  0.64042526  0.92146568  0.65553721  1
  O  O269  1  0.63292044  0.92483025  0.98300394  1
  O  O270  1  0.02736009  0.20782222  0.10638050  1
  O  O271  1  0.02996418  0.20091021  0.43743726  1
  O  O272  1  0.04044085  0.19428250  0.77373638  1
  O  O273  1  0.02644222  0.69443530  0.10420856  1
  O  O274  1  0.03994486  0.70041835  0.43823083  1
  O  O275  1  0.02553990  0.69803231  0.76684568  1
  O  O276  1  0.54108381  0.19421465  0.09990023  1
  O  O277  1  0.53092149  0.19418399  0.43074889  1
  O  O278  1  0.54650138  0.18711857  0.77195953  1
  O  O279  1  0.52581988  0.70190422  0.10739175  1
  O  O280  1  0.52415560  0.70263920  0.43879502  1
  O  O281  1  0.52465141  0.69969870  0.76654907  1
  O  O282  1  0.29958156  0.47567670  0.07232096  1
  O  O283  1  0.30062803  0.46700290  0.39795728  1
  O  O284  1  0.29242881  0.46999569  0.72555526  1
  O  O285  1  0.30349829  0.96042499  0.06366827  1
  O  O286  1  0.30299223  0.97378049  0.39679747  1
  O  O287  1  0.29576655  0.97148111  0.72865787  1
  O  O288  1  0.80119355  0.46530206  0.06299968  1
  O  O289  1  0.81489927  0.46923921  0.39804245  1
  O  O290  1  0.79171299  0.47590255  0.72869336  1
  O  O291  1  0.80417464  0.96738039  0.06398634  1
  O  O292  1  0.79668540  0.96456939  0.38653891  1
  O  O293  1  0.80247828  0.96812889  0.73267805  1
  O  O294  1  0.46834846  0.29819326  0.23531817  1
  O  O295  1  0.46675587  0.31429497  0.56746073  1
  O  O296  1  0.47631677  0.28707671  0.88623823  1
  O  O297  1  0.47019172  0.80547315  0.23470687  1
  O  O298  1  0.46219426  0.79231364  0.56181769  1
  O  O299  1  0.46374348  0.81649461  0.89825195  1
  O  O300  1  0.96902984  0.30207892  0.23053302  1
  O  O301  1  0.96625198  0.30110743  0.55953608  1
  O  O302  1  0.97345240  0.30614071  0.90477142  1
  O  O303  1  0.97174392  0.79933402  0.22725514  1
  O  O304  1  0.97107775  0.79098065  0.55820343  1
  O  O305  1  0.96711377  0.79618080  0.89572357  1
  O  O306  1  0.20081443  0.02951163  0.27500228  1
  O  O307  1  0.20058308  0.03561420  0.60175909  1
  O  O308  1  0.19831398  0.03532619  0.93248693  1
  O  O309  1  0.19476932  0.52786146  0.27079061  1
  O  O310  1  0.19408311  0.52839041  0.60382600  1
  O  O311  1  0.18311206  0.53347120  0.93513513  1
  O  O312  1  0.70019942  0.03051428  0.26928978  1
  O  O313  1  0.70842662  0.02986300  0.60743395  1
  O  O314  1  0.71009359  0.03079255  0.93471794  1
  O  O315  1  0.69555969  0.53015024  0.26294139  1
  O  O316  1  0.69960342  0.53745102  0.61168477  1
  O  O317  1  0.70408003  0.52456328  0.93881477  1
  O  O318  1  0.07980275  0.09573566  0.04049430  1
  O  O319  1  0.07998659  0.08704801  0.36931555  1
  O  O320  1  0.09462501  0.09307824  0.69549863  1
  O  O321  1  0.08147566  0.58342133  0.03899521  1
  O  O322  1  0.08277823  0.58265875  0.36913162  1
  O  O323  1  0.08031387  0.58514528  0.70433356  1
  O  O324  1  0.59357149  0.08573026  0.03146872  1
  O  O325  1  0.58757839  0.08512714  0.36665336  1
  O  O326  1  0.60960451  0.08474181  0.70299834  1
  O  O327  1  0.57484810  0.58638852  0.04030623  1
  O  O328  1  0.56840381  0.58608396  0.36840072  1
  O  O329  1  0.58004148  0.58687520  0.70568994  1
  O  O330  1  0.41930134  0.43542707  0.13676765  1
  O  O331  1  0.41137230  0.41189954  0.46535445  1
  O  O332  1  0.40752795  0.41982837  0.78995822  1
  O  O333  1  0.41197428  0.90914676  0.13721946  1
  O  O334  1  0.41264743  0.91749414  0.46402700  1
  O  O335  1  0.39823240  0.90323983  0.78714965  1
  O  O336  1  0.91375560  0.41800326  0.13491686  1
  O  O337  1  0.92110623  0.41813738  0.47113447  1
  O  O338  1  0.90891401  0.42846875  0.79055944  1
  O  O339  1  0.91123540  0.90761303  0.12917767  1
  O  O340  1  0.91224777  0.91397575  0.44910173  1
  O  O341  1  0.91418752  0.91329406  0.79646098  1
  O  O342  1  0.41638124  0.40966227  0.30377631  1
  O  O343  1  0.41722436  0.42236491  0.64163143  1
  O  O344  1  0.40624609  0.39301184  0.93362787  1
  O  O345  1  0.41940525  0.91932780  0.30212094  1
  O  O346  1  0.41591786  0.90952626  0.62571030  1
  O  O347  1  0.40225712  0.91612402  0.96893119  1
  O  O348  1  0.91505612  0.41393121  0.29535591  1
  O  O349  1  0.91238676  0.41614487  0.62279262  1
  O  O350  1  0.91627036  0.41651182  0.96424523  1
  O  O351  1  0.92440552  0.91558273  0.29562211  1
  O  O352  1  0.91142542  0.90229195  0.61478126  1
  O  O353  1  0.91539213  0.90793562  0.96332035  1
  O  O354  1  0.08761963  0.08353505  0.21287697  1
  O  O355  1  0.09168023  0.09464595  0.53673951  1
  O  O356  1  0.09297152  0.09937836  0.87676836  1
  O  O357  1  0.08228351  0.57954081  0.20313827  1
  O  O358  1  0.08212120  0.57990081  0.53583103  1
  O  O359  1  0.07727403  0.58656430  0.86223587  1
  O  O360  1  0.58875140  0.08175025  0.19909056  1
  O  O361  1  0.58718492  0.06437168  0.53574897  1
  O  O362  1  0.60135854  0.08732104  0.87005245  1
  O  O363  1  0.58543113  0.58554431  0.20072559  1
  O  O364  1  0.58192111  0.58104691  0.54031240  1
  O  O365  1  0.59393626  0.58477809  0.88264961  1
  O  O366  1  0.14174255  0.22902425  0.07085380  1
  O  O367  1  0.13774426  0.22042780  0.39218768  1
  O  O368  1  0.14354305  0.23004376  0.72883419  1
  O  O369  1  0.13451575  0.71819455  0.06026892  1
  O  O370  1  0.13788056  0.71309110  0.37926206  1
  O  O371  1  0.13191970  0.71838895  0.71955245  1
  O  O372  1  0.64729078  0.22045015  0.05519307  1
  O  O373  1  0.64254876  0.21996080  0.39199838  1
  O  O374  1  0.64421978  0.22259017  0.72260183  1
  O  O375  1  0.63225622  0.71706742  0.05911341  1
  O  O376  1  0.63422323  0.71740289  0.39499698  1
  O  O377  1  0.63134413  0.71848616  0.71790769  1
  O  O378  1  0.29211614  0.36422995  0.11629979  1
  O  O379  1  0.27619008  0.35919282  0.44127651  1
  O  O380  1  0.27702240  0.36413331  0.77451006  1
  O  O381  1  0.27570885  0.86259308  0.11683337  1
  O  O382  1  0.27748092  0.86364556  0.43672821  1
  O  O383  1  0.26164838  0.86254410  0.76744894  1
  O  O384  1  0.78074469  0.36046594  0.11253136  1
  O  O385  1  0.78612038  0.36197524  0.44200449  1
  O  O386  1  0.77883149  0.36527295  0.77231927  1
  O  O387  1  0.77557826  0.85854249  0.10540661  1
  O  O388  1  0.78312846  0.86593797  0.44443069  1
  O  O389  1  0.78076948  0.86238878  0.77922283  1
  O  O390  1  0.36011850  0.27601355  0.27915591  1
  O  O391  1  0.35785679  0.28724971  0.60894784  1
  O  O392  1  0.37239534  0.26217871  0.93378007  1
  O  O393  1  0.36135940  0.78637562  0.27956250  1
  O  O394  1  0.35664822  0.78034160  0.61203817  1
  O  O395  1  0.35865161  0.77749843  0.93897205  1
  O  O396  1  0.86166237  0.27950919  0.27567361  1
  O  O397  1  0.86467186  0.28399813  0.61304949  1
  O  O398  1  0.86601604  0.28380306  0.95134170  1
  O  O399  1  0.86193188  0.78442386  0.27126485  1
  O  O400  1  0.86045040  0.76948437  0.60013093  1
  O  O401  1  0.86396259  0.77479640  0.94685178  1
  O  O402  1  0.21833426  0.13529533  0.22579088  1
  O  O403  1  0.22677648  0.14172218  0.55638515  1
  O  O404  1  0.22798596  0.14466473  0.89123900  1
  O  O405  1  0.21573974  0.63765144  0.22790606  1
  O  O406  1  0.21532465  0.63584557  0.55790709  1
  O  O407  1  0.21379267  0.63452579  0.88484350  1
  O  O408  1  0.72330641  0.13836683  0.22550461  1
  O  O409  1  0.71428786  0.13637338  0.55758020  1
  O  O410  1  0.73555097  0.14185432  0.89602841  1
  O  O411  1  0.71836451  0.63769509  0.21747135  1
  O  O412  1  0.71278007  0.63855107  0.55686786  1
  O  O413  1  0.72665596  0.63193855  0.89439829  1
  O  O414  1  0.49569413  0.33844017  0.02070244  1
  O  O415  1  0.49156354  0.32886904  0.36914746  1
  O  O416  1  0.48900415  0.33074563  0.69806152  1
  O  O417  1  0.48657739  0.83676582  0.02952188  1
  O  O418  1  0.49267217  0.83649155  0.36823744  1
  O  O419  1  0.48949408  0.82999671  0.69689643  1
  O  O420  1  0.99485437  0.34535322  0.03941911  1
  O  O421  1  0.99130409  0.33518308  0.36430525  1
  O  O422  1  0.99737383  0.34702947  0.69519871  1
  O  O423  1  0.99537655  0.82928225  0.03021713  1
  O  O424  1  0.99433129  0.82978373  0.36042009  1
  O  O425  1  0.98803979  0.82618644  0.69045692  1
  O  O426  1  0.16254607  0.00279929  0.14064054  1
  O  O427  1  0.16587090  0.01170625  0.46832996  1
  O  O428  1  0.16343944  0.01846731  0.80010812  1
  O  O429  1  0.16547308  0.50690949  0.13749943  1
  O  O430  1  0.16401415  0.50456975  0.47033266  1
  O  O431  1  0.15684756  0.50359085  0.80116829  1
  O  O432  1  0.67280907  0.00737918  0.13578150  1
  O  O433  1  0.67617963  0.00330107  0.47220559  1
  O  O434  1  0.68313300  0.01292892  0.80277626  1
  O  O435  1  0.66278498  0.50740662  0.12964588  1
  O  O436  1  0.66209531  0.50289808  0.47612498  1
  O  O437  1  0.66439511  0.50550823  0.80459758  1
  O  O438  1  0.00679426  0.17023650  0.30367521  1
  O  O439  1  0.01209979  0.17881541  0.64261261  1
  O  O440  1  0.01386249  0.18317325  0.97508855  1
  O  O441  1  0.00378598  0.66029221  0.30162949  1
  O  O442  1  0.00228289  0.65909430  0.63210622  1
  O  O443  1  0.00499037  0.66358255  0.97091711  1
  O  O444  1  0.51358704  0.16515551  0.29794254  1
  O  O445  1  0.51462483  0.15360964  0.63820626  1
  O  O446  1  0.51677677  0.16734185  0.96688242  1
  O  O447  1  0.50364746  0.67398560  0.30507189  1
  O  O448  1  0.50067251  0.65949743  0.63217637  1
  O  O449  1  0.49868466  0.66746663  0.97301362  1
  O  O450  1  0.33294460  0.49514904  0.20590786  1
  O  O451  1  0.33069320  0.48955689  0.53096410  1
  O  O452  1  0.32859497  0.49813268  0.85971819  1
  O  O453  1  0.33408993  0.99340967  0.19862402  1
  O  O454  1  0.33066319  0.99240212  0.52933841  1
  O  O455  1  0.32589485  0.98748678  0.86065961  1
  O  O456  1  0.82988900  0.49339346  0.19741703  1
  O  O457  1  0.83367193  0.49418394  0.52944335  1
  O  O458  1  0.82876074  0.49469925  0.86293456  1
  O  O459  1  0.83402892  0.98752353  0.19660324  1
  O  O460  1  0.84247768  1.00039611  0.52195920  1
  O  O461  1  0.84010992  0.99198510  0.86739735  1
