# generated using pymatgen
data_Na31Fe20(SO4)36
_symmetry_space_group_name_H-M   'P 1'
_cell_length_a   18.07205260
_cell_length_b   18.06390984
_cell_length_c   19.69941038
_cell_angle_alpha   107.56441355
_cell_angle_beta   107.60004689
_cell_angle_gamma   90.71267620
_symmetry_Int_Tables_number   1
_chemical_formula_structural   Na31Fe20(SO4)36
_chemical_formula_sum   'Na62 Fe40 S72 O288'
_cell_volume   5805.93157614
_cell_formula_units_Z   2
loop_
 _symmetry_equiv_pos_site_id
 _symmetry_equiv_pos_as_xyz
  1  'x, y, z'
loop_
 _atom_site_type_symbol
 _atom_site_label
 _atom_site_symmetry_multiplicity
 _atom_site_fract_x
 _atom_site_fract_y
 _atom_site_fract_z
 _atom_site_occupancy
  Na  Na0  1  0.13168112  0.36728493  0.08201259  1
  Na  Na1  1  0.13505743  0.37144343  0.42072035  1
  Na  Na2  1  0.13764901  0.38851917  0.75739009  1
  Na  Na3  1  0.18489105  0.87655493  0.11736897  1
  Na  Na4  1  0.12752112  0.85040986  0.39799403  1
  Na  Na5  1  0.13418951  0.85743546  0.75273054  1
  Na  Na6  1  0.63480129  0.36736180  0.08653394  1
  Na  Na7  1  0.63483879  0.36623955  0.42325988  1
  Na  Na8  1  0.62523581  0.35876992  0.73527880  1
  Na  Na9  1  0.63083556  0.84872507  0.07409684  1
  Na  Na10  1  0.63605321  0.85999517  0.40889067  1
  Na  Na11  1  0.64390247  0.86234893  0.75450048  1
  Na  Na12  1  0.36174127  0.12528466  0.24492570  1
  Na  Na13  1  0.36455733  0.14103144  0.58467211  1
  Na  Na14  1  0.36760591  0.13812315  0.91614887  1
  Na  Na15  1  0.35186154  0.64497083  0.24224574  1
  Na  Na16  1  0.36833474  0.63835870  0.58849060  1
  Na  Na17  1  0.36361567  0.63013566  0.92599864  1
  Na  Na18  1  0.87223816  0.13098107  0.25381003  1
  Na  Na19  1  0.85266018  0.13438210  0.57325218  1
  Na  Na20  1  0.86622257  0.13123596  0.91641135  1
  Na  Na21  1  0.86001318  0.64620560  0.25418593  1
  Na  Na22  1  0.87772477  0.63579944  0.59746072  1
  Na  Na23  1  0.86615944  0.63850875  0.92172058  1
  Na  Na24  1  0.99117011  0.50597146  0.43159124  1
  Na  Na25  1  0.47361156  0.51493041  0.07687861  1
  Na  Na26  1  1.02160465  -0.02845373  0.10656404  1
  Na  Na27  1  0.50553732  -0.00954009  0.06781014  1
  Na  Na28  1  0.49525858  -0.00037671  0.76459657  1
  Na  Na29  1  0.48017261  0.03414007  0.40895040  1
  Na  Na30  1  1.00962580  0.00552246  0.39147930  1
  Na  Na31  1  1.00958104  -0.02013920  0.76450769  1
  Na  Na32  1  1.00429393  0.56267675  0.09223868  1
  Na  Na33  1  0.48399685  0.50607257  0.26346344  1
  Na  Na34  1  0.49159056  0.50450467  0.90094780  1
  Na  Na35  1  0.49052276  1.01535101  0.57461841  1
  Na  Na36  1  0.02266780  0.96723239  0.93070359  1
  Na  Na37  1  0.49896521  0.48071084  0.59491963  1
  Na  Na38  1  0.00583221  0.99422179  0.58152252  1
  Na  Na39  1  -0.01000840  0.52038479  0.24315818  1
  Na  Na40  1  0.49865550  0.94565212  0.23373169  1
  Na  Na41  1  0.02369668  0.50454025  0.88913353  1
  Na  Na42  1  0.74011344  0.23872946  0.35054794  1
  Na  Na43  1  0.25646317  0.75044269  0.01471112  1
  Na  Na44  1  0.76528002  0.75982099  0.66452217  1
  Na  Na45  1  0.24337750  0.24395398  0.00192214  1
  Na  Na46  1  0.25117836  0.24625568  0.33134244  1
  Na  Na47  1  0.23706380  0.72988725  0.67601261  1
  Na  Na48  1  0.75085871  0.24873597  0.00043602  1
  Na  Na49  1  0.75053347  0.25249506  0.65066532  1
  Na  Na50  1  0.25705941  0.26725286  0.66567391  1
  Na  Na51  1  0.25168193  0.76986131  0.30881194  1
  Na  Na52  1  0.24218840  0.23809062  0.16498325  1
  Na  Na53  1  0.24820137  0.74978808  0.49599046  1
  Na  Na54  1  0.74819218  0.74868120  0.16554345  1
  Na  Na55  1  0.74642712  0.73989474  0.84352562  1
  Na  Na56  1  0.74482298  0.24325805  0.17440433  1
  Na  Na57  1  0.24075776  0.73221858  0.84229128  1
  Na  Na58  1  0.25618667  0.25955269  0.49660492  1
  Na  Na59  1  0.76129325  0.75728615  0.48943363  1
  Na  Na60  1  0.74938470  0.25215252  0.82671949  1
  Na  Na61  1  0.25740810  0.26714466  0.83380068  1
  Fe  Fe62  1  0.46503334  0.80956015  0.45287868  1
  Fe  Fe63  1  0.46627075  0.29687317  0.45500017  1
  Fe  Fe64  1  0.96381786  0.30579594  0.78360141  1
  Fe  Fe65  1  0.96339910  0.30976560  0.45553670  1
  Fe  Fe66  1  0.46600364  0.30856715  0.11776988  1
  Fe  Fe67  1  0.46426886  0.81041178  0.78632039  1
  Fe  Fe68  1  0.96415143  0.80533829  0.44826999  1
  Fe  Fe69  1  0.46808958  0.30504177  0.78661868  1
  Fe  Fe70  1  0.96849737  0.80080167  0.12306666  1
  Fe  Fe71  1  0.96488848  0.30788974  0.11854405  1
  Fe  Fe72  1  0.19784788  0.53385504  0.04532640  1
  Fe  Fe73  1  0.69130687  0.03327961  0.38134178  1
  Fe  Fe74  1  0.19729635  0.03323844  0.37432569  1
  Fe  Fe75  1  0.69120791  0.53642555  0.38181783  1
  Fe  Fe76  1  0.68852187  0.53384662  0.04552047  1
  Fe  Fe77  1  0.18946875  0.53747507  0.37694589  1
  Fe  Fe78  1  0.19261428  0.03625949  0.71446046  1
  Fe  Fe79  1  0.69172833  0.03320983  0.71339742  1
  Fe  Fe80  1  0.69343776  0.53489864  0.71540907  1
  Fe  Fe81  1  0.69477822  0.03085806  0.04624574  1
  Fe  Fe82  1  0.03507828  0.69427101  0.55024247  1
  Fe  Fe83  1  0.53316181  0.69298582  0.88123888  1
  Fe  Fe84  1  0.03337173  0.19315546  0.21187482  1
  Fe  Fe85  1  0.03582579  0.19476618  0.54886291  1
  Fe  Fe86  1  0.53250914  0.19147970  0.21270324  1
  Fe  Fe87  1  0.53578269  0.68796298  0.54426055  1
  Fe  Fe88  1  0.52855510  0.69891402  0.21249716  1
  Fe  Fe89  1  0.03284148  0.19165632  0.88207712  1
  Fe  Fe90  1  0.53796737  0.19108811  0.88297728  1
  Fe  Fe91  1  0.03359913  0.69878290  0.86872442  1
  Fe  Fe92  1  0.80344530  0.46657973  0.28497642  1
  Fe  Fe93  1  0.30306149  0.96691912  0.95555079  1
  Fe  Fe94  1  0.31052990  0.46415619  0.29101907  1
  Fe  Fe95  1  0.81268658  0.95974484  0.95499956  1
  Fe  Fe96  1  0.80589903  0.96293116  0.28322623  1
  Fe  Fe97  1  0.80561294  0.46789606  0.95258264  1
  Fe  Fe98  1  0.30215929  0.46999018  0.62596943  1
  Fe  Fe99  1  0.80832976  0.96422801  0.61886533  1
  Fe  Fe100  1  0.80917353  0.46382889  0.61889192  1
  Fe  Fe101  1  0.30623658  0.96410188  0.62010819  1
  S  S102  1  0.36146230  0.14328547  0.07401334  1
  S  S103  1  0.35663884  0.14001089  0.42199249  1
  S  S104  1  0.35981908  0.13841321  0.75087767  1
  S  S105  1  0.35962642  0.63439768  0.08655188  1
  S  S106  1  0.35921301  0.64274545  0.41590271  1
  S  S107  1  0.36330152  0.64280172  0.74812597  1
  S  S108  1  0.85787079  0.14028274  0.08475543  1
  S  S109  1  0.86257433  0.13714031  0.41603766  1
  S  S110  1  0.85852484  0.14000171  0.74781674  1
  S  S111  1  0.85743086  0.63768538  0.08477206  1
  S  S112  1  0.85995106  0.63787858  0.41674192  1
  S  S113  1  0.85944334  0.63713821  0.75251782  1
  S  S114  1  0.14046826  0.35965723  0.25021619  1
  S  S115  1  0.13710321  0.35921161  0.58137822  1
  S  S116  1  0.13566408  0.36122875  0.91861701  1
  S  S117  1  0.13458625  0.87052861  0.25243869  1
  S  S118  1  0.13941408  0.86083483  0.58272847  1
  S  S119  1  0.14368208  0.85990906  0.91761638  1
  S  S120  1  0.63892978  0.36031978  0.25226796  1
  S  S121  1  0.63815396  0.36409874  0.58305481  1
  S  S122  1  0.64432751  0.35743890  0.91588417  1
  S  S123  1  0.64194836  0.85812160  0.24695334  1
  S  S124  1  0.64315480  0.85629543  0.58589953  1
  S  S125  1  0.63839623  0.85990769  0.91570213  1
  S  S126  1  0.05894987  0.16541292  0.04080599  1
  S  S127  1  0.07140030  0.17394184  0.37766069  1
  S  S128  1  0.06725739  0.16930602  0.70932509  1
  S  S129  1  0.07512095  0.67664802  0.03851885  1
  S  S130  1  0.06040390  0.66557055  0.37667081  1
  S  S131  1  0.06670273  0.66800137  0.70930337  1
  S  S132  1  0.57226841  0.16995674  0.04462841  1
  S  S133  1  0.56301384  0.16573646  0.37040912  1
  S  S134  1  0.56344496  0.16414084  0.71017710  1
  S  S135  1  0.56418197  0.66123363  0.04080082  1
  S  S136  1  0.56710783  0.67034814  0.37750319  1
  S  S137  1  0.57112165  0.67169357  0.70963529  1
  S  S138  1  0.32867530  0.42836009  0.12639505  1
  S  S139  1  0.33022170  0.43022861  0.45841187  1
  S  S140  1  0.33379174  0.43116938  0.79221507  1
  S  S141  1  0.34466686  0.94578679  0.11814617  1
  S  S142  1  0.32462051  0.93348363  0.45838638  1
  S  S143  1  0.32526682  0.93036625  0.78799883  1
  S  S144  1  0.82877725  0.43226428  0.12426088  1
  S  S145  1  0.82836921  0.43319242  0.45479319  1
  S  S146  1  0.82692167  0.42813101  0.78993370  1
  S  S147  1  0.82801606  0.92896864  0.12311142  1
  S  S148  1  0.83179702  0.93358490  0.45862303  1
  S  S149  1  0.83373906  0.93917934  0.79388088  1
  S  S150  1  0.43077701  0.32493188  0.29074992  1
  S  S151  1  0.42995194  0.33249638  0.62541060  1
  S  S152  1  0.44346345  0.33386802  0.95724608  1
  S  S153  1  0.43924567  0.83541448  0.29950451  1
  S  S154  1  0.43535415  0.83593056  0.62439566  1
  S  S155  1  0.42971996  0.82980892  0.95342760  1
  S  S156  1  0.93218848  0.33311067  0.29083947  1
  S  S157  1  0.92919779  0.32587110  0.62256157  1
  S  S158  1  0.92800575  0.32923593  0.95657432  1
  S  S159  1  0.92839585  0.83109534  0.28991177  1
  S  S160  1  0.93787878  0.83502599  0.62358653  1
  S  S161  1  0.93680402  0.82583580  0.95780287  1
  S  S162  1  0.16743110  0.07276217  0.21021036  1
  S  S163  1  0.17040229  0.06980242  0.54228366  1
  S  S164  1  0.17079660  0.06607733  0.87506931  1
  S  S165  1  0.16955020  0.56336486  0.21178976  1
  S  S166  1  0.17356361  0.57005211  0.53997394  1
  S  S167  1  0.17069171  0.57484643  0.87822628  1
  S  S168  1  0.67241522  0.06815389  0.20975661  1
  S  S169  1  0.66560156  0.05660310  0.54096018  1
  S  S170  1  0.67207613  0.06543340  0.87701088  1
  S  S171  1  0.66641017  0.56690510  0.20761515  1
  S  S172  1  0.67578119  0.57220001  0.54580934  1
  S  S173  1  0.66762187  0.56583306  0.87481273  1
  O  O174  1  0.38017404  0.21791876  0.05908194  1
  O  O175  1  0.36138137  0.22423334  0.42326499  1
  O  O176  1  0.36916180  0.21751398  0.74364196  1
  O  O177  1  0.36732804  0.71154188  0.07946253  1
  O  O178  1  0.36661234  0.72240340  0.40874708  1
  O  O179  1  0.37775360  0.71812744  0.73218798  1
  O  O180  1  0.86588750  0.21955529  0.07634247  1
  O  O181  1  0.87180018  0.21501536  0.40501955  1
  O  O182  1  0.86726130  0.21981008  0.74082792  1
  O  O183  1  0.86942316  0.71631878  0.07863860  1
  O  O184  1  0.87035979  0.71727795  0.41120508  1
  O  O185  1  0.86020585  0.71131333  0.73792725  1
  O  O186  1  0.28343779  0.14493206  0.08060901  1
  O  O187  1  0.27578098  0.12901258  0.43107452  1
  O  O188  1  0.28173825  0.13093784  0.76157678  1
  O  O189  1  0.28247080  0.62224909  0.10075334  1
  O  O190  1  0.27909981  0.63056886  0.42092481  1
  O  O191  1  0.28539972  0.64054202  0.75543471  1
  O  O192  1  0.77820991  0.13080861  0.09203502  1
  O  O193  1  0.78311939  0.12790576  0.42225424  1
  O  O194  1  0.77959765  0.13149538  0.75657015  1
  O  O195  1  0.77588042  0.62746333  0.08741679  1
  O  O196  1  0.78030081  0.62908746  0.42323446  1
  O  O197  1  0.78424413  0.62229190  0.76777072  1
  O  O198  1  0.12925912  0.28103558  0.25877436  1
  O  O199  1  0.13137158  0.27599189  0.58410044  1
  O  O200  1  0.12200255  0.28353999  0.93021226  1
  O  O201  1  0.12423379  0.79841323  0.26972247  1
  O  O202  1  0.13199242  0.78393570  0.59484733  1
  O  O203  1  0.13358886  0.77260661  0.90692464  1
  O  O204  1  0.63168875  0.28070967  0.25949006  1
  O  O205  1  0.63370994  0.29237246  0.60164746  1
  O  O206  1  0.63697322  0.27762553  0.92307874  1
  O  O207  1  0.63049659  0.77964533  0.25441289  1
  O  O208  1  0.63144093  0.77739049  0.59339819  1
  O  O209  1  0.62662084  0.78138079  0.92325249  1
  O  O210  1  0.22037744  0.36581578  0.24348394  1
  O  O211  1  0.21495105  0.36930258  0.56965802  1
  O  O212  1  0.21116052  0.36625973  0.90781950  1
  O  O213  1  0.21134590  0.88271370  0.24498715  1
  O  O214  1  0.21942748  0.86997574  0.57660539  1
  O  O215  1  0.22569406  0.86975388  0.91161278  1
  O  O216  1  0.71674066  0.36965077  0.24109789  1
  O  O217  1  0.71522503  0.37777067  0.57274158  1
  O  O218  1  0.72444239  0.36781045  0.91021500  1
  O  O219  1  0.72383065  0.86749077  0.24437330  1
  O  O220  1  0.72436086  0.86304610  0.58091942  1
  O  O221  1  0.71715343  0.86739751  0.90606061  1
  O  O222  1  0.41979072  0.13524952  0.14228064  1
  O  O223  1  0.41465380  0.12678408  0.48640748  1
  O  O224  1  0.42034920  0.12692216  0.81666416  1
  O  O225  1  0.42079399  0.62665502  0.15633537  1
  O  O226  1  0.41634848  0.63822347  0.48688022  1
  O  O227  1  0.42220890  0.63708195  0.81771863  1
  O  O228  1  0.91597599  0.13489053  0.15416610  1
  O  O229  1  0.92136282  0.13140682  0.48532290  1
  O  O230  1  0.91790865  0.13152910  0.81546986  1
  O  O231  1  0.91300093  0.62451218  0.15088844  1
  O  O232  1  0.91808149  0.62636022  0.48385292  1
  O  O233  1  0.92276855  0.63726253  0.82307682  1
  O  O234  1  0.36715642  0.07900571  0.00633709  1
  O  O235  1  0.36199092  0.08925900  0.35092672  1
  O  O236  1  0.36480755  0.07963735  0.68125402  1
  O  O237  1  0.36603015  0.57228628  0.02102190  1
  O  O238  1  0.37067771  0.58415716  0.34941524  1
  O  O239  1  0.37119001  0.57972702  0.68209690  1
  O  O240  1  0.86583144  0.08103467  0.01730445  1
  O  O241  1  0.87315359  0.07628774  0.34974340  1
  O  O242  1  0.86567171  0.08231378  0.67900006  1
  O  O243  1  0.86710541  0.57929580  0.01508673  1
  O  O244  1  0.86813524  0.57934249  0.34789209  1
  O  O245  1  0.86869400  0.57349395  0.68805840  1
  O  O246  1  0.08259987  0.36722883  0.18119937  1
  O  O247  1  0.07681468  0.36473424  0.51164346  1
  O  O248  1  0.07278172  0.36978495  0.85171049  1
  O  O249  1  0.07261361  0.87559495  0.18406665  1
  O  O250  1  0.08195575  0.86584478  0.51225590  1
  O  O251  1  0.08841641  0.88064783  0.85577916  1
  O  O252  1  0.57840654  0.36904152  0.18536994  1
  O  O253  1  0.57692588  0.36400368  0.51227456  1
  O  O254  1  0.58680989  0.36489767  0.84721722  1
  O  O255  1  0.58689594  0.86883485  0.17979464  1
  O  O256  1  0.58690481  0.86584280  0.51774585  1
  O  O257  1  0.57996262  0.86999812  0.84787284  1
  O  O258  1  0.13242130  0.41939231  0.31763607  1
  O  O259  1  0.12997665  0.41343937  0.64879335  1
  O  O260  1  0.12914285  0.42277494  0.98681308  1
  O  O261  1  0.12431434  0.93672346  0.31996379  1
  O  O262  1  0.12803790  0.92275586  0.64760701  1
  O  O263  1  0.13715700  0.90439073  0.99035996  1
  O  O264  1  0.63279513  0.41886200  0.32122406  1
  O  O265  1  0.62489407  0.43051363  0.64547060  1
  O  O266  1  0.63548729  0.41479651  0.98427211  1
  O  O267  1  0.63387308  0.91821349  0.31586837  1
  O  O268  1  0.63588468  0.91521778  0.65453507  1
  O  O269  1  0.63265688  0.91922074  0.98465754  1
  O  O270  1  0.02455293  0.20466752  0.10302571  1
  O  O271  1  0.03234828  0.19929140  0.43680727  1
  O  O272  1  0.03132184  0.19926064  0.77077819  1
  O  O273  1  0.03214963  0.70028558  0.09381108  1
  O  O274  1  0.03140608  0.69987883  0.44360923  1
  O  O275  1  0.02488613  0.69904900  0.76643332  1
  O  O276  1  0.53979792  0.20383884  0.10767767  1
  O  O277  1  0.52434556  0.19277437  0.42841166  1
  O  O278  1  0.53297841  0.19925144  0.77590655  1
  O  O279  1  0.52951918  0.68095059  0.10145064  1
  O  O280  1  0.52935730  0.69941541  0.43805891  1
  O  O281  1  0.53698063  0.70163435  0.77165685  1
  O  O282  1  0.29240489  0.46154831  0.06657165  1
  O  O283  1  0.30420598  0.46942443  0.39877990  1
  O  O284  1  0.30401507  0.45542700  0.72467625  1
  O  O285  1  0.30214917  0.97773161  0.05482903  1
  O  O286  1  0.29243885  0.97054867  0.39934641  1
  O  O287  1  0.29497411  0.96986581  0.72852640  1
  O  O288  1  0.79798402  0.46682098  0.06255623  1
  O  O289  1  0.79697551  0.47059058  0.39398551  1
  O  O290  1  0.79506027  0.46016913  0.72648547  1
  O  O291  1  0.79769093  0.96623744  0.06109373  1
  O  O292  1  0.79977773  0.96785770  0.39651663  1
  O  O293  1  0.79840812  0.97482998  0.73198838  1
  O  O294  1  0.46644565  0.29584059  0.22850073  1
  O  O295  1  0.46512122  0.30955151  0.56493045  1
  O  O296  1  0.47775920  0.29277205  0.89545108  1
  O  O297  1  0.47314294  0.80182141  0.23819071  1
  O  O298  1  0.47195963  0.80691894  0.56373695  1
  O  O299  1  0.46002933  0.79990832  0.88699704  1
  O  O300  1  0.96827488  0.30328544  0.22947940  1
  O  O301  1  0.96648767  0.29457575  0.56146973  1
  O  O302  1  0.96137549  0.29711408  0.89380849  1
  O  O303  1  0.96061637  0.80445761  0.22821024  1
  O  O304  1  0.96860945  0.80186988  0.55814435  1
  O  O305  1  0.97855407  0.79922305  0.90144246  1
  O  O306  1  0.19584222  0.05468365  0.28249260  1
  O  O307  1  0.19775070  0.03018872  0.60116272  1
  O  O308  1  0.20340816  0.02739247  0.93221761  1
  O  O309  1  0.20601914  0.52399477  0.27071491  1
  O  O310  1  0.20334714  0.53460032  0.59927313  1
  O  O311  1  0.17800437  0.53972177  0.93949769  1
  O  O312  1  0.70154115  0.03234551  0.27133797  1
  O  O313  1  0.70276454  0.02168844  0.60346565  1
  O  O314  1  0.70305820  0.03021630  0.93827930  1
  O  O315  1  0.69854840  0.53088994  0.26967694  1
  O  O316  1  0.70823576  0.53805013  0.60802612  1
  O  O317  1  0.69877434  0.52793895  0.93549230  1
  O  O318  1  0.06629697  0.08405082  0.03694257  1
  O  O319  1  0.09604572  0.09455475  0.37602021  1
  O  O320  1  0.08340513  0.08641331  0.70336155  1
  O  O321  1  0.09275585  0.59377778  0.03506660  1
  O  O322  1  0.07824609  0.58306479  0.37321426  1
  O  O323  1  0.08224922  0.58875409  0.70066063  1
  O  O324  1  0.59068811  0.08945504  0.04294142  1
  O  O325  1  0.58409139  0.08441176  0.36742685  1
  O  O326  1  0.58468124  0.08347623  0.71143408  1
  O  O327  1  0.57967551  0.57597362  0.02494773  1
  O  O328  1  0.58503868  0.58826374  0.37228804  1
  O  O329  1  0.58643651  0.58890009  0.70050680  1
  O  O330  1  0.41167859  0.41431579  0.12821564  1
  O  O331  1  0.40999122  0.40716485  0.46409426  1
  O  O332  1  0.41344140  0.40276829  0.79602211  1
  O  O333  1  0.42713719  0.94409693  0.11980117  1
  O  O334  1  0.40618397  0.91587344  0.46161026  1
  O  O335  1  0.40746159  0.91670942  0.79200163  1
  O  O336  1  0.91080178  0.41461592  0.13023282  1
  O  O337  1  0.90880313  0.41421797  0.45497216  1
  O  O338  1  0.90922357  0.41180042  0.79701466  1
  O  O339  1  0.90684949  0.90753899  0.12351833  1
  O  O340  1  0.91377129  0.91591163  0.46261175  1
  O  O341  1  0.91630933  0.93202423  0.80150516  1
  O  O342  1  0.41452280  0.40707204  0.29625899  1
  O  O343  1  0.41085943  0.41448720  0.63616216  1
  O  O344  1  0.44018096  0.41571143  0.96100073  1
  O  O345  1  0.43023015  0.91810012  0.30729311  1
  O  O346  1  0.41941709  0.91929459  0.63181441  1
  O  O347  1  0.39924425  0.90786654  0.95213100  1
  O  O348  1  0.91461115  0.41538537  0.29628289  1
  O  O349  1  0.90720124  0.40389458  0.62201517  1
  O  O350  1  0.90944107  0.41005021  0.96094601  1
  O  O351  1  0.91106849  0.91463540  0.30142596  1
  O  O352  1  0.91625323  0.91613692  0.62380419  1
  O  O353  1  0.91846406  0.90831179  0.96062189  1
  O  O354  1  0.08499872  0.09377870  0.20058375  1
  O  O355  1  0.08648405  0.08338701  0.53396894  1
  O  O356  1  0.08997814  0.08540733  0.87491512  1
  O  O357  1  0.08731327  0.56909261  0.20797121  1
  O  O358  1  0.09225420  0.58998389  0.53438418  1
  O  O359  1  0.08918986  0.60240152  0.86192036  1
  O  O360  1  0.59097861  0.08669840  0.20225625  1
  O  O361  1  0.58297712  0.06213983  0.53423204  1
  O  O362  1  0.59123956  0.08539641  0.87390965  1
  O  O363  1  0.58511247  0.58348140  0.20459980  1
  O  O364  1  0.59542091  0.59071088  0.54406753  1
  O  O365  1  0.58766501  0.58580773  0.87404550  1
  O  O366  1  0.13306214  0.21327030  0.05613929  1
  O  O367  1  0.13996088  0.22951030  0.39371198  1
  O  O368  1  0.13870373  0.21994693  0.72452836  1
  O  O369  1  0.14549248  0.72936385  0.05704165  1
  O  O370  1  0.13221984  0.71463856  0.38908238  1
  O  O371  1  0.13808522  0.72428342  0.73072952  1
  O  O372  1  0.64335602  0.22122218  0.05710149  1
  O  O373  1  0.63262932  0.21894777  0.38520840  1
  O  O374  1  0.63360382  0.21495623  0.72105138  1
  O  O375  1  0.63613493  0.71236050  0.05890755  1
  O  O376  1  0.63810191  0.72231819  0.39501159  1
  O  O377  1  0.64421087  0.72179323  0.72615154  1
  O  O378  1  0.28256684  0.35476138  0.11595103  1
  O  O379  1  0.27282936  0.36131070  0.43846562  1
  O  O380  1  0.27864344  0.36393897  0.78355956  1
  O  O381  1  0.30532040  0.86733129  0.10081877  1
  O  O382  1  0.27363138  0.86172218  0.44365064  1
  O  O383  1  0.27539469  0.85722672  0.76864449  1
  O  O384  1  0.77748927  0.36125479  0.11056479  1
  O  O385  1  0.77650640  0.36234865  0.43866558  1
  O  O386  1  0.77626959  0.35613621  0.77561246  1
  O  O387  1  0.77323765  0.86184805  0.11037188  1
  O  O388  1  0.78136481  0.86382161  0.44768565  1
  O  O389  1  0.78638884  0.86418719  0.77596308  1
  O  O390  1  0.35825748  0.27374232  0.27345103  1
  O  O391  1  0.35821398  0.27898310  0.60812563  1
  O  O392  1  0.36724742  0.28962608  0.94077464  1
  O  O393  1  0.36650569  0.78783238  0.28695370  1
  O  O394  1  0.36315652  0.78527954  0.60693930  1
  O  O395  1  0.36549956  0.77310271  0.94440815  1
  O  O396  1  0.86113447  0.28107736  0.27497981  1
  O  O397  1  0.86121367  0.27104565  0.60916929  1
  O  O398  1  0.85765605  0.27647572  0.94326974  1
  O  O399  1  0.85816620  0.78028424  0.27774779  1
  O  O400  1  0.86740622  0.78332684  0.61080467  1
  O  O401  1  0.86470819  0.77419360  0.93778251  1
  O  O402  1  0.21958194  0.14121498  0.21790267  1
  O  O403  1  0.22123285  0.14279735  0.56342436  1
  O  O404  1  0.22142689  0.13766148  0.88830989  1
  O  O405  1  0.21541140  0.63893473  0.23239329  1
  O  O406  1  0.22532116  0.64174347  0.55368136  1
  O  O407  1  0.22994969  0.64377543  0.90520223  1
  O  O408  1  0.72599373  0.13948347  0.22777357  1
  O  O409  1  0.71152317  0.13167830  0.55806849  1
  O  O410  1  0.72415166  0.13601554  0.89067666  1
  O  O411  1  0.71823461  0.63615290  0.22020239  1
  O  O412  1  0.72790363  0.64226141  0.55816929  1
  O  O413  1  0.72064792  0.63526793  0.88969561  1
  O  O414  1  0.49908535  0.32975876  0.02995341  1
  O  O415  1  0.48891789  0.32401387  0.36211439  1
  O  O416  1  0.48956923  0.32756447  0.69537933  1
  O  O417  1  0.49664466  0.84407034  0.02143298  1
  O  O418  1  0.49913275  0.83291359  0.37237197  1
  O  O419  1  0.49386391  0.83800356  0.69762764  1
  O  O420  1  0.98904328  0.33232181  0.02871181  1
  O  O421  1  0.99145224  0.33537213  0.36334562  1
  O  O422  1  0.99053863  0.33195496  0.69559163  1
  O  O423  1  0.99097115  0.83172973  0.03363307  1
  O  O424  1  0.99031222  0.83271546  0.36230870  1
  O  O425  1  0.99981396  0.84461889  0.69421420  1
  O  O426  1  0.16323795  0.00454553  0.14636522  1
  O  O427  1  0.17106853  0.01404629  0.46858233  1
  O  O428  1  0.16085927  0.00796859  0.79858838  1
  O  O429  1  0.17197305  0.51029404  0.13728780  1
  O  O430  1  0.16900178  0.51065308  0.46559625  1
  O  O431  1  0.17506294  0.51601325  0.81172846  1
  O  O432  1  0.67096140  0.00838776  0.13777175  1
  O  O433  1  0.67143428  0.00049174  0.46925358  1
  O  O434  1  0.66628834  0.00518306  0.80394555  1
  O  O435  1  0.66294882  0.50520760  0.13504481  1
  O  O436  1  0.67101201  0.51121727  0.47323810  1
  O  O437  1  0.66233533  0.50541651  0.80176704  1
  O  O438  1  0.01151559  0.16874566  0.30482061  1
  O  O439  1  0.00748105  0.16567311  0.63636558  1
  O  O440  1  0.00146437  0.16920087  0.96862039  1
  O  O441  1  -0.00279370  0.66070474  0.30796042  1
  O  O442  1  0.01025645  0.67577534  0.63715165  1
  O  O443  1  0.01863914  0.67051871  0.96171436  1
  O  O444  1  0.50444810  0.15906915  0.29500569  1
  O  O445  1  0.50032244  0.15459038  0.64026716  1
  O  O446  1  0.51173466  0.16621191  0.97241311  1
  O  O447  1  0.50780980  0.66652131  0.30465461  1
  O  O448  1  0.51149180  0.67353750  0.63829246  1
  O  O449  1  0.50520802  0.66514754  0.96972084  1
  O  O450  1  0.33726613  0.48754282  0.20220659  1
  O  O451  1  0.33336577  0.48870909  0.53165222  1
  O  O452  1  0.34587890  0.49666672  0.86098138  1
  O  O453  1  0.33940312  0.99850123  0.18870559  1
  O  O454  1  0.33141392  0.99241715  0.53345274  1
  O  O455  1  0.32344236  0.98733586  0.86040982  1
  O  O456  1  0.83225526  0.49293910  0.19687139  1
  O  O457  1  0.83319181  0.49197654  0.52782141  1
  O  O458  1  0.82795895  0.48964221  0.86082220  1
  O  O459  1  0.83384380  0.99167054  0.19542385  1
  O  O460  1  0.83719316  0.99564023  0.53121798  1
  O  O461  1  0.82809144  0.99460850  0.86607342  1
