# generated using pymatgen
data_Na31Fe20(SO4)36
_symmetry_space_group_name_H-M   'P 1'
_cell_length_a   18.08606959
_cell_length_b   18.09017666
_cell_length_c   19.71783127
_cell_angle_alpha   107.59696168
_cell_angle_beta   107.55040567
_cell_angle_gamma   90.73251463
_symmetry_Int_Tables_number   1
_chemical_formula_structural   Na31Fe20(SO4)36
_chemical_formula_sum   'Na62 Fe40 S72 O288'
_cell_volume   5824.68920757
_cell_formula_units_Z   2
loop_
 _symmetry_equiv_pos_site_id
 _symmetry_equiv_pos_as_xyz
  1  'x, y, z'
loop_
 _atom_site_type_symbol
 _atom_site_label
 _atom_site_symmetry_multiplicity
 _atom_site_fract_x
 _atom_site_fract_y
 _atom_site_fract_z
 _atom_site_occupancy
  Na  Na0  1  0.13959161  0.35189272  0.07434003  1
  Na  Na1  1  0.12914210  0.36758448  0.41349726  1
  Na  Na2  1  0.14089525  0.36191177  0.75256255  1
  Na  Na3  1  0.13299188  0.86806773  0.08468354  1
  Na  Na4  1  0.12762152  0.87161175  0.41983279  1
  Na  Na5  1  0.12544233  0.87402903  0.75252733  1
  Na  Na6  1  0.64127756  0.36367766  0.09105517  1
  Na  Na7  1  0.62707669  0.36061164  0.40990911  1
  Na  Na8  1  0.63210494  0.36137008  0.74024183  1
  Na  Na9  1  0.63231280  0.86679330  0.08343996  1
  Na  Na10  1  0.63684848  0.86775995  0.41911146  1
  Na  Na11  1  0.63599810  0.86761013  0.74862352  1
  Na  Na12  1  0.36319309  0.14140072  0.24779788  1
  Na  Na13  1  0.36557750  0.13560371  0.58897785  1
  Na  Na14  1  0.35669405  0.16284784  0.92299461  1
  Na  Na15  1  0.36912231  0.63329909  0.25069307  1
  Na  Na16  1  0.37059644  0.63472326  0.58732634  1
  Na  Na17  1  0.35350095  0.62235285  0.90318811  1
  Na  Na18  1  0.87250181  0.13948058  0.26217338  1
  Na  Na19  1  0.86961990  0.18877768  0.61995845  1
  Na  Na20  1  0.84780432  0.13344861  0.90394173  1
  Na  Na21  1  0.87225159  0.62861313  0.24995101  1
  Na  Na22  1  0.87358232  0.61488091  0.58121237  1
  Na  Na23  1  0.86816478  0.62819424  0.91408803  1
  Na  Na24  1  0.49206374  0.01427571  0.41965727  1
  Na  Na25  1  0.44557633  0.50370640  0.06921167  1
  Na  Na26  1  0.98337552  0.01152247  0.08999405  1
  Na  Na27  1  0.99370982  0.40783057  0.51992185  1
  Na  Na28  1  0.49569367  0.04603328  0.09268690  1
  Na  Na29  1  0.99700289  0.07817562  0.44138549  1
  Na  Na30  1  1.03608523  0.49699009  0.72467785  1
  Na  Na31  1  0.49254977  0.01065007  0.74803877  1
  Na  Na32  1  1.00635541  0.49078610  0.08758481  1
  Na  Na33  1  0.51709055  0.48623516  0.58033856  1
  Na  Na34  1  0.50189097  0.47309894  0.26526370  1
  Na  Na35  1  -0.03172024  1.03215461  0.59088013  1
  Na  Na36  1  0.50338504  0.99462763  0.91709371  1
  Na  Na37  1  -0.00966207  1.02262724  0.88305989  1
  Na  Na38  1  0.55620233  0.99864729  0.59945114  1
  Na  Na39  1  0.49292540  1.01622969  0.24525260  1
  Na  Na40  1  0.01139187  0.43839618  0.88397150  1
  Na  Na41  1  0.50651099  0.48997928  0.90769966  1
  Na  Na42  1  0.23945067  0.74086152  0.00428679  1
  Na  Na43  1  0.24167530  0.24331408  0.68368090  1
  Na  Na44  1  0.74751318  0.74395301  0.33371578  1
  Na  Na45  1  0.74864454  0.74501652  0.66472929  1
  Na  Na46  1  0.74329832  0.24202236  0.00527592  1
  Na  Na47  1  0.23707968  0.73420904  0.67504434  1
  Na  Na48  1  0.75193460  0.75203109  -0.00049378  1
  Na  Na49  1  0.76128620  0.25986478  0.31888159  1
  Na  Na50  1  0.24220538  0.74625423  0.34071295  1
  Na  Na51  1  0.24646395  0.25037376  0.33359666  1
  Na  Na52  1  0.23056477  0.23874575  0.50845744  1
  Na  Na53  1  0.76828464  0.25209626  0.80013280  1
  Na  Na54  1  0.23695527  0.73588518  0.83711558  1
  Na  Na55  1  0.24376791  0.74108564  0.50688230  1
  Na  Na56  1  0.74988028  0.74834824  0.16660357  1
  Na  Na57  1  0.78208745  0.28737553  0.50421382  1
  Na  Na58  1  0.75357554  0.75167907  0.83314097  1
  Na  Na59  1  0.74752430  0.74486726  0.50311486  1
  Na  Na60  1  0.24546293  0.74207999  0.17194078  1
  Na  Na61  1  0.26255742  0.25968974  0.15318035  1
  Fe  Fe62  1  0.46228966  0.30210976  0.45183760  1
  Fe  Fe63  1  0.46799898  0.29953286  0.11768864  1
  Fe  Fe64  1  0.96418004  0.81106759  0.12411625  1
  Fe  Fe65  1  0.96272539  0.80781570  0.78651957  1
  Fe  Fe66  1  0.46493751  0.80892724  0.11644113  1
  Fe  Fe67  1  0.46454243  0.80944645  0.45074619  1
  Fe  Fe68  1  0.46525042  0.30420843  0.78555371  1
  Fe  Fe69  1  0.46737630  0.80756566  0.78402114  1
  Fe  Fe70  1  0.96334359  0.80991349  0.45726752  1
  Fe  Fe71  1  0.96278336  0.31152379  0.12257146  1
  Fe  Fe72  1  0.18628727  0.03838010  0.04267742  1
  Fe  Fe73  1  0.18931355  0.03246224  0.37885768  1
  Fe  Fe74  1  0.19175311  0.53446020  0.37882382  1
  Fe  Fe75  1  0.68968911  0.53653543  0.37801683  1
  Fe  Fe76  1  0.69990441  0.52996950  0.70834283  1
  Fe  Fe77  1  0.69442178  0.53203149  0.04394631  1
  Fe  Fe78  1  0.18723828  0.03416197  0.71148952  1
  Fe  Fe79  1  0.69185732  0.03781884  0.05366960  1
  Fe  Fe80  1  0.68537874  0.03456002  0.38074383  1
  Fe  Fe81  1  0.20068866  0.52298398  0.04125182  1
  Fe  Fe82  1  0.53676772  0.19037059  0.88292718  1
  Fe  Fe83  1  0.03839712  0.20028596  0.87821008  1
  Fe  Fe84  1  0.53326864  0.68865388  0.54196810  1
  Fe  Fe85  1  0.53347817  0.69273547  0.20934005  1
  Fe  Fe86  1  0.03444347  0.68537142  0.54399641  1
  Fe  Fe87  1  0.03404561  0.19586057  0.21362508  1
  Fe  Fe88  1  0.53626317  0.68703545  0.87486416  1
  Fe  Fe89  1  0.03290128  0.69048005  0.87739166  1
  Fe  Fe90  1  0.03554009  0.69203038  0.21238301  1
  Fe  Fe91  1  0.53593029  0.19374424  0.55284349  1
  Fe  Fe92  1  0.30696184  0.96144442  0.61619013  1
  Fe  Fe93  1  0.80094989  0.96950120  0.62593370  1
  Fe  Fe94  1  0.81046444  0.46220625  0.94824455  1
  Fe  Fe95  1  0.81225954  0.46075694  0.28411682  1
  Fe  Fe96  1  0.31147591  0.46586047  0.29324861  1
  Fe  Fe97  1  0.80903785  0.96895731  0.29276186  1
  Fe  Fe98  1  0.30411359  0.96541270  0.28243104  1
  Fe  Fe99  1  0.31046373  0.47015671  0.63016833  1
  Fe  Fe100  1  0.80122400  0.96711265  0.95238246  1
  Fe  Fe101  1  0.30403287  0.96665053  0.94891949  1
  S  S102  1  0.35670873  0.13760333  0.08087312  1
  S  S103  1  0.35825700  0.13631020  0.41779844  1
  S  S104  1  0.36072171  0.13333714  0.74929038  1
  S  S105  1  0.35834823  0.64636112  0.08278444  1
  S  S106  1  0.35817125  0.64457104  0.41583600  1
  S  S107  1  0.36268246  0.64535017  0.74822499  1
  S  S108  1  0.85773402  0.13950158  0.08195581  1
  S  S109  1  0.84814278  0.14162178  0.42204509  1
  S  S110  1  0.86954944  0.13285145  0.75622797  1
  S  S111  1  0.86054943  0.64094835  0.08342309  1
  S  S112  1  0.85910548  0.64063654  0.41360396  1
  S  S113  1  0.85846089  0.64526283  0.75171143  1
  S  S114  1  0.14270361  0.36114772  0.24622213  1
  S  S115  1  0.15765010  0.35948938  0.58736228  1
  S  S116  1  0.14918191  0.35604035  0.92717126  1
  S  S117  1  0.14178471  0.85792458  0.24872350  1
  S  S118  1  0.14070729  0.85568716  0.58317214  1
  S  S119  1  0.13861719  0.86166231  0.91670566  1
  S  S120  1  0.63751295  0.36323070  0.24819959  1
  S  S121  1  0.63447268  0.35982965  0.58036783  1
  S  S122  1  0.64518624  0.35703453  0.91552512  1
  S  S123  1  0.63966556  0.85825727  0.24984202  1
  S  S124  1  0.63876703  0.85553186  0.58012009  1
  S  S125  1  0.63731203  0.85930855  0.91894840  1
  S  S126  1  0.06471425  0.16817896  0.04236393  1
  S  S127  1  0.07305669  0.16606648  0.36916122  1
  S  S128  1  0.06914893  0.16764344  0.71117234  1
  S  S129  1  0.06698015  0.67140278  0.04537861  1
  S  S130  1  0.07059862  0.67526881  0.37703099  1
  S  S131  1  0.06764732  0.67872548  0.71209957  1
  S  S132  1  0.56401719  0.16693385  0.03926922  1
  S  S133  1  0.55784609  0.16464150  0.37589634  1
  S  S134  1  0.56340565  0.16723925  0.71298991  1
  S  S135  1  0.56808841  0.67071425  0.03970596  1
  S  S136  1  0.56544662  0.67217071  0.37288363  1
  S  S137  1  0.57281324  0.67148243  0.70749252  1
  S  S138  1  0.33671196  0.43521095  0.13204477  1
  S  S139  1  0.32913043  0.43257424  0.46040679  1
  S  S140  1  0.34031759  0.43406397  0.79247971  1
  S  S141  1  0.32956596  0.93357404  0.12177473  1
  S  S142  1  0.33220271  0.93340163  0.45657042  1
  S  S143  1  0.33152664  0.92894737  0.78850601  1
  S  S144  1  0.83120091  0.43528839  0.11943223  1
  S  S145  1  0.81757687  0.43337259  0.44098754  1
  S  S146  1  0.82594641  0.43358283  0.78997794  1
  S  S147  1  0.82789015  0.93359129  0.12607522  1
  S  S148  1  0.82481795  0.92867494  0.45858498  1
  S  S149  1  0.82572976  0.92598988  0.79245327  1
  S  S150  1  0.42798890  0.32912942  0.29211543  1
  S  S151  1  0.42734075  0.32621909  0.62231021  1
  S  S152  1  0.44784067  0.33291255  0.95947815  1
  S  S153  1  0.43385588  0.83469492  0.28977751  1
  S  S154  1  0.43504707  0.83162938  0.62218307  1
  S  S155  1  0.43081727  0.83449303  0.95636289  1
  S  S156  1  0.93446280  0.32780436  0.28641322  1
  S  S157  1  0.95063388  0.35109620  0.62614566  1
  S  S158  1  0.93381242  0.32582481  0.95799623  1
  S  S159  1  0.92993921  0.82678674  0.29082151  1
  S  S160  1  0.92697860  0.82653365  0.62209219  1
  S  S161  1  0.93131117  0.83270244  0.96172958  1
  S  S162  1  0.17080027  0.06759466  0.20682589  1
  S  S163  1  0.17046934  0.06102527  0.54513585  1
  S  S164  1  0.17199225  0.07098053  0.87701512  1
  S  S165  1  0.17613045  0.56906009  0.20961781  1
  S  S166  1  0.17920451  0.56958339  0.54394206  1
  S  S167  1  0.16548404  0.56781324  0.87582307  1
  S  S168  1  0.66758423  0.06048011  0.21189492  1
  S  S169  1  0.67005030  0.06717190  0.54315223  1
  S  S170  1  0.66237369  0.05938182  0.87688419  1
  S  S171  1  0.66553679  0.57065244  0.20336600  1
  S  S172  1  0.66306690  0.56796023  0.53756395  1
  S  S173  1  0.67206227  0.56750099  0.87552418  1
  O  O174  1  0.36863103  0.21785970  0.07722837  1
  O  O175  1  0.36505542  0.21418529  0.40741290  1
  O  O176  1  0.36933896  0.21070444  0.73866883  1
  O  O177  1  0.36684230  0.72874224  0.08094593  1
  O  O178  1  0.36909840  0.72282454  0.40568755  1
  O  O179  1  0.37835743  0.72010568  0.73288694  1
  O  O180  1  0.86816212  0.21748043  0.07322815  1
  O  O181  1  0.85577212  0.21817104  0.41236392  1
  O  O182  1  0.87647051  0.20918481  0.74619702  1
  O  O183  1  0.86881217  0.72193179  0.07880044  1
  O  O184  1  0.87110778  0.71994261  0.40579758  1
  O  O185  1  0.86399703  0.72830726  0.74969065  1
  O  O186  1  0.27577018  0.12908605  0.08578379  1
  O  O187  1  0.28030178  0.12602139  0.42691793  1
  O  O188  1  0.28158755  0.12187590  0.75424477  1
  O  O189  1  0.27943004  0.63512672  0.08998318  1
  O  O190  1  0.27674079  0.63702975  0.41855174  1
  O  O191  1  0.28494575  0.64371984  0.75579456  1
  O  O192  1  0.77902642  0.13064850  0.08919056  1
  O  O193  1  0.76505486  0.12643889  0.41922439  1
  O  O194  1  0.79859470  0.12036562  0.77473679  1
  O  O195  1  0.78076333  0.63095599  0.08966006  1
  O  O196  1  0.77913416  0.63591902  0.42067371  1
  O  O197  1  0.77856838  0.63398723  0.75856850  1
  O  O198  1  0.13328598  0.28100332  0.25147482  1
  O  O199  1  0.15826423  0.27966769  0.59135985  1
  O  O200  1  0.12876842  0.27930519  0.94047715  1
  O  O201  1  0.13493118  0.77671697  0.25272944  1
  O  O202  1  0.13212268  0.77523377  0.58818841  1
  O  O203  1  0.12946202  0.78192356  0.92350208  1
  O  O204  1  0.63462734  0.28974134  0.26331949  1
  O  O205  1  0.62149720  0.28496866  0.59515781  1
  O  O206  1  0.63489552  0.27828843  0.92339587  1
  O  O207  1  0.62895659  0.77915809  0.25799974  1
  O  O208  1  0.63053477  0.77331423  0.58134751  1
  O  O209  1  0.62678461  0.78029175  0.92678921  1
  O  O210  1  0.22260962  0.37111753  0.23973393  1
  O  O211  1  0.24113979  0.37686035  0.58252156  1
  O  O212  1  0.23140715  0.36814782  0.93984884  1
  O  O213  1  0.21973654  0.86816784  0.23781736  1
  O  O214  1  0.21821272  0.86429438  0.57139028  1
  O  O215  1  0.21605978  0.86922253  0.90468196  1
  O  O216  1  0.71253966  0.37911297  0.23480899  1
  O  O217  1  0.70772312  0.36610319  0.56626937  1
  O  O218  1  0.72459110  0.36583555  0.90922917  1
  O  O219  1  0.71940149  0.86566609  0.24373737  1
  O  O220  1  0.71718378  0.86672127  0.57175742  1
  O  O221  1  0.71810002  0.86692993  0.91458962  1
  O  O222  1  0.41254104  0.12355327  0.14602690  1
  O  O223  1  0.41872658  0.12838033  0.48496756  1
  O  O224  1  0.41942101  0.12681472  0.81837859  1
  O  O225  1  0.41710119  0.63809827  0.15208155  1
  O  O226  1  0.41295324  0.64086004  0.48742331  1
  O  O227  1  0.42124350  0.64035226  0.81790892  1
  O  O228  1  0.91730088  0.12816251  0.14814146  1
  O  O229  1  0.90092456  0.13271421  0.49146766  1
  O  O230  1  0.93776726  0.12665735  0.82334954  1
  O  O231  1  0.91900546  0.63259294  0.15167283  1
  O  O232  1  0.91686031  0.63322308  0.48215088  1
  O  O233  1  0.91594415  0.64136655  0.82296379  1
  O  O234  1  0.36413344  0.08096496  0.01017190  1
  O  O235  1  0.36664145  0.07654234  0.34961039  1
  O  O236  1  0.37338226  0.07255927  0.68338949  1
  O  O237  1  0.36930303  0.59150972  0.01618405  1
  O  O238  1  0.36948075  0.58443938  0.35100233  1
  O  O239  1  0.37053900  0.58201007  0.68190799  1
  O  O240  1  0.86528369  0.07942972  0.01291846  1
  O  O241  1  0.86470933  0.08106509  0.35608756  1
  O  O242  1  0.87480950  0.07067821  0.68782682  1
  O  O243  1  0.87035826  0.58436162  0.01576764  1
  O  O244  1  0.86534451  0.58179568  0.34520693  1
  O  O245  1  0.86946276  0.59115235  0.68580982  1
  O  O246  1  0.08459323  0.37008423  0.17846248  1
  O  O247  1  0.10535356  0.36384356  0.51567421  1
  O  O248  1  0.09856214  0.35700194  0.85392979  1
  O  O249  1  0.08131570  0.86808811  0.18332548  1
  O  O250  1  0.07966005  0.86534339  0.51735310  1
  O  O251  1  0.07729772  0.87267870  0.85205950  1
  O  O252  1  0.57473633  0.36582384  0.17885836  1
  O  O253  1  0.56930490  0.36812109  0.51437546  1
  O  O254  1  0.58660913  0.36673365  0.84820735  1
  O  O255  1  0.58185190  0.86454092  0.18027680  1
  O  O256  1  0.57963665  0.86625293  0.51212459  1
  O  O257  1  0.58113123  0.86696994  0.84905424  1
  O  O258  1  0.13688280  0.41870416  0.31574106  1
  O  O259  1  0.14558981  0.41605199  0.65250637  1
  O  O260  1  0.12426777  0.41812731  0.98736674  1
  O  O261  1  0.13778116  0.91283772  0.31979615  1
  O  O262  1  0.13691697  0.91270487  0.65355616  1
  O  O263  1  0.13565419  0.91916352  0.98757385  1
  O  O264  1  0.62372780  0.42720519  0.31176547  1
  O  O265  1  0.62729908  0.42340210  0.64760677  1
  O  O266  1  0.63744564  0.41667760  0.98409817  1
  O  O267  1  0.62932116  0.91689724  0.31660086  1
  O  O268  1  0.62883167  0.90997573  0.64755650  1
  O  O269  1  0.62629524  0.91855423  0.98488407  1
  O  O270  1  0.02483192  0.19668107  0.10042505  1
  O  O271  1  0.04334774  0.19061433  0.43191200  1
  O  O272  1  0.05290964  0.19360686  0.78480758  1
  O  O273  1  0.02878313  0.70447194  0.10560092  1
  O  O274  1  0.03145904  0.70192473  0.43615017  1
  O  O275  1  0.02640947  0.70959700  0.77082077  1
  O  O276  1  0.53061178  0.19583250  0.10072084  1
  O  O277  1  0.52717662  0.19725501  0.44203304  1
  O  O278  1  0.52784895  0.20505746  0.77414900  1
  O  O279  1  0.53047579  0.70024614  0.10014035  1
  O  O280  1  0.52741138  0.70066464  0.43270325  1
  O  O281  1  0.53920321  0.70116504  0.77082646  1
  O  O282  1  0.31182476  0.47892757  0.07800624  1
  O  O283  1  0.30325137  0.47568251  0.40358467  1
  O  O284  1  0.32232171  0.47357433  0.73294689  1
  O  O285  1  0.30072534  0.96843707  0.06027453  1
  O  O286  1  0.29870076  0.96615923  0.39349012  1
  O  O287  1  0.29993874  0.96113351  0.72543921  1
  O  O288  1  0.80184627  0.47333995  0.05880825  1
  O  O289  1  0.78350586  0.47398670  0.38093679  1
  O  O290  1  0.79606937  0.47374040  0.73349328  1
  O  O291  1  0.79590389  0.96933353  0.06463689  1
  O  O292  1  0.79361823  0.96337640  0.39686742  1
  O  O293  1  0.79866508  0.95174876  0.72673935  1
  O  O294  1  0.45971020  0.30878596  0.22933913  1
  O  O295  1  0.46069111  0.29523988  0.55888355  1
  O  O296  1  0.47790999  0.29051217  0.89463264  1
  O  O297  1  0.46948021  0.80461466  0.22869453  1
  O  O298  1  0.47157777  0.80157543  0.56136843  1
  O  O299  1  0.46545335  0.80498493  0.89440090  1
  O  O300  1  0.96931519  0.29485243  0.22125943  1
  O  O301  1  0.97919965  0.30479878  0.56519540  1
  O  O302  1  0.97258578  0.29499704  0.90001528  1
  O  O303  1  0.97137258  0.79981463  0.23272506  1
  O  O304  1  0.96748018  0.79628026  0.56366380  1
  O  O305  1  0.96863302  0.80423089  0.90208875  1
  O  O306  1  0.19831264  0.02846642  0.26628863  1
  O  O307  1  0.20516295  0.02099778  0.60345438  1
  O  O308  1  0.19827394  0.02922008  0.93552360  1
  O  O309  1  0.20356861  0.53288610  0.27080897  1
  O  O310  1  0.21256162  0.53219637  0.60181052  1
  O  O311  1  0.18608390  0.54257203  0.94331848  1
  O  O312  1  0.70197530  0.02132240  0.27062341  1
  O  O313  1  0.69665429  0.02953559  0.60240495  1
  O  O314  1  0.69494218  0.02757536  0.94237927  1
  O  O315  1  0.69521128  0.54077049  0.26770350  1
  O  O316  1  0.69064209  0.53610334  0.59970158  1
  O  O317  1  0.70371393  0.52965587  0.93554572  1
  O  O318  1  0.07504576  0.08319576  0.03249954  1
  O  O319  1  0.08976566  0.08183721  0.35666500  1
  O  O320  1  0.08737427  0.08338551  0.69764155  1
  O  O321  1  0.08540340  0.59210165  0.04538475  1
  O  O322  1  0.09514438  0.59750700  0.37385253  1
  O  O323  1  0.09359515  0.60431241  0.71505198  1
  O  O324  1  0.58223768  0.08389447  0.03586893  1
  O  O325  1  0.57697998  0.08238088  0.37488741  1
  O  O326  1  0.57152261  0.08629403  0.71262217  1
  O  O327  1  0.58696330  0.58949472  0.03387814  1
  O  O328  1  0.58278426  0.59061486  0.36533625  1
  O  O329  1  0.59306765  0.59124462  0.70097320  1
  O  O330  1  0.41682891  0.41260558  0.13271518  1
  O  O331  1  0.40953806  0.41167750  0.46585835  1
  O  O332  1  0.41990904  0.40559457  0.79672122  1
  O  O333  1  0.41201775  0.91612002  0.12885734  1
  O  O334  1  0.41492864  0.91927370  0.46044471  1
  O  O335  1  0.41592852  0.91642055  0.79535304  1
  O  O336  1  0.91323340  0.41996468  0.12390969  1
  O  O337  1  0.88878716  0.40583573  0.42715274  1
  O  O338  1  0.90232758  0.40979950  0.79072416  1
  O  O339  1  0.90867384  0.91584080  0.12738871  1
  O  O340  1  0.90742721  0.91342792  0.46493204  1
  O  O341  1  0.90930511  0.90917739  0.80578910  1
  O  O342  1  0.41357384  0.41357732  0.30993946  1
  O  O343  1  0.40867624  0.40746158  0.62523476  1
  O  O344  1  0.45196774  0.41598585  0.96487602  1
  O  O345  1  0.41625302  0.91695984  0.29482952  1
  O  O346  1  0.41758953  0.91364372  0.62714816  1
  O  O347  1  0.41628731  0.91806003  0.96410273  1
  O  O348  1  0.90692591  0.40277530  0.27802550  1
  O  O349  1  0.94003573  0.43089286  0.61850106  1
  O  O350  1  0.91950157  0.40871167  0.96203706  1
  O  O351  1  0.90574867  0.90470988  0.29190494  1
  O  O352  1  0.90133733  0.90295187  0.61895603  1
  O  O353  1  0.91008700  0.91352851  0.96715919  1
  O  O354  1  0.08974625  0.08708869  0.19885852  1
  O  O355  1  0.09081394  0.07422907  0.54450951  1
  O  O356  1  0.09332797  0.09541199  0.87874314  1
  O  O357  1  0.09415808  0.58738903  0.20149650  1
  O  O358  1  0.10158357  0.59315494  0.54687821  1
  O  O359  1  0.08275126  0.59015194  0.86237045  1
  O  O360  1  0.58619393  0.07034058  0.20907313  1
  O  O361  1  0.58671645  0.08514907  0.53950800  1
  O  O362  1  0.58022371  0.07836146  0.87515195  1
  O  O363  1  0.58204159  0.58574568  0.19333823  1
  O  O364  1  0.57976171  0.58530575  0.53032479  1
  O  O365  1  0.59124709  0.58492208  0.87531433  1
  O  O366  1  0.13942412  0.21579541  0.06477035  1
  O  O367  1  0.14505153  0.21574128  0.38040323  1
  O  O368  1  0.13617442  0.21789062  0.71719570  1
  O  O369  1  0.13824063  0.72528378  0.06285709  1
  O  O370  1  0.13873108  0.73330329  0.39467835  1
  O  O371  1  0.13443578  0.73840113  0.72962214  1
  O  O372  1  0.63406932  0.21552899  0.04825827  1
  O  O373  1  0.62681750  0.21501565  0.38648252  1
  O  O374  1  0.63655708  0.21346010  0.72662021  1
  O  O375  1  0.63941999  0.72397864  0.05788421  1
  O  O376  1  0.63730788  0.72464672  0.39149265  1
  O  O377  1  0.64169955  0.72633229  0.72195416  1
  O  O378  1  0.28140253  0.36742250  0.11575809  1
  O  O379  1  0.27332205  0.36299924  0.43834531  1
  O  O380  1  0.28201637  0.36765300  0.77244301  1
  O  O381  1  0.27735985  0.86328309  0.10773623  1
  O  O382  1  0.28407643  0.86076552  0.44367615  1
  O  O383  1  0.28468605  0.85588818  0.77581963  1
  O  O384  1  0.78041832  0.36313682  0.10061001  1
  O  O385  1  0.75921118  0.36604122  0.42486378  1
  O  O386  1  0.76828362  0.36833928  0.77849207  1
  O  O387  1  0.77673441  0.86115686  0.10970557  1
  O  O388  1  0.77485011  0.85516400  0.44108498  1
  O  O389  1  0.77467157  0.85608594  0.78271527  1
  O  O390  1  0.35438334  0.27847165  0.27373306  1
  O  O391  1  0.35827354  0.27309081  0.60906033  1
  O  O392  1  0.37080862  0.29572262  0.94601955  1
  O  O393  1  0.36265685  0.78361809  0.27547562  1
  O  O394  1  0.36397055  0.78045445  0.60658555  1
  O  O395  1  0.35869688  0.78509158  0.94216123  1
  O  O396  1  0.86849470  0.27107714  0.27349100  1
  O  O397  1  0.87405434  0.31141553  0.61811797  1
  O  O398  1  0.86074778  0.27658387  0.94080089  1
  O  O399  1  0.86159411  0.76922297  0.27171630  1
  O  O400  1  0.86012825  0.76886711  0.60735762  1
  O  O401  1  0.86142445  0.77869832  0.94649350  1
  O  O402  1  0.22513015  0.13774201  0.22550222  1
  O  O403  1  0.22323610  0.13235133  0.56341336  1
  O  O404  1  0.22693629  0.13743305  0.89253366  1
  O  O405  1  0.22916670  0.64112983  0.22880411  1
  O  O406  1  0.23284920  0.64031348  0.55780329  1
  O  O407  1  0.21971649  0.63921679  0.89241752  1
  O  O408  1  0.71660912  0.13248060  0.22766627  1
  O  O409  1  0.72011330  0.13659950  0.55559598  1
  O  O410  1  0.71211099  0.13128313  0.89195928  1
  O  O411  1  0.71538704  0.64310552  0.21682121  1
  O  O412  1  0.71390201  0.63993671  0.55140019  1
  O  O413  1  0.72296641  0.64081662  0.89413797  1
  O  O414  1  0.50379979  0.32517397  0.03039351  1
  O  O415  1  0.48672932  0.32107826  0.36053713  1
  O  O416  1  0.48968755  0.32903896  0.69272582  1
  O  O417  1  0.49087872  0.83435056  0.02802697  1
  O  O418  1  0.49330259  0.83789919  0.36255659  1
  O  O419  1  0.49450450  0.83526926  0.69521364  1
  O  O420  1  0.99051381  0.33071761  0.03340897  1
  O  O421  1  0.99777961  0.33924654  0.35577278  1
  O  O422  1  1.00793737  0.36145241  0.70159407  1
  O  O423  1  0.99096960  0.83721581  0.03521195  1
  O  O424  1  0.98752359  0.83185163  0.36481321  1
  O  O425  1  0.98581634  0.83631959  0.69701798  1
  O  O426  1  0.16982732  0.00876165  0.13418360  1
  O  O427  1  0.16880814  0.00545014  0.47019381  1
  O  O428  1  0.16349409  0.00972306  0.80360891  1
  O  O429  1  0.17688604  0.51061060  0.13821615  1
  O  O430  1  0.16986923  0.51269002  0.46788067  1
  O  O431  1  0.16688461  0.50507911  0.80986245  1
  O  O432  1  0.66613920  0.00366399  0.13690463  1
  O  O433  1  0.66051794  0.00552281  0.46834641  1
  O  O434  1  0.65640234  -0.00182017  0.80722792  1
  O  O435  1  0.66765180  0.50962197  0.13337145  1
  O  O436  1  0.66102430  0.50913590  0.46518249  1
  O  O437  1  0.66874045  0.51185671  0.80218082  1
  O  O438  1  0.01153773  0.16663108  0.29784155  1
  O  O439  1  -0.00194540  0.16534812  0.65037389  1
  O  O440  1  0.01107317  0.17103960  0.96868259  1
  O  O441  1  0.01226989  0.67100845  0.30317976  1
  O  O442  1  0.00936199  0.67304752  0.63770586  1
  O  O443  1  0.00970226  0.67008613  0.97257699  1
  O  O444  1  0.49353282  0.15410777  0.30617414  1
  O  O445  1  0.50557254  0.16582386  0.63906456  1
  O  O446  1  0.50179600  0.15831143  0.96578258  1
  O  O447  1  0.50735073  0.67276058  0.30082334  1
  O  O448  1  0.51049914  0.67011405  0.63687797  1
  O  O449  1  0.50926692  0.66955555  0.96769836  1
  O  O450  1  0.34715477  0.49218285  0.20951577  1
  O  O451  1  0.33224300  0.48963355  0.53493144  1
  O  O452  1  0.34966252  0.49353812  0.86456330  1
  O  O453  1  0.33329420  0.99388116  0.19493110  1
  O  O454  1  0.33354920  0.99275976  0.52829556  1
  O  O455  1  0.33237675  0.98950588  0.85976384  1
  O  O456  1  0.83012090  0.49274316  0.19134594  1
  O  O457  1  0.82850757  0.49109678  0.51379568  1
  O  O458  1  0.83469488  0.49411815  0.86728326  1
  O  O459  1  0.83069197  0.99164823  0.19858617  1
  O  O460  1  0.82529326  0.98684845  0.53046651  1
  O  O461  1  0.82630632  0.99009847  0.86235497  1
