# generated using pymatgen
data_Na31Fe20(SO4)36
_symmetry_space_group_name_H-M   'P 1'
_cell_length_a   18.07687800
_cell_length_b   18.07162882
_cell_length_c   19.70077518
_cell_angle_alpha   107.58127458
_cell_angle_beta   107.59086523
_cell_angle_gamma   90.73830225
_symmetry_Int_Tables_number   1
_chemical_formula_structural   Na31Fe20(SO4)36
_chemical_formula_sum   'Na62 Fe40 S72 O288'
_cell_volume   5809.75645930
_cell_formula_units_Z   2
loop_
 _symmetry_equiv_pos_site_id
 _symmetry_equiv_pos_as_xyz
  1  'x, y, z'
loop_
 _atom_site_type_symbol
 _atom_site_label
 _atom_site_symmetry_multiplicity
 _atom_site_fract_x
 _atom_site_fract_y
 _atom_site_fract_z
 _atom_site_occupancy
  Na  Na0  1  0.13763400  0.36879808  0.08627994  1
  Na  Na1  1  0.13100003  0.35695214  0.40818545  1
  Na  Na2  1  0.13448944  0.36512225  0.74732215  1
  Na  Na3  1  0.12312069  0.86586895  0.07234849  1
  Na  Na4  1  0.13640157  0.86154588  0.41523864  1
  Na  Na5  1  0.13228921  0.86542920  0.74966160  1
  Na  Na6  1  0.65016935  0.36736543  0.08853402  1
  Na  Na7  1  0.64486752  0.35610102  0.43120411  1
  Na  Na8  1  0.63248491  0.37465356  0.75331768  1
  Na  Na9  1  0.63339715  0.87960745  0.08808535  1
  Na  Na10  1  0.63298178  0.85721684  0.41631762  1
  Na  Na11  1  0.63580012  0.86790695  0.75127972  1
  Na  Na12  1  0.37756064  0.16192553  0.27734575  1
  Na  Na13  1  0.36273688  0.13069215  0.57775336  1
  Na  Na14  1  0.36960285  0.13593470  0.92359679  1
  Na  Na15  1  0.37245907  0.63759588  0.25957771  1
  Na  Na16  1  0.37184572  0.63236208  0.58479892  1
  Na  Na17  1  0.36185502  0.63333592  0.91266615  1
  Na  Na18  1  0.87286455  0.11714905  0.24150661  1
  Na  Na19  1  0.85782320  0.14089547  0.57743399  1
  Na  Na20  1  0.86371299  0.13718674  0.91720620  1
  Na  Na21  1  0.85481511  0.62704355  0.23449820  1
  Na  Na22  1  0.85239399  0.63356564  0.57413581  1
  Na  Na23  1  0.86283816  0.63825168  0.91705852  1
  Na  Na24  1  0.99190910  0.50526948  0.42007177  1
  Na  Na25  1  0.99339570  0.01112034  0.40611656  1
  Na  Na26  1  0.51428865  0.08421521  0.13843908  1
  Na  Na27  1  0.49399198  0.00556599  0.40097270  1
  Na  Na28  1  0.96712969  0.52252000  0.75148164  1
  Na  Na29  1  0.94443610  0.50263802  0.06462604  1
  Na  Na30  1  0.52451848  0.48992103  0.07343858  1
  Na  Na31  1  0.49092208  0.00861118  0.74907186  1
  Na  Na32  1  0.51236584  0.45840077  0.46908556  1
  Na  Na33  1  -0.00237139  0.98158133  0.93038971  1
  Na  Na34  1  0.50748658  0.95172635  0.56581778  1
  Na  Na35  1  0.56202823  0.50124721  0.91846056  1
  Na  Na36  1  0.53384425  0.98731452  0.93379583  1
  Na  Na37  1  0.51159549  0.47996327  0.25836305  1
  Na  Na38  1  0.00208814  0.98996444  0.59492327  1
  Na  Na39  1  0.01475228  0.48976685  0.24960403  1
  Na  Na40  1  -0.01546915  0.51566655  0.91636762  1
  Na  Na41  1  -0.02141548  0.50964288  0.59171986  1
  Na  Na42  1  0.26214231  0.75855656  0.33245412  1
  Na  Na43  1  0.74072442  0.73834667  0.00283754  1
  Na  Na44  1  0.24675255  0.24729209  0.00531943  1
  Na  Na45  1  0.25627470  0.25463302  0.65913405  1
  Na  Na46  1  0.74463134  0.24461685  0.00356963  1
  Na  Na47  1  0.23435207  0.74173048  -0.00511334  1
  Na  Na48  1  0.74361257  0.73997827  0.34416794  1
  Na  Na49  1  0.75458010  0.75443533  0.65837002  1
  Na  Na50  1  0.76048750  0.27487039  0.64757728  1
  Na  Na51  1  0.73160693  0.23300557  0.34460427  1
  Na  Na52  1  0.27143968  0.25949654  0.47843670  1
  Na  Na53  1  0.25205566  0.76038820  0.82209004  1
  Na  Na54  1  0.25038983  0.24884900  0.83210738  1
  Na  Na55  1  0.74287236  0.74184290  0.16649177  1
  Na  Na56  1  0.24768346  0.74220906  0.51136057  1
  Na  Na57  1  0.25120020  0.24615876  0.18624483  1
  Na  Na58  1  0.75207663  0.74867804  0.82959967  1
  Na  Na59  1  0.73536838  0.22717903  0.17542884  1
  Na  Na60  1  0.75901892  0.27064378  0.82861803  1
  Na  Na61  1  0.25146972  0.75393981  0.16310520  1
  Fe  Fe62  1  0.96416179  0.30717271  0.45201782  1
  Fe  Fe63  1  0.46432667  0.81072150  0.12017776  1
  Fe  Fe64  1  0.96782483  0.30448046  0.11418031  1
  Fe  Fe65  1  0.96478282  0.80657901  0.45507860  1
  Fe  Fe66  1  0.46367341  0.80523681  0.78272574  1
  Fe  Fe67  1  0.46960290  0.30613904  0.12341173  1
  Fe  Fe68  1  0.96392467  0.31288043  0.78426690  1
  Fe  Fe69  1  0.46495363  0.30746005  0.78757907  1
  Fe  Fe70  1  0.96640838  0.80787427  0.11972042  1
  Fe  Fe71  1  0.96574183  0.80275452  0.78991949  1
  Fe  Fe72  1  0.69681724  0.53228036  0.38151728  1
  Fe  Fe73  1  0.18890810  0.03503455  0.37845845  1
  Fe  Fe74  1  0.19375251  0.53523034  0.38553253  1
  Fe  Fe75  1  0.19477905  0.03227974  0.71512643  1
  Fe  Fe76  1  0.68835198  0.03734269  0.38051436  1
  Fe  Fe77  1  0.69538549  0.52908086  0.70192921  1
  Fe  Fe78  1  0.19507406  0.03695518  0.05060243  1
  Fe  Fe79  1  0.18980812  0.53624094  0.71515372  1
  Fe  Fe80  1  0.18954737  0.53424517  0.04565792  1
  Fe  Fe81  1  0.69165192  0.03700190  0.71310595  1
  Fe  Fe82  1  0.52975034  0.19961452  0.54439823  1
  Fe  Fe83  1  0.53301275  0.69660240  0.53822504  1
  Fe  Fe84  1  0.03411900  0.18779061  0.87580326  1
  Fe  Fe85  1  0.03660939  0.69318785  0.55300429  1
  Fe  Fe86  1  0.03726541  0.19072799  0.21339826  1
  Fe  Fe87  1  0.53213808  0.69077038  0.21193075  1
  Fe  Fe88  1  0.53371225  0.19111909  0.87961351  1
  Fe  Fe89  1  0.03661257  0.19345923  0.54904117  1
  Fe  Fe90  1  0.53241544  0.68906244  0.87257362  1
  Fe  Fe91  1  0.03475420  0.69126643  0.21316975  1
  Fe  Fe92  1  0.80751523  0.96063631  0.28651572  1
  Fe  Fe93  1  0.80977693  0.46490607  0.28172489  1
  Fe  Fe94  1  0.30478732  0.96323429  0.28397374  1
  Fe  Fe95  1  0.31085770  0.96843645  0.95556668  1
  Fe  Fe96  1  0.80010539  0.96864919  0.96120737  1
  Fe  Fe97  1  0.31027583  0.46565147  0.62036444  1
  Fe  Fe98  1  0.30690737  0.96282019  0.61580947  1
  Fe  Fe99  1  0.81308890  0.96537934  0.62477234  1
  Fe  Fe100  1  0.30694073  0.46651219  0.95349045  1
  Fe  Fe101  1  0.31211849  0.46589569  0.29226323  1
  S  S102  1  0.35562867  0.14553817  0.08792498  1
  S  S103  1  0.36097801  0.13393557  0.41808406  1
  S  S104  1  0.35881071  0.13854840  0.74901680  1
  S  S105  1  0.35584997  0.64188314  0.08178109  1
  S  S106  1  0.35628856  0.64312009  0.41833719  1
  S  S107  1  0.35580341  0.64206087  0.74973838  1
  S  S108  1  0.86165019  0.14325740  0.08107060  1
  S  S109  1  0.86386592  0.13765440  0.41717112  1
  S  S110  1  0.85727388  0.14306530  0.74877762  1
  S  S111  1  0.86078387  0.64404676  0.08264840  1
  S  S112  1  0.86425775  0.63741283  0.41643985  1
  S  S113  1  0.85526616  0.64138992  0.74515483  1
  S  S114  1  0.13959511  0.36141389  0.24889826  1
  S  S115  1  0.14169855  0.35926036  0.58274898  1
  S  S116  1  0.14292805  0.35678495  0.91579386  1
  S  S117  1  0.13881223  0.85838150  0.25048467  1
  S  S118  1  0.14006790  0.85879222  0.58346336  1
  S  S119  1  0.13980850  0.86562046  0.91586534  1
  S  S120  1  0.64655510  0.35952480  0.24618740  1
  S  S121  1  0.63548299  0.35825610  0.58374274  1
  S  S122  1  0.63809644  0.35577956  0.91823902  1
  S  S123  1  0.64059653  0.85696723  0.25239707  1
  S  S124  1  0.64610143  0.86163341  0.58437315  1
  S  S125  1  0.63789442  0.85602304  0.91541794  1
  S  S126  1  0.07038842  0.17145445  0.04119417  1
  S  S127  1  0.06830490  0.16910798  0.37789193  1
  S  S128  1  0.06830463  0.16765097  0.70846081  1
  S  S129  1  0.06554086  0.66881273  0.04205469  1
  S  S130  1  0.06697041  0.66849612  0.37708480  1
  S  S131  1  0.06270104  0.66957670  0.71057743  1
  S  S132  1  0.56261208  0.17078098  0.04227608  1
  S  S133  1  0.56715110  0.16663150  0.38103158  1
  S  S134  1  0.56564127  0.16821773  0.70734306  1
  S  S135  1  0.55920272  0.66924384  0.04014457  1
  S  S136  1  0.57088669  0.66551316  0.37232193  1
  S  S137  1  0.57235923  0.67457693  0.70502394  1
  S  S138  1  0.33198899  0.43577104  0.12486027  1
  S  S139  1  0.32077249  0.43176506  0.45637627  1
  S  S140  1  0.32967943  0.43223519  0.79115121  1
  S  S141  1  0.32354389  0.92920207  0.12057948  1
  S  S142  1  0.32718276  0.93519696  0.45480603  1
  S  S143  1  0.33327864  0.93587026  0.79353100  1
  S  S144  1  0.83916377  0.42980837  0.12377434  1
  S  S145  1  0.83522312  0.43402658  0.45369508  1
  S  S146  1  0.82961587  0.43965242  0.78817919  1
  S  S147  1  0.82546110  0.92403681  0.12320587  1
  S  S148  1  0.83352921  0.93272698  0.45992390  1
  S  S149  1  0.82926529  0.93430075  0.79362080  1
  S  S150  1  0.44142374  0.34639870  0.29708307  1
  S  S151  1  0.42600627  0.32253547  0.62317539  1
  S  S152  1  0.43020560  0.32918943  0.95823842  1
  S  S153  1  0.43325990  0.82857079  0.28855761  1
  S  S154  1  0.43591396  0.83238643  0.62410940  1
  S  S155  1  0.43117045  0.83030690  0.95475793  1
  S  S156  1  0.93472215  0.32971124  0.28892883  1
  S  S157  1  0.94154207  0.33290756  0.62506720  1
  S  S158  1  0.94214372  0.33079959  0.95164741  1
  S  S159  1  0.93299004  0.82579894  0.29283537  1
  S  S160  1  0.93255557  0.82720453  0.62527873  1
  S  S161  1  0.92848578  0.83584191  0.95884323  1
  S  S162  1  0.17568192  0.07041996  0.21149218  1
  S  S163  1  0.16554024  0.06297043  0.54203377  1
  S  S164  1  0.17433690  0.07011676  0.87678487  1
  S  S165  1  0.16867865  0.56775306  0.21001711  1
  S  S166  1  0.16533331  0.56451583  0.54209190  1
  S  S167  1  0.16216683  0.55775827  0.87316610  1
  S  S168  1  0.68096980  0.06905653  0.22245139  1
  S  S169  1  0.66894352  0.07301741  0.54575756  1
  S  S170  1  0.66764822  0.06527584  0.87403201  1
  S  S171  1  0.66947309  0.56591886  0.20849072  1
  S  S172  1  0.66565239  0.56637934  0.53935604  1
  S  S173  1  0.67068657  0.57408850  0.86603914  1
  O  O174  1  0.36633813  0.22262540  0.07621533  1
  O  O175  1  0.36487313  0.20882555  0.40571426  1
  O  O176  1  0.36737059  0.21860123  0.74366028  1
  O  O177  1  0.36231630  0.72100380  0.07333781  1
  O  O178  1  0.36331907  0.71931577  0.40872993  1
  O  O179  1  0.36586037  0.72218786  0.74498268  1
  O  O180  1  0.87607113  0.21832459  0.06476102  1
  O  O181  1  0.87177249  0.21570017  0.40698268  1
  O  O182  1  0.86817592  0.22217737  0.74106604  1
  O  O183  1  0.87240984  0.72544809  0.07819359  1
  O  O184  1  0.87248711  0.71779804  0.41118119  1
  O  O185  1  0.86289437  0.72572962  0.74773859  1
  O  O186  1  0.27183097  0.13735692  0.08617652  1
  O  O187  1  0.28509083  0.12107224  0.43221510  1
  O  O188  1  0.27975713  0.12916263  0.75685738  1
  O  O189  1  0.27619524  0.63130075  0.08887518  1
  O  O190  1  0.27825413  0.63054050  0.42985501  1
  O  O191  1  0.27764061  0.63231212  0.76030008  1
  O  O192  1  0.78496331  0.14124505  0.09074654  1
  O  O193  1  0.78593496  0.12697754  0.42518723  1
  O  O194  1  0.77908332  0.13560816  0.75904577  1
  O  O195  1  0.78503807  0.63606299  0.09371316  1
  O  O196  1  0.78688995  0.62665097  0.42568454  1
  O  O197  1  0.76936042  0.62823850  0.73932840  1
  O  O198  1  0.13114461  0.28295215  0.25693679  1
  O  O199  1  0.13272875  0.28114335  0.59376020  1
  O  O200  1  0.13485028  0.27673064  0.92187731  1
  O  O201  1  0.13018852  0.78096405  0.26294502  1
  O  O202  1  0.13112670  0.77959428  0.58941011  1
  O  O203  1  0.13359404  0.79178184  0.93006566  1
  O  O204  1  0.64238023  0.28065446  0.25106927  1
  O  O205  1  0.61834172  0.28236701  0.60030395  1
  O  O206  1  0.62542361  0.27469817  0.92429485  1
  O  O207  1  0.62838206  0.77702792  0.25864072  1
  O  O208  1  0.63423247  0.78192389  0.58973967  1
  O  O209  1  0.62903023  0.77464738  0.91886876  1
  O  O210  1  0.21852999  0.37291699  0.24173933  1
  O  O211  1  0.22188016  0.36777426  0.57774876  1
  O  O212  1  0.22251668  0.36675616  0.90851904  1
  O  O213  1  0.21944805  0.86530708  0.24475697  1
  O  O214  1  0.21841532  0.86872057  0.57431668  1
  O  O215  1  0.21832711  0.87787086  0.90607386  1
  O  O216  1  0.72239152  0.37386079  0.23213736  1
  O  O217  1  0.71252741  0.35651824  0.57485994  1
  O  O218  1  0.71493538  0.36384850  0.91054992  1
  O  O219  1  0.72034981  0.86221989  0.24476822  1
  O  O220  1  0.72896012  0.87295101  0.58631971  1
  O  O221  1  0.71602913  0.86655360  0.90589381  1
  O  O222  1  0.40726468  0.14129449  0.15916727  1
  O  O223  1  0.42374489  0.12878811  0.48752411  1
  O  O224  1  0.41795449  0.12802937  0.81586374  1
  O  O225  1  0.41427790  0.63432403  0.15008421  1
  O  O226  1  0.41707359  0.63565084  0.48574843  1
  O  O227  1  0.41565982  0.63223877  0.81624393  1
  O  O228  1  0.92277889  0.13921191  0.15021603  1
  O  O229  1  0.92353427  0.13194885  0.48691865  1
  O  O230  1  0.91661442  0.13332853  0.81566565  1
  O  O231  1  0.92293387  0.63442578  0.15098645  1
  O  O232  1  0.92538317  0.62682583  0.48257292  1
  O  O233  1  0.90476487  0.62943143  0.81422102  1
  O  O234  1  0.36853823  0.08395994  0.02295632  1
  O  O235  1  0.37130111  0.07032692  0.35340440  1
  O  O236  1  0.36647212  0.08056669  0.68004719  1
  O  O237  1  0.36432461  0.58340873  0.01361726  1
  O  O238  1  0.36099376  0.58180639  0.34955272  1
  O  O239  1  0.35992721  0.58451139  0.67956632  1
  O  O240  1  0.86732177  0.07959133  0.01460119  1
  O  O241  1  0.87698388  0.07705328  0.35214437  1
  O  O242  1  0.86188859  0.08404553  0.67889213  1
  O  O243  1  0.87029158  0.58815698  0.01531938  1
  O  O244  1  0.87313748  0.58109814  0.34699458  1
  O  O245  1  0.87199530  0.59072110  0.67886546  1
  O  O246  1  0.08098368  0.36911164  0.17987994  1
  O  O247  1  0.08403734  0.36366552  0.51255117  1
  O  O248  1  0.08456299  0.36543818  0.84799509  1
  O  O249  1  0.08313567  0.86237097  0.17961760  1
  O  O250  1  0.08007549  0.86925853  0.51676209  1
  O  O251  1  0.07971153  0.86935058  0.84608691  1
  O  O252  1  0.58411457  0.37097520  0.18065834  1
  O  O253  1  0.57496993  0.36642547  0.51919584  1
  O  O254  1  0.57751852  0.36263124  0.84786560  1
  O  O255  1  0.58284902  0.86593325  0.18445668  1
  O  O256  1  0.59200473  0.87221990  0.51684369  1
  O  O257  1  0.57784478  0.86511997  0.84695225  1
  O  O258  1  0.12763660  0.42149662  0.31491359  1
  O  O259  1  0.13149897  0.41965409  0.64895359  1
  O  O260  1  0.13588404  0.41438819  0.98497756  1
  O  O261  1  0.12850555  0.91931310  0.31588719  1
  O  O262  1  0.13252261  0.91755989  0.65229894  1
  O  O263  1  0.12885380  0.93041994  0.98034735  1
  O  O264  1  0.64057908  0.41769769  0.31610521  1
  O  O265  1  0.63445020  0.42123298  0.65499636  1
  O  O266  1  0.62489846  0.41321024  0.98338226  1
  O  O267  1  0.63591245  0.91540841  0.32194136  1
  O  O268  1  0.63347877  0.91941017  0.65242263  1
  O  O269  1  0.62876784  0.91233796  0.98235344  1
  O  O270  1  0.03587888  0.20163818  0.10341624  1
  O  O271  1  0.03112669  0.20054693  0.43842160  1
  O  O272  1  0.03207391  0.19775710  0.76903134  1
  O  O273  1  0.03659873  0.70221986  0.10867061  1
  O  O274  1  0.03222468  0.69969523  0.43889149  1
  O  O275  1  0.02583462  0.69893257  0.76908075  1
  O  O276  1  0.52435743  0.20372575  0.10053486  1
  O  O277  1  0.53557155  0.19231121  0.44666593  1
  O  O278  1  0.52473714  0.19455661  0.76558169  1
  O  O279  1  0.52280381  0.70508866  0.10131737  1
  O  O280  1  0.53634614  0.69109445  0.43304476  1
  O  O281  1  0.52847202  0.69748899  0.76150841  1
  O  O282  1  0.29920935  0.47224081  0.06387854  1
  O  O283  1  0.28986102  0.47022028  0.39536722  1
  O  O284  1  0.30011985  0.46920058  0.73036753  1
  O  O285  1  0.29495400  0.96864133  0.06091852  1
  O  O286  1  0.28598999  0.96519021  0.39105862  1
  O  O287  1  0.30219492  0.96966511  0.72992496  1
  O  O288  1  0.81979143  0.46393525  0.06415735  1
  O  O289  1  0.80501256  0.46577125  0.38825611  1
  O  O290  1  0.79666547  0.47337877  0.72556717  1
  O  O291  1  0.80076932  0.96198299  0.06483541  1
  O  O292  1  0.80481518  0.96855824  0.39897944  1
  O  O293  1  0.80283916  0.97502851  0.73497651  1
  O  O294  1  0.46848893  0.32732986  0.23015963  1
  O  O295  1  0.46107119  0.28929624  0.56287819  1
  O  O296  1  0.46340314  0.29732895  0.89530201  1
  O  O297  1  0.46507687  0.79615541  0.22309419  1
  O  O298  1  0.47490507  0.80676440  0.56670860  1
  O  O299  1  0.46856945  0.79924345  0.89453252  1
  O  O300  1  0.97189766  0.29972061  0.22858436  1
  O  O301  1  0.97522980  0.29669652  0.56171671  1
  O  O302  1  0.97686311  0.29196149  0.88971075  1
  O  O303  1  0.97069712  0.79899714  0.23303544  1
  O  O304  1  0.97118782  0.79644835  0.56485459  1
  O  O305  1  0.96627695  0.81825892  0.89974595  1
  O  O306  1  0.20428425  0.03134143  0.27149714  1
  O  O307  1  0.19741894  0.02677688  0.60323968  1
  O  O308  1  0.20704108  0.03669265  0.93906289  1
  O  O309  1  0.19879033  0.53277652  0.27166497  1
  O  O310  1  0.19754576  0.53028161  0.60420935  1
  O  O311  1  0.20130081  0.52483934  0.93651931  1
  O  O312  1  0.71306648  0.02610199  0.28059213  1
  O  O313  1  0.69308722  0.03380863  0.60530313  1
  O  O314  1  0.69509127  0.02678544  0.93156684  1
  O  O315  1  0.70386167  0.53650980  0.27451997  1
  O  O316  1  0.68461264  0.52555996  0.59702478  1
  O  O317  1  0.68970232  0.53774945  0.92436952  1
  O  O318  1  0.08885596  0.09026495  0.03568003  1
  O  O319  1  0.08392404  0.08715771  0.37575256  1
  O  O320  1  0.08839478  0.08664715  0.70405133  1
  O  O321  1  0.08681155  0.58764422  0.04068609  1
  O  O322  1  0.08261100  0.58558273  0.37243273  1
  O  O323  1  0.08176900  0.58728755  0.70644420  1
  O  O324  1  0.57554010  0.09028904  0.04087760  1
  O  O325  1  0.58490416  0.08324199  0.37462203  1
  O  O326  1  0.57818569  0.08413255  0.69806721  1
  O  O327  1  0.56849334  0.58756293  0.03651506  1
  O  O328  1  0.59071870  0.58314564  0.36182966  1
  O  O329  1  0.59790238  0.59599708  0.69957956  1
  O  O330  1  0.41330014  0.41923554  0.12700944  1
  O  O331  1  0.39625286  0.40714336  0.45607460  1
  O  O332  1  0.41044984  0.41326588  0.79777958  1
  O  O333  1  0.40207000  0.90701204  0.12090761  1
  O  O334  1  0.40808927  0.92781619  0.45584580  1
  O  O335  1  0.41563850  0.91964122  0.79836477  1
  O  O336  1  0.92427776  0.41158585  0.13854012  1
  O  O337  1  0.91859138  0.41580901  0.45780585  1
  O  O338  1  0.90952956  0.41566490  0.78404178  1
  O  O339  1  0.90603651  0.90307910  0.13275013  1
  O  O340  1  0.91729803  0.91709698  0.46691517  1
  O  O341  1  0.91021326  0.91434859  0.79981902  1
  O  O342  1  0.42096324  0.43055315  0.31047923  1
  O  O343  1  0.40366942  0.40068245  0.62226485  1
  O  O344  1  0.41231098  0.41088915  0.96300322  1
  O  O345  1  0.40793286  0.90720584  0.28787664  1
  O  O346  1  0.41631811  0.91548018  0.62868044  1
  O  O347  1  0.41463090  0.91187462  0.95746795  1
  O  O348  1  0.92275317  0.41404242  0.29682858  1
  O  O349  1  0.93468465  0.41537287  0.63177870  1
  O  O350  1  0.93451237  0.41168405  0.95231170  1
  O  O351  1  0.91313835  0.90719783  0.30014728  1
  O  O352  1  0.91710935  0.90894596  0.62719970  1
  O  O353  1  0.90728000  0.91765860  0.97135204  1
  O  O354  1  0.09849821  0.09545653  0.21273243  1
  O  O355  1  0.08324334  0.07931036  0.53817480  1
  O  O356  1  0.09409910  0.08897880  0.87448011  1
  O  O357  1  0.08545815  0.58185790  0.20408433  1
  O  O358  1  0.08349017  0.58278392  0.53990015  1
  O  O359  1  0.07959400  0.56135708  0.86715429  1
  O  O360  1  0.61581865  0.10754775  0.24134643  1
  O  O361  1  0.58683212  0.09343585  0.53797755  1
  O  O362  1  0.58430355  0.08183040  0.86792021  1
  O  O363  1  0.58674697  0.58314657  0.20403744  1
  O  O364  1  0.58390236  0.58633609  0.52634679  1
  O  O365  1  0.58647639  0.59091088  0.85119962  1
  O  O366  1  0.14072968  0.22488014  0.05701830  1
  O  O367  1  0.14064779  0.21852227  0.39423351  1
  O  O368  1  0.13891926  0.22024289  0.72318686  1
  O  O369  1  0.13622919  0.72037447  0.05429568  1
  O  O370  1  0.13958174  0.71823526  0.39276641  1
  O  O371  1  0.13295601  0.72085782  0.72294860  1
  O  O372  1  0.63566250  0.22098171  0.05845964  1
  O  O373  1  0.63960529  0.21742591  0.39970492  1
  O  O374  1  0.63856279  0.21868179  0.72914396  1
  O  O375  1  0.63353064  0.71743166  0.05786562  1
  O  O376  1  0.64032690  0.71852167  0.38637359  1
  O  O377  1  0.64018343  0.73357848  0.72732667  1
  O  O378  1  0.28057186  0.36402611  0.10902606  1
  O  O379  1  0.26253924  0.36641341  0.44207940  1
  O  O380  1  0.27622974  0.36076344  0.77369021  1
  O  O381  1  0.26750201  0.85962909  0.10252211  1
  O  O382  1  0.28187179  0.86133407  0.44462180  1
  O  O383  1  0.28221363  0.86575268  0.77991868  1
  O  O384  1  0.78807335  0.35829288  0.10907079  1
  O  O385  1  0.78547395  0.36295581  0.43978085  1
  O  O386  1  0.77778419  0.36846573  0.77456006  1
  O  O387  1  0.76928839  0.85458423  0.10604848  1
  O  O388  1  0.78350863  0.86103746  0.44426753  1
  O  O389  1  0.77422642  0.86365257  0.77254035  1
  O  O390  1  0.37063687  0.29408796  0.28120181  1
  O  O391  1  0.35569403  0.26877567  0.60940516  1
  O  O392  1  0.35932059  0.27749407  0.94429291  1
  O  O393  1  0.36337768  0.77405992  0.27408728  1
  O  O394  1  0.36536843  0.78069149  0.60909954  1
  O  O395  1  0.35842855  0.77923286  0.93725377  1
  O  O396  1  0.86185116  0.28146195  0.27254164  1
  O  O397  1  0.86833783  0.28556247  0.61000461  1
  O  O398  1  0.86760263  0.28420310  0.93619753  1
  O  O399  1  0.86292427  0.77216274  0.27661412  1
  O  O400  1  0.86124911  0.77624290  0.60798874  1
  O  O401  1  0.85892848  0.77985064  0.93912645  1
  O  O402  1  0.23270591  0.13641599  0.22510983  1
  O  O403  1  0.21587079  0.13469503  0.55782005  1
  O  O404  1  0.22613898  0.14083447  0.88930882  1
  O  O405  1  0.21769075  0.64081704  0.22525999  1
  O  O406  1  0.21567747  0.63393564  0.55266996  1
  O  O407  1  0.20673428  0.63361053  0.88882420  1
  O  O408  1  0.74464670  0.12976080  0.23449551  1
  O  O409  1  0.72358571  0.14251001  0.56486083  1
  O  O410  1  0.71825225  0.13762383  0.89035760  1
  O  O411  1  0.71876951  0.63902994  0.22275313  1
  O  O412  1  0.72132997  0.63580169  0.56106083  1
  O  O413  1  0.72303542  0.64646914  0.88431206  1
  O  O414  1  0.49108223  0.33359358  0.03048531  1
  O  O415  1  0.50554923  0.34650198  0.36339117  1
  O  O416  1  0.48556086  0.32982511  0.69730367  1
  O  O417  1  0.48837153  0.83266209  0.02807652  1
  O  O418  1  0.49527232  0.83697775  0.35845657  1
  O  O419  1  0.49298607  0.83983197  0.70023612  1
  O  O420  1  0.99833813  0.33052756  0.02525170  1
  O  O421  1  0.99314865  0.32949816  0.36159478  1
  O  O422  1  1.00013352  0.32774707  0.69624356  1
  O  O423  1  0.98831546  0.83265141  0.02929749  1
  O  O424  1  0.99300966  0.82895324  0.36592838  1
  O  O425  1  0.99072614  0.82982976  0.69819071  1
  O  O426  1  0.16622219  0.00922380  0.13756693  1
  O  O427  1  0.16153012  0.00391769  0.46882485  1
  O  O428  1  0.17064516  0.00908806  0.80451275  1
  O  O429  1  0.16902197  0.50898798  0.13804992  1
  O  O430  1  0.15654730  0.50271533  0.46842083  1
  O  O431  1  0.16865915  0.50179880  0.80170653  1
  O  O432  1  0.65755554  0.01105659  0.14774725  1
  O  O433  1  0.66831096  0.01279814  0.47409788  1
  O  O434  1  0.66320028  0.00900354  0.79834529  1
  O  O435  1  0.66610652  0.50456360  0.13905147  1
  O  O436  1  0.66931068  0.50668199  0.46844429  1
  O  O437  1  0.67486401  0.51666900  0.79315955  1
  O  O438  1  0.01032667  0.16680085  0.30496072  1
  O  O439  1  0.00820769  0.16298119  0.63556756  1
  O  O440  1  0.00970541  0.16798473  0.96889390  1
  O  O441  1  0.00830492  0.66539042  0.30419684  1
  O  O442  1  0.00368177  0.66162159  0.63457091  1
  O  O443  1  0.00268853  0.66123402  0.97262528  1
  O  O444  1  0.50655115  0.16721449  0.31356722  1
  O  O445  1  0.50984067  0.17146842  0.63446693  1
  O  O446  1  0.50614267  0.16842390  0.96690271  1
  O  O447  1  0.50875433  0.66396544  0.30034794  1
  O  O448  1  0.51481769  0.67349718  0.63200239  1
  O  O449  1  0.50400845  0.67021436  0.96629083  1
  O  O450  1  0.33494870  0.49380964  0.19815721  1
  O  O451  1  0.32572920  0.49405134  0.52933453  1
  O  O452  1  0.33013901  0.49125925  0.86329603  1
  O  O453  1  0.32763827  0.98762737  0.19327942  1
  O  O454  1  0.32662994  0.99409485  0.52771050  1
  O  O455  1  0.33581760  0.99758589  0.86506766  1
  O  O456  1  0.83963855  0.48949055  0.19726982  1
  O  O457  1  0.84112933  0.49679377  0.52309965  1
  O  O458  1  0.84300882  0.49894323  0.86125472  1
  O  O459  1  0.82641255  0.98278459  0.19627826  1
  O  O460  1  0.83625393  0.99237306  0.53290402  1
  O  O461  1  0.82980744  0.99127319  0.86677233  1
