# generated using pymatgen
data_Na31Fe20(SO4)36
_symmetry_space_group_name_H-M   'P 1'
_cell_length_a   18.08185603
_cell_length_b   18.08581770
_cell_length_c   19.72103027
_cell_angle_alpha   107.56856686
_cell_angle_beta   107.56387155
_cell_angle_gamma   90.77104840
_symmetry_Int_Tables_number   1
_chemical_formula_structural   Na31Fe20(SO4)36
_chemical_formula_sum   'Na62 Fe40 S72 O288'
_cell_volume   5822.91641962
_cell_formula_units_Z   2
loop_
 _symmetry_equiv_pos_site_id
 _symmetry_equiv_pos_as_xyz
  1  'x, y, z'
loop_
 _atom_site_type_symbol
 _atom_site_label
 _atom_site_symmetry_multiplicity
 _atom_site_fract_x
 _atom_site_fract_y
 _atom_site_fract_z
 _atom_site_occupancy
  Na  Na0  1  0.18692694  0.31397970  0.03917569  1
  Na  Na1  1  0.12846251  0.36960949  0.41838198  1
  Na  Na2  1  0.14057062  0.34375387  0.75021573  1
  Na  Na3  1  0.13345087  0.87202589  0.08846096  1
  Na  Na4  1  0.13298850  0.86925817  0.41734931  1
  Na  Na5  1  0.12980263  0.87401830  0.75481145  1
  Na  Na6  1  0.63119714  0.36937676  0.08331482  1
  Na  Na7  1  0.62877285  0.35653112  0.40736446  1
  Na  Na8  1  0.63970287  0.36397432  0.75029548  1
  Na  Na9  1  0.63449571  0.87274365  0.08508142  1
  Na  Na10  1  0.62949179  0.86355764  0.41686780  1
  Na  Na11  1  0.63531066  0.86661539  0.75454778  1
  Na  Na12  1  0.35217187  0.13832267  0.24307621  1
  Na  Na13  1  0.36628758  0.14288237  0.59290149  1
  Na  Na14  1  0.37548884  0.13422576  0.92407856  1
  Na  Na15  1  0.36213749  0.63988019  0.24241267  1
  Na  Na16  1  0.36610096  0.63410992  0.58062959  1
  Na  Na17  1  0.36640719  0.62866658  0.91456337  1
  Na  Na18  1  0.85931893  0.13240855  0.24828590  1
  Na  Na19  1  0.86700537  0.13966196  0.59256069  1
  Na  Na20  1  0.86586463  0.14363416  0.92534538  1
  Na  Na21  1  0.86791459  0.63219279  0.24946530  1
  Na  Na22  1  0.87318880  0.62359022  0.57958965  1
  Na  Na23  1  0.87103732  0.63193060  0.91719310  1
  Na  Na24  1  1.01717369  0.47125258  0.74357210  1
  Na  Na25  1  0.45717673  0.00445165  0.40309943  1
  Na  Na26  1  0.48258694  0.51804370  0.41056578  1
  Na  Na27  1  0.98589964  0.01657142  0.06966043  1
  Na  Na28  1  1.06794129  0.46332571  0.06850132  1
  Na  Na29  1  0.32106753  0.47210244  -0.03521816  1
  Na  Na30  1  0.48467884  0.50302622  0.77115973  1
  Na  Na31  1  0.48369874  0.00842140  0.76362481  1
  Na  Na32  1  0.50678139  0.04788193  0.09394838  1
  Na  Na33  1  0.50891651  0.48439196  0.58699737  1
  Na  Na34  1  0.51025638  0.96024939  0.57247533  1
  Na  Na35  1  -0.00833681  1.07412001  0.81875486  1
  Na  Na36  1  0.00801051  0.48583359  0.25711752  1
  Na  Na37  1  0.51468137  0.49567541  0.23247767  1
  Na  Na38  1  0.47977651  1.01910183  0.24536712  1
  Na  Na39  1  0.01070423  0.99185123  0.26422423  1
  Na  Na40  1  0.03831667  0.48410023  0.91539444  1
  Na  Na41  1  0.00727541  1.00298793  0.55985371  1
  Na  Na42  1  0.25472233  0.25965044  0.32473485  1
  Na  Na43  1  0.24088453  0.73853033  0.00374740  1
  Na  Na44  1  0.74718765  0.24352789  0.00672241  1
  Na  Na45  1  0.24974178  0.75083356  0.66704889  1
  Na  Na46  1  0.73237243  0.23326471  0.34728313  1
  Na  Na47  1  0.75146923  0.74973817  0.33393995  1
  Na  Na48  1  0.75104795  0.75399626  0.00023083  1
  Na  Na49  1  0.76292684  0.26199506  0.64974684  1
  Na  Na50  1  0.75049721  0.74867796  0.66499003  1
  Na  Na51  1  0.27837641  0.77770290  0.33224818  1
  Na  Na52  1  0.74850605  0.75059200  0.83450054  1
  Na  Na53  1  0.77771212  0.26629422  0.82770046  1
  Na  Na54  1  0.24282526  0.24401461  0.51108161  1
  Na  Na55  1  0.24597277  0.74650068  0.83598618  1
  Na  Na56  1  0.23649455  0.24342694  0.85358596  1
  Na  Na57  1  0.72452779  0.22396081  0.17332005  1
  Na  Na58  1  0.74819638  0.74663836  0.49932135  1
  Na  Na59  1  0.26167396  0.77347696  0.16904665  1
  Na  Na60  1  0.26206156  0.75978832  0.49155119  1
  Na  Na61  1  0.75117761  0.75121451  0.16523786  1
  Fe  Fe62  1  0.46668085  0.81665625  0.12565656  1
  Fe  Fe63  1  0.46571641  0.81071266  0.79185857  1
  Fe  Fe64  1  0.96574899  0.80398130  0.45367327  1
  Fe  Fe65  1  0.96989492  0.30327224  0.11291647  1
  Fe  Fe66  1  0.96207931  0.30712219  0.45168726  1
  Fe  Fe67  1  0.96643782  0.80537688  0.12128724  1
  Fe  Fe68  1  0.46765456  0.29768825  0.12241362  1
  Fe  Fe69  1  0.46705959  0.30532832  0.45033123  1
  Fe  Fe70  1  0.46426068  0.31023597  0.79300616  1
  Fe  Fe71  1  0.96447273  0.81320257  0.78906149  1
  Fe  Fe72  1  0.19666011  0.03382519  0.37874843  1
  Fe  Fe73  1  0.68699757  0.03112284  0.71184337  1
  Fe  Fe74  1  0.69393731  0.53298114  0.37951456  1
  Fe  Fe75  1  0.69378959  0.53645465  0.71243385  1
  Fe  Fe76  1  0.68625357  0.03639144  0.38133563  1
  Fe  Fe77  1  0.69215111  0.53287814  0.04406438  1
  Fe  Fe78  1  0.19333320  0.03625180  0.71743424  1
  Fe  Fe79  1  0.18837818  0.04071290  0.04676411  1
  Fe  Fe80  1  0.19381362  0.53132716  0.71429459  1
  Fe  Fe81  1  0.19695984  0.53401631  0.38373575  1
  Fe  Fe82  1  0.03736309  0.68778574  0.54495795  1
  Fe  Fe83  1  0.53516194  0.69228492  0.20968642  1
  Fe  Fe84  1  0.54128639  0.19154887  0.88313061  1
  Fe  Fe85  1  0.53673978  0.69495464  0.88197909  1
  Fe  Fe86  1  0.03387348  0.19240200  0.54988985  1
  Fe  Fe87  1  0.03458334  0.19291965  0.21360213  1
  Fe  Fe88  1  0.52856311  0.69871790  0.54232927  1
  Fe  Fe89  1  0.03140981  0.69380172  0.87833427  1
  Fe  Fe90  1  0.03800439  0.68484620  0.21059508  1
  Fe  Fe91  1  0.53540097  0.18980051  0.54839215  1
  Fe  Fe92  1  0.30335955  0.46028920  0.26757209  1
  Fe  Fe93  1  0.81323600  0.46149099  0.61966814  1
  Fe  Fe94  1  0.80962847  0.46267319  0.28535257  1
  Fe  Fe95  1  0.80701905  0.96290940  0.62352062  1
  Fe  Fe96  1  0.30570804  0.96784015  0.61969068  1
  Fe  Fe97  1  0.80951388  0.96624549  0.29065032  1
  Fe  Fe98  1  0.79821573  0.97019312  0.95801204  1
  Fe  Fe99  1  0.30741657  0.46167934  0.62056271  1
  Fe  Fe100  1  0.81415712  0.46617697  0.95482014  1
  Fe  Fe101  1  0.31067319  0.96626817  0.95657622  1
  S  S102  1  0.36162688  0.13890585  0.08709065  1
  S  S103  1  0.35750978  0.14664364  0.41795797  1
  S  S104  1  0.36197114  0.13972494  0.75333092  1
  S  S105  1  0.35734302  0.65465337  0.08944853  1
  S  S106  1  0.35806804  0.63982999  0.41590007  1
  S  S107  1  0.36184143  0.63975500  0.75012629  1
  S  S108  1  0.85926919  0.14197347  0.08641101  1
  S  S109  1  0.85885255  0.13820843  0.41826261  1
  S  S110  1  0.84172342  0.14027517  0.74324983  1
  S  S111  1  0.85920771  0.64092790  0.08457894  1
  S  S112  1  0.86072733  0.63787155  0.41632510  1
  S  S113  1  0.85819199  0.64327700  0.74603119  1
  S  S114  1  0.13677605  0.36312782  0.25436312  1
  S  S115  1  0.13762842  0.35881789  0.58315916  1
  S  S116  1  0.14195744  0.36296684  0.91007280  1
  S  S117  1  0.13631924  0.85771684  0.25402785  1
  S  S118  1  0.14126116  0.85909100  0.58258958  1
  S  S119  1  0.13856233  0.86067409  0.91919592  1
  S  S120  1  0.64115512  0.36053630  0.24876584  1
  S  S121  1  0.64041179  0.36102317  0.58468842  1
  S  S122  1  0.64605709  0.35911269  0.91287345  1
  S  S123  1  0.64446199  0.85763389  0.25123952  1
  S  S124  1  0.64256930  0.85519048  0.58520259  1
  S  S125  1  0.64070219  0.85759217  0.91681497  1
  S  S126  1  0.06204102  0.16323154  0.03953846  1
  S  S127  1  0.06819198  0.17255917  0.37826396  1
  S  S128  1  0.06131291  0.15054030  0.70503085  1
  S  S129  1  0.06494224  0.66809181  0.04296021  1
  S  S130  1  0.06923105  0.67009283  0.37751138  1
  S  S131  1  0.07049494  0.67417484  0.70955210  1
  S  S132  1  0.57142474  0.17439572  0.04520669  1
  S  S133  1  0.55828719  0.16635984  0.37735799  1
  S  S134  1  0.56679521  0.17037595  0.70994918  1
  S  S135  1  0.57334598  0.67443808  0.04246515  1
  S  S136  1  0.56834959  0.66420700  0.37178713  1
  S  S137  1  0.56629524  0.67028556  0.70685981  1
  S  S138  1  0.34571381  0.43555514  0.13705436  1
  S  S139  1  0.33258641  0.43323921  0.46102043  1
  S  S140  1  0.32987689  0.43275244  0.79032443  1
  S  S141  1  0.32675511  0.93810785  0.12293835  1
  S  S142  1  0.33119805  0.94079112  0.46149958  1
  S  S143  1  0.32883562  0.93163930  0.79071971  1
  S  S144  1  0.83252939  0.43221294  0.12403281  1
  S  S145  1  0.82316672  0.42777184  0.45230747  1
  S  S146  1  0.83602792  0.44183715  0.78938510  1
  S  S147  1  0.83722058  0.93105828  0.12968096  1
  S  S148  1  0.82763220  0.92849238  0.45950362  1
  S  S149  1  0.82669007  0.93158893  0.79341932  1
  S  S150  1  0.43052629  0.33136599  0.29122290  1
  S  S151  1  0.43747016  0.33520987  0.62812004  1
  S  S152  1  0.43779203  0.32274506  0.95597543  1
  S  S153  1  0.44484970  0.83740700  0.29098559  1
  S  S154  1  0.43380832  0.83206151  0.62851196  1
  S  S155  1  0.43177052  0.82690102  0.95762487  1
  S  S156  1  0.92860256  0.32667657  0.28669886  1
  S  S157  1  0.93548822  0.32646822  0.62026532  1
  S  S158  1  0.92880108  0.33749134  0.96109495  1
  S  S159  1  0.93095179  0.82701253  0.29205168  1
  S  S160  1  0.93050321  0.82389452  0.62123715  1
  S  S161  1  0.92799784  0.83004062  0.95851511  1
  S  S162  1  0.16075456  0.06659620  0.20929471  1
  S  S163  1  0.17375803  0.06920579  0.54196428  1
  S  S164  1  0.18209036  0.06913656  0.88361982  1
  S  S165  1  0.17947281  0.57408368  0.22001292  1
  S  S166  1  0.17564228  0.56891446  0.54705657  1
  S  S167  1  0.16075366  0.57406189  0.87067211  1
  S  S168  1  0.66752545  0.05845504  0.21620736  1
  S  S169  1  0.66391555  0.06080008  0.54169772  1
  S  S170  1  0.67076107  0.06481665  0.87413532  1
  S  S171  1  0.67412974  0.56942743  0.20914673  1
  S  S172  1  0.66505170  0.56675618  0.53964701  1
  S  S173  1  0.67240614  0.56898962  0.87405120  1
  O  O174  1  0.37328313  0.21923254  0.08004124  1
  O  O175  1  0.36752037  0.22773741  0.41309695  1
  O  O176  1  0.37452959  0.21797615  0.74659818  1
  O  O177  1  0.36965051  0.73798146  0.08851554  1
  O  O178  1  0.36507912  0.71719588  0.40868443  1
  O  O179  1  0.37124777  0.71941124  0.74346396  1
  O  O180  1  0.87336715  0.21827864  0.07395392  1
  O  O181  1  0.86654691  0.21573346  0.40666200  1
  O  O182  1  0.85302328  0.21379035  0.72923848  1
  O  O183  1  0.86645969  0.72143150  0.07898198  1
  O  O184  1  0.86820457  0.71761343  0.40875335  1
  O  O185  1  0.87053627  0.72194108  0.73813108  1
  O  O186  1  0.28130887  0.13004426  0.09066285  1
  O  O187  1  0.27696339  0.13788954  0.42284517  1
  O  O188  1  0.28314509  0.13043043  0.76052126  1
  O  O189  1  0.28825748  0.64999722  0.11291878  1
  O  O190  1  0.28245723  0.62899012  0.43140738  1
  O  O191  1  0.28358329  0.63114065  0.75934059  1
  O  O192  1  0.78294512  0.13707936  0.09612255  1
  O  O193  1  0.77963282  0.12776505  0.42479887  1
  O  O194  1  0.75743735  0.12939826  0.73987213  1
  O  O195  1  0.78072004  0.63060845  0.09373704  1
  O  O196  1  0.78204989  0.62912428  0.42577438  1
  O  O197  1  0.77712600  0.63744708  0.75104254  1
  O  O198  1  0.12487587  0.28562981  0.26474228  1
  O  O199  1  0.12904410  0.27927849  0.58948256  1
  O  O200  1  0.13363624  0.27963418  0.90509507  1
  O  O201  1  0.12148423  0.78053749  0.26434648  1
  O  O202  1  0.13259527  0.77804173  0.58565850  1
  O  O203  1  0.12621679  0.78234751  0.92866486  1
  O  O204  1  0.63848719  0.28434349  0.25936513  1
  O  O205  1  0.63040508  0.28396693  0.59581688  1
  O  O206  1  0.64223738  0.27958365  0.92003722  1
  O  O207  1  0.63605013  0.77686500  0.25623562  1
  O  O208  1  0.63094854  0.77531144  0.59152303  1
  O  O209  1  0.63446371  0.77316692  0.91542587  1
  O  O210  1  0.21810327  0.37139788  0.25464309  1
  O  O211  1  0.21668559  0.36897030  0.57437505  1
  O  O212  1  0.22226232  0.38014890  0.90875393  1
  O  O213  1  0.21581437  0.86443067  0.25118595  1
  O  O214  1  0.21882928  0.86909225  0.57147105  1
  O  O215  1  0.21687070  0.86519477  0.90907885  1
  O  O216  1  0.71585093  0.37575864  0.23443032  1
  O  O217  1  0.72100669  0.37130007  0.58229747  1
  O  O218  1  0.72124157  0.37345083  0.89874098  1
  O  O219  1  0.72417569  0.86675258  0.24421325  1
  O  O220  1  0.72581573  0.86229616  0.58544622  1
  O  O221  1  0.71964339  0.86796491  0.90724275  1
  O  O222  1  0.41908751  0.12894053  0.15343026  1
  O  O223  1  0.41401708  0.14067688  0.48929155  1
  O  O224  1  0.42148682  0.12681123  0.81902922  1
  O  O225  1  0.42538137  0.63668063  0.14554182  1
  O  O226  1  0.42068579  0.63097568  0.48344968  1
  O  O227  1  0.42236112  0.63016973  0.81706118  1
  O  O228  1  0.92055160  0.13289376  0.15343156  1
  O  O229  1  0.91757403  0.13237805  0.48727140  1
  O  O230  1  0.88949956  0.13862653  0.81715637  1
  O  O231  1  0.91899380  0.63218633  0.15143877  1
  O  O232  1  0.92025017  0.63073589  0.48372510  1
  O  O233  1  0.91395490  0.63661092  0.81579278  1
  O  O234  1  0.37281688  0.08121591  0.01854319  1
  O  O235  1  0.36888567  0.08894768  0.35295107  1
  O  O236  1  0.36937530  0.07999590  0.68452899  1
  O  O237  1  0.34868547  0.60343266  0.01364831  1
  O  O238  1  0.36504911  0.57790339  0.34920546  1
  O  O239  1  0.36927433  0.58127587  0.68183636  1
  O  O240  1  0.86638549  0.07960089  0.01874797  1
  O  O241  1  0.86946597  0.07862555  0.35141687  1
  O  O242  1  0.85746500  0.07520421  0.68191067  1
  O  O243  1  0.86484262  0.58519791  0.01454186  1
  O  O244  1  0.86713769  0.58016046  0.34738341  1
  O  O245  1  0.86551906  0.58311229  0.67874522  1
  O  O246  1  0.08046618  0.37087348  0.18499389  1
  O  O247  1  0.07894358  0.36743265  0.51534267  1
  O  O248  1  0.08554601  0.38161503  0.84620930  1
  O  O249  1  0.07947864  0.86475566  0.18339681  1
  O  O250  1  0.07947923  0.87103592  0.51773573  1
  O  O251  1  0.07938106  0.86691463  0.85024358  1
  O  O252  1  0.57657156  0.36636443  0.18137132  1
  O  O253  1  0.58367579  0.36727593  0.51439139  1
  O  O254  1  0.58217993  0.36674171  0.84789762  1
  O  O255  1  0.58666726  0.86687745  0.18338044  1
  O  O256  1  0.58877993  0.86491449  0.51773271  1
  O  O257  1  0.58150805  0.86569395  0.84847160  1
  O  O258  1  0.12415461  0.42426505  0.32019140  1
  O  O259  1  0.13141665  0.41710420  0.65230700  1
  O  O260  1  0.12927293  0.41130274  0.98148127  1
  O  O261  1  0.12348047  0.91966123  0.31853950  1
  O  O262  1  0.13748524  0.91491787  0.65342462  1
  O  O263  1  0.13195936  0.92090630  0.98637818  1
  O  O264  1  0.63188207  0.42220046  0.31530007  1
  O  O265  1  0.62729837  0.42252969  0.64966235  1
  O  O266  1  0.64280622  0.41628383  0.98401832  1
  O  O267  1  0.63678570  0.91386905  0.32021573  1
  O  O268  1  0.63149770  0.91279602  0.65320407  1
  O  O269  1  0.63410508  0.90969494  0.98560555  1
  O  O270  1  0.03310150  0.20066881  0.10706291  1
  O  O271  1  0.02909161  0.19934837  0.43741028  1
  O  O272  1  0.01948762  0.15649549  0.75782745  1
  O  O273  1  0.02727710  0.70297216  0.10378554  1
  O  O274  1  0.02918528  0.69871837  0.43653316  1
  O  O275  1  0.03206332  0.70425963  0.76909881  1
  O  O276  1  0.52942559  0.20778264  0.10192249  1
  O  O277  1  0.53165216  0.20241191  0.44622202  1
  O  O278  1  0.52997183  0.19817861  0.77062315  1
  O  O279  1  0.53722512  0.70528421  0.10276606  1
  O  O280  1  0.53526403  0.68677109  0.43361121  1
  O  O281  1  0.53019707  0.69787119  0.76789857  1
  O  O282  1  0.31210443  0.45662052  0.07064430  1
  O  O283  1  0.30280447  0.47048397  0.40199510  1
  O  O284  1  0.29988600  0.46820547  0.72619703  1
  O  O285  1  0.29251284  0.96846986  0.05748707  1
  O  O286  1  0.29692616  0.97719010  0.40281547  1
  O  O287  1  0.29772381  0.96836164  0.72980949  1
  O  O288  1  0.80417908  0.47074736  0.06422241  1
  O  O289  1  0.79647586  0.46913585  0.39380750  1
  O  O290  1  0.79744575  0.47863557  0.72852806  1
  O  O291  1  0.81399436  0.96341217  0.06761286  1
  O  O292  1  0.79937317  0.96368244  0.39829407  1
  O  O293  1  0.79462492  0.96787022  0.73247454  1
  O  O294  1  0.46613717  0.30754084  0.23040507  1
  O  O295  1  0.47377733  0.30883499  0.56701288  1
  O  O296  1  0.48307990  0.29134379  0.90020927  1
  O  O297  1  0.48059553  0.79769583  0.22937721  1
  O  O298  1  0.46990882  0.80421192  0.56883206  1
  O  O299  1  0.47085080  0.79799141  0.89761464  1
  O  O300  1  0.96639002  0.29761837  0.22688675  1
  O  O301  1  0.96628336  0.29467006  0.55424438  1
  O  O302  1  0.94676849  0.31142595  0.89206106  1
  O  O303  1  0.96467805  0.79534121  0.22999416  1
  O  O304  1  0.97122150  0.79533453  0.56303480  1
  O  O305  1  0.96303021  0.80094311  0.89627667  1
  O  O306  1  0.18233479  0.02960532  0.26859610  1
  O  O307  1  0.20219181  0.03138067  0.60273109  1
  O  O308  1  0.21200009  0.02574705  0.94056878  1
  O  O309  1  0.20514194  0.53240397  0.27891240  1
  O  O310  1  0.20372042  0.53085725  0.60722020  1
  O  O311  1  0.18054035  0.54879426  0.93617888  1
  O  O312  1  0.70621004  0.02496714  0.28036863  1
  O  O313  1  0.69079467  0.01759331  0.59775250  1
  O  O314  1  0.69698742  0.02862418  0.93345506  1
  O  O315  1  0.70489635  0.53448001  0.27094319  1
  O  O316  1  0.69609871  0.53148908  0.60099688  1
  O  O317  1  0.70172298  0.53405397  0.93564368  1
  O  O318  1  0.07971399  0.08216239  0.04199769  1
  O  O319  1  0.09124249  0.09289784  0.37422698  1
  O  O320  1  0.08509765  0.06789113  0.68237490  1
  O  O321  1  0.07503900  0.58710497  0.03879480  1
  O  O322  1  0.08962208  0.58992046  0.37420676  1
  O  O323  1  0.09292238  0.59537636  0.70693005  1
  O  O324  1  0.59577852  0.10077114  0.05400661  1
  O  O325  1  0.57917715  0.08590456  0.37797255  1
  O  O326  1  0.58075527  0.08692192  0.70091338  1
  O  O327  1  0.59758652  0.59666234  0.04213453  1
  O  O328  1  0.58488751  0.57974363  0.35894000  1
  O  O329  1  0.58429187  0.58788085  0.69992381  1
  O  O330  1  0.42042337  0.39818047  0.13448125  1
  O  O331  1  0.41520158  0.41622553  0.46565657  1
  O  O332  1  0.41040444  0.41140364  0.78992876  1
  O  O333  1  0.40674423  0.91629947  0.12181115  1
  O  O334  1  0.41117450  0.92551962  0.46210051  1
  O  O335  1  0.40939490  0.91339152  0.79165069  1
  O  O336  1  0.91375329  0.41240196  0.13140012  1
  O  O337  1  0.90161287  0.40579407  0.45438255  1
  O  O338  1  0.91755208  0.43642698  0.79330772  1
  O  O339  1  0.92116211  0.91333385  0.14260731  1
  O  O340  1  0.90848193  0.90731401  0.46449811  1
  O  O341  1  0.90781232  0.91520071  0.79604492  1
  O  O342  1  0.41225675  0.41442665  0.30359862  1
  O  O343  1  0.42251359  0.41952856  0.63698338  1
  O  O344  1  0.42560787  0.40208324  0.95746414  1
  O  O345  1  0.43074418  0.91586940  0.28494579  1
  O  O346  1  0.41688431  0.91511786  0.63536239  1
  O  O347  1  0.41034219  0.90605623  0.95941939  1
  O  O348  1  0.91317716  0.40905481  0.29123312  1
  O  O349  1  0.91356581  0.40748366  0.62277581  1
  O  O350  1  0.91860388  0.42456485  0.98048875  1
  O  O351  1  0.91371350  0.90828343  0.29631851  1
  O  O352  1  0.90669426  0.90172966  0.62093261  1
  O  O353  1  0.90537098  0.90938737  0.96287351  1
  O  O354  1  0.07558094  0.08107058  0.19572761  1
  O  O355  1  0.09279393  0.08816790  0.53735048  1
  O  O356  1  0.10969716  0.09595450  0.89227106  1
  O  O357  1  0.09405207  0.58407658  0.20982069  1
  O  O358  1  0.09614541  0.58981472  0.54249757  1
  O  O359  1  0.07464820  0.58792934  0.85014525  1
  O  O360  1  0.58804009  0.07257221  0.21865892  1
  O  O361  1  0.58105792  0.07646014  0.53581534  1
  O  O362  1  0.58921692  0.08597715  0.86655245  1
  O  O363  1  0.59344118  0.58816654  0.20611527  1
  O  O364  1  0.58330755  0.58447590  0.53577829  1
  O  O365  1  0.59135163  0.58877883  0.86817789  1
  O  O366  1  0.13370334  0.20900934  0.05012872  1
  O  O367  1  0.13680232  0.22880058  0.39566027  1
  O  O368  1  0.13125604  0.20736065  0.73135537  1
  O  O369  1  0.13751532  0.71927095  0.06085009  1
  O  O370  1  0.13841740  0.72532249  0.39604158  1
  O  O371  1  0.13970090  0.72997179  0.72545613  1
  O  O372  1  0.63860718  0.23198671  0.05922256  1
  O  O373  1  0.62664498  0.21693336  0.38565501  1
  O  O374  1  0.63754161  0.22272483  0.72699978  1
  O  O375  1  0.64185293  0.72980777  0.05501409  1
  O  O376  1  0.64128330  0.71516545  0.38909774  1
  O  O377  1  0.63817950  0.72217219  0.72426552  1
  O  O378  1  0.29145534  0.38217681  0.15005439  1
  O  O379  1  0.28114109  0.36228021  0.44624764  1
  O  O380  1  0.27806451  0.36354522  0.77584604  1
  O  O381  1  0.27380038  0.86831830  0.11065792  1
  O  O382  1  0.28097258  0.86792110  0.44715024  1
  O  O383  1  0.27716787  0.85999760  0.77457726  1
  O  O384  1  0.77787993  0.36319826  0.10715318  1
  O  O385  1  0.76609559  0.36029709  0.43413264  1
  O  O386  1  0.78825728  0.36636117  0.76938666  1
  O  O387  1  0.78518236  0.85955485  0.11398590  1
  O  O388  1  0.77420130  0.85801591  0.44453995  1
  O  O389  1  0.77609760  0.85811450  0.77580544  1
  O  O390  1  0.36106037  0.27874210  0.27658853  1
  O  O391  1  0.36494255  0.28551735  0.61028895  1
  O  O392  1  0.36685428  0.26866921  0.93307724  1
  O  O393  1  0.37039138  0.78834737  0.27369995  1
  O  O394  1  0.36094175  0.78159113  0.61227787  1
  O  O395  1  0.36243956  0.77131652  0.93966834  1
  O  O396  1  0.85622041  0.27623748  0.26976682  1
  O  O397  1  0.86616981  0.27451345  0.60748824  1
  O  O398  1  0.85637756  0.29260043  0.95707459  1
  O  O399  1  0.85935735  0.77560741  0.27794191  1
  O  O400  1  0.86223007  0.76667112  0.60348657  1
  O  O401  1  0.85954556  0.77416898  0.94382904  1
  O  O402  1  0.21073097  0.14003184  0.22963714  1
  O  O403  1  0.22691504  0.13887922  0.55799889  1
  O  O404  1  0.24182757  0.13194206  0.89606389  1
  O  O405  1  0.22653000  0.65067863  0.24755958  1
  O  O406  1  0.23067318  0.63879536  0.56472168  1
  O  O407  1  0.21037027  0.64625996  0.88218452  1
  O  O408  1  0.71753266  0.13261061  0.23416361  1
  O  O409  1  0.71535620  0.13289027  0.56263151  1
  O  O410  1  0.72404285  0.13478349  0.88880241  1
  O  O411  1  0.72635453  0.64050384  0.22426727  1
  O  O412  1  0.71711832  0.63772816  0.55428834  1
  O  O413  1  0.72583399  0.63899534  0.88864427  1
  O  O414  1  0.49067970  0.32125534  0.03155547  1
  O  O415  1  0.49232462  0.33217284  0.36297184  1
  O  O416  1  0.49566796  0.33508327  0.70025723  1
  O  O417  1  0.49091236  0.83091963  0.03027767  1
  O  O418  1  0.49958027  0.84170807  0.36385963  1
  O  O419  1  0.49176069  0.83412974  0.70211874  1
  O  O420  1  0.99474751  0.33332079  0.02852479  1
  O  O421  1  0.98630195  0.32802529  0.35977377  1
  O  O422  1  0.99976299  0.33331746  0.68853878  1
  O  O423  1  0.98930706  0.83441138  0.03063135  1
  O  O424  1  0.99044745  0.82882383  0.36439999  1
  O  O425  1  0.98836495  0.83079964  0.69566552  1
  O  O426  1  0.16547160  0.00993417  0.13801694  1
  O  O427  1  0.17059871  0.00912423  0.46957518  1
  O  O428  1  0.16900480  0.00946004  0.80695303  1
  O  O429  1  0.18813953  0.52191038  0.15125381  1
  O  O430  1  0.17425335  0.50989218  0.47482681  1
  O  O431  1  0.16579700  0.51115543  0.80185569  1
  O  O432  1  0.66616434  0.00180332  0.14536203  1
  O  O433  1  0.66446405  0.00508394  0.46820069  1
  O  O434  1  0.66457970  0.00469437  0.79989344  1
  O  O435  1  0.67145826  0.50980989  0.13706202  1
  O  O436  1  0.66132424  0.50734707  0.46680455  1
  O  O437  1  0.66837175  0.50875058  0.80130017  1
  O  O438  1  0.00904207  0.16694069  0.30441277  1
  O  O439  1  0.00626390  0.15648700  0.63154699  1
  O  O440  1  -0.00218198  0.15597993  0.97120760  1
  O  O441  1  0.01028275  0.66510260  0.30380227  1
  O  O442  1  0.01138196  0.66984111  0.63617864  1
  O  O443  1  0.00812692  0.67024839  0.96987857  1
  O  O444  1  0.49184666  0.15799607  0.31041303  1
  O  O445  1  0.50768937  0.17108407  0.63767879  1
  O  O446  1  0.51443168  0.16309440  0.96871640  1
  O  O447  1  0.50965629  0.66678391  0.30098315  1
  O  O448  1  0.50758262  0.66940721  0.63480117  1
  O  O449  1  0.51257479  0.66720497  0.96896816  1
  O  O450  1  0.37130251  0.50543890  0.20793869  1
  O  O451  1  0.33797395  0.49152173  0.53581699  1
  O  O452  1  0.33730851  0.49594497  0.85979112  1
  O  O453  1  0.33562495  1.00065660  0.19288505  1
  O  O454  1  0.33563199  0.99719574  0.53717249  1
  O  O455  1  0.33311910  0.98938335  0.86363746  1
  O  O456  1  0.83580990  0.49235345  0.19718714  1
  O  O457  1  0.82651531  0.48689435  0.52578116  1
  O  O458  1  0.83128974  0.49543237  0.86234691  1
  O  O459  1  0.83656360  0.99133689  0.20082359  1
  O  O460  1  0.83146182  0.98861755  0.53185587  1
  O  O461  1  0.82756654  0.98898248  0.86564837  1
