# generated using pymatgen
data_Na31Fe20(SO4)36
_symmetry_space_group_name_H-M   'P 1'
_cell_length_a   18.08208822
_cell_length_b   18.07849153
_cell_length_c   19.70496802
_cell_angle_alpha   107.54227461
_cell_angle_beta   107.55500352
_cell_angle_gamma   90.78281842
_symmetry_Int_Tables_number   1
_chemical_formula_structural   Na31Fe20(SO4)36
_chemical_formula_sum   'Na62 Fe40 S72 O288'
_cell_volume   5817.01453638
_cell_formula_units_Z   2
loop_
 _symmetry_equiv_pos_site_id
 _symmetry_equiv_pos_as_xyz
  1  'x, y, z'
loop_
 _atom_site_type_symbol
 _atom_site_label
 _atom_site_symmetry_multiplicity
 _atom_site_fract_x
 _atom_site_fract_y
 _atom_site_fract_z
 _atom_site_occupancy
  Na  Na0  1  0.14209625  0.35386084  0.08924372  1
  Na  Na1  1  0.12998972  0.35534591  0.40099903  1
  Na  Na2  1  0.14298419  0.36795016  0.75756727  1
  Na  Na3  1  0.13197495  0.85638220  0.06525536  1
  Na  Na4  1  0.14257690  0.85562482  0.41880405  1
  Na  Na5  1  0.15392970  0.88025172  0.76775722  1
  Na  Na6  1  0.62949003  0.36593313  0.07925159  1
  Na  Na7  1  0.63432521  0.36369499  0.41514324  1
  Na  Na8  1  0.63519665  0.36843313  0.75308966  1
  Na  Na9  1  0.62194808  0.87395756  0.07838700  1
  Na  Na10  1  0.61945352  0.87113759  0.41360607  1
  Na  Na11  1  0.63677198  0.87467205  0.76073958  1
  Na  Na12  1  0.34980082  0.13636618  0.23619207  1
  Na  Na13  1  0.36278862  0.13361469  0.58578371  1
  Na  Na14  1  0.35785006  0.11526195  0.90709579  1
  Na  Na15  1  0.35663144  0.63226495  0.24335190  1
  Na  Na16  1  0.35941554  0.63995387  0.57560761  1
  Na  Na17  1  0.35963890  0.64502771  0.92756003  1
  Na  Na18  1  0.87693158  0.13149728  0.25303753  1
  Na  Na19  1  0.87149072  0.13217027  0.58723823  1
  Na  Na20  1  0.87278146  0.13162062  0.92701644  1
  Na  Na21  1  0.86626296  0.63149198  0.24594305  1
  Na  Na22  1  0.86518063  0.63114977  0.58174508  1
  Na  Na23  1  0.87607301  0.64782600  0.92400846  1
  Na  Na24  1  1.00152613  0.51057337  0.41434606  1
  Na  Na25  1  0.48479833  0.51687811  0.41705518  1
  Na  Na26  1  0.48677859  0.51484489  0.75175247  1
  Na  Na27  1  0.98243828  0.04487560  0.09307655  1
  Na  Na28  1  0.98855805  0.53500219  0.78509166  1
  Na  Na29  1  0.47478528  0.00563062  0.76315585  1
  Na  Na30  1  1.04835770  0.47898648  0.02982486  1
  Na  Na31  1  0.47613756  0.50906483  0.08596892  1
  Na  Na32  1  1.00969718  0.00330165  0.39860727  1
  Na  Na33  1  0.48646350  0.99941316  0.25567754  1
  Na  Na34  1  0.50625053  0.48648484  0.25225031  1
  Na  Na35  1  0.08373324  0.99950188  0.63127855  1
  Na  Na36  1  0.01372115  0.48447915  0.58867383  1
  Na  Na37  1  0.50707324  0.49462343  0.58346722  1
  Na  Na38  1  0.01061925  0.44561522  0.21180264  1
  Na  Na39  1  0.00769659  0.98884952  0.90698604  1
  Na  Na40  1  0.49903721  0.94074867  0.55901517  1
  Na  Na41  1  0.49929821  0.49369731  0.92025131  1
  Na  Na42  1  0.25730446  0.75446640  0.65783934  1
  Na  Na43  1  0.25937828  0.75322250  0.33033524  1
  Na  Na44  1  0.75280936  0.75535928  0.32813020  1
  Na  Na45  1  0.75965025  0.77006818  -0.00685982  1
  Na  Na46  1  0.74487177  0.24773322  0.66834801  1
  Na  Na47  1  0.25141146  0.25059501  0.32495239  1
  Na  Na48  1  0.24062999  0.23512152  0.00947030  1
  Na  Na49  1  0.75994273  0.25620090  0.00082288  1
  Na  Na50  1  0.75936941  0.25666629  0.32759833  1
  Na  Na51  1  0.75958276  0.75997934  0.66373683  1
  Na  Na52  1  0.75057614  0.24828651  0.50063085  1
  Na  Na53  1  0.23736381  0.74904790  0.85013097  1
  Na  Na54  1  0.24085469  0.23529809  0.83162781  1
  Na  Na55  1  0.76745220  0.26032677  0.16154759  1
  Na  Na56  1  0.76686592  0.77216087  0.83224981  1
  Na  Na57  1  0.24291514  0.24000436  0.51007730  1
  Na  Na58  1  0.75079205  0.75697658  0.49385980  1
  Na  Na59  1  0.24915111  0.74828652  0.14798866  1
  Na  Na60  1  0.75300069  0.76097495  0.15921927  1
  Na  Na61  1  0.75372020  0.25041859  0.83854386  1
  Fe  Fe62  1  0.97173405  0.79999077  0.79311912  1
  Fe  Fe63  1  0.96791928  0.81235046  0.12072161  1
  Fe  Fe64  1  0.96881258  0.30461485  0.45112456  1
  Fe  Fe65  1  0.45900124  0.80909122  0.11460416  1
  Fe  Fe66  1  0.46335143  0.30633669  0.78105313  1
  Fe  Fe67  1  0.96475978  0.31595153  0.79144338  1
  Fe  Fe68  1  0.46349679  0.30012781  0.11478578  1
  Fe  Fe69  1  0.46169150  0.81281740  0.79217031  1
  Fe  Fe70  1  0.96723321  0.80470481  0.45590210  1
  Fe  Fe71  1  0.46450793  0.30660791  0.44903895  1
  Fe  Fe72  1  0.68907986  0.53970834  0.04929782  1
  Fe  Fe73  1  0.20018307  0.02990926  0.03804233  1
  Fe  Fe74  1  0.18543835  0.03409264  0.37006902  1
  Fe  Fe75  1  0.19467402  0.53509786  0.71981951  1
  Fe  Fe76  1  0.69193708  0.53333385  0.38317440  1
  Fe  Fe77  1  0.69714979  0.03361644  0.71548419  1
  Fe  Fe78  1  0.69595836  0.03328962  0.04188036  1
  Fe  Fe79  1  0.19115083  0.53632746  0.37870599  1
  Fe  Fe80  1  0.68940363  0.53817181  0.71664348  1
  Fe  Fe81  1  0.69297008  0.03569987  0.37972415  1
  Fe  Fe82  1  0.53449340  0.19514954  0.88018002  1
  Fe  Fe83  1  0.53454641  0.18629268  0.20796814  1
  Fe  Fe84  1  0.03827096  0.19158397  0.55152844  1
  Fe  Fe85  1  0.53057875  0.70283870  0.54756482  1
  Fe  Fe86  1  0.03681887  0.68713341  0.54693390  1
  Fe  Fe87  1  0.53224709  0.69698513  0.88615455  1
  Fe  Fe88  1  0.53068285  0.69745073  0.21920053  1
  Fe  Fe89  1  0.03408460  0.19046569  0.87998238  1
  Fe  Fe90  1  0.03753273  0.68171566  0.20822537  1
  Fe  Fe91  1  0.53173869  0.18689133  0.54211661  1
  Fe  Fe92  1  0.30763702  0.96275991  0.28563509  1
  Fe  Fe93  1  0.80671276  0.96423698  0.28828953  1
  Fe  Fe94  1  0.30703003  0.46324971  0.61793252  1
  Fe  Fe95  1  0.30177586  0.46701400  0.95186879  1
  Fe  Fe96  1  0.30553974  0.46237936  0.28098215  1
  Fe  Fe97  1  0.30105075  0.96431202  0.61650947  1
  Fe  Fe98  1  0.80515669  0.46624048  0.62225943  1
  Fe  Fe99  1  0.81174396  0.46838833  0.95774797  1
  Fe  Fe100  1  0.81982454  0.96415867  0.62786558  1
  Fe  Fe101  1  0.80141369  0.46761604  0.28324958  1
  S  S102  1  0.36320069  0.13747161  0.08220023  1
  S  S103  1  0.35765093  0.14262235  0.41404175  1
  S  S104  1  0.36218867  0.13995088  0.74765647  1
  S  S105  1  0.36346758  0.63685946  0.08465426  1
  S  S106  1  0.36098788  0.63528317  0.41493137  1
  S  S107  1  0.36156385  0.63754626  0.74730792  1
  S  S108  1  0.85217325  0.14298940  0.08761267  1
  S  S109  1  0.86159711  0.14056416  0.41857387  1
  S  S110  1  0.85732934  0.14431871  0.75018088  1
  S  S111  1  0.85450692  0.64473906  0.08448214  1
  S  S112  1  0.85701800  0.63940652  0.41775463  1
  S  S113  1  0.85250852  0.64089078  0.74884149  1
  S  S114  1  0.14475980  0.35885504  0.25343331  1
  S  S115  1  0.14144315  0.35909271  0.58388239  1
  S  S116  1  0.14119282  0.35813583  0.91677951  1
  S  S117  1  0.14007844  0.85544550  0.25241085  1
  S  S118  1  0.14363949  0.84592109  0.57713996  1
  S  S119  1  0.13938677  0.86328093  0.91145455  1
  S  S120  1  0.63747294  0.35791014  0.24878585  1
  S  S121  1  0.63812153  0.36031441  0.58336708  1
  S  S122  1  0.63626750  0.36489255  0.91588211  1
  S  S123  1  0.63750592  0.86066394  0.25136736  1
  S  S124  1  0.64727785  0.85995474  0.58705313  1
  S  S125  1  0.63865900  0.86134534  0.91904643  1
  S  S126  1  0.07177637  0.16063548  0.03884050  1
  S  S127  1  0.06618118  0.17422480  0.37935524  1
  S  S128  1  0.06282071  0.18097909  0.71566922  1
  S  S129  1  0.06275952  0.67258694  0.05143253  1
  S  S130  1  0.06333638  0.66527008  0.37281859  1
  S  S131  1  0.06411009  0.66319015  0.70480733  1
  S  S132  1  0.57550015  0.17326704  0.04396617  1
  S  S133  1  0.56835391  0.17101448  0.37537785  1
  S  S134  1  0.57309564  0.17323299  0.70925527  1
  S  S135  1  0.56460829  0.66665026  0.04359819  1
  S  S136  1  0.56851965  0.66336853  0.37575817  1
  S  S137  1  0.56669992  0.67233586  0.71046767  1
  S  S138  1  0.33756391  0.42898722  0.12367069  1
  S  S139  1  0.33373077  0.43231527  0.45940729  1
  S  S140  1  0.33619939  0.43420952  0.79220525  1
  S  S141  1  0.32907708  0.93390409  0.12704816  1
  S  S142  1  0.32415654  0.93764192  0.45153361  1
  S  S143  1  0.33096149  0.92918006  0.78583629  1
  S  S144  1  0.82212864  0.43666240  0.11923889  1
  S  S145  1  0.82756891  0.43235490  0.45933604  1
  S  S146  1  0.82576698  0.43650375  0.79130435  1
  S  S147  1  0.82214254  0.93165662  0.12570612  1
  S  S148  1  0.82607063  0.92907954  0.45760595  1
  S  S149  1  0.83342052  0.93478179  0.79165607  1
  S  S150  1  0.43624497  0.33135770  0.29245149  1
  S  S151  1  0.43625837  0.33292883  0.62219101  1
  S  S152  1  0.43165184  0.33027437  0.95528530  1
  S  S153  1  0.43089942  0.82745671  0.28679946  1
  S  S154  1  0.43522459  0.83243728  0.62869708  1
  S  S155  1  0.43031648  0.82949193  0.95549341  1
  S  S156  1  0.93024893  0.34490344  0.29780798  1
  S  S157  1  0.93238012  0.33619695  0.62570269  1
  S  S158  1  0.93407849  0.33141744  0.95825435  1
  S  S159  1  0.93027018  0.82717972  0.29198440  1
  S  S160  1  0.93345224  0.82012095  0.62259171  1
  S  S161  1  0.93644632  0.83957629  0.96164639  1
  S  S162  1  0.17115675  0.06101800  0.20550723  1
  S  S163  1  0.16636937  0.06299465  0.53637166  1
  S  S164  1  0.16909190  0.07002547  0.87433495  1
  S  S165  1  0.16981890  0.56139834  0.20929872  1
  S  S166  1  0.17121834  0.56083983  0.54272969  1
  S  S167  1  0.17524688  0.56649479  0.87443448  1
  S  S168  1  0.67538431  0.06943921  0.21157520  1
  S  S169  1  0.67418577  0.06918600  0.54392049  1
  S  S170  1  0.66865048  0.07317279  0.87642625  1
  S  S171  1  0.66402108  0.56646276  0.20992336  1
  S  S172  1  0.66476770  0.56568688  0.54347628  1
  S  S173  1  0.66562198  0.57119334  0.87756850  1
  O  O174  1  0.36841228  0.22050986  0.08004232  1
  O  O175  1  0.36979243  0.22153508  0.40538589  1
  O  O176  1  0.37777107  0.21684258  0.73668048  1
  O  O177  1  0.37400603  0.71376721  0.07327433  1
  O  O178  1  0.36683493  0.70860034  0.40021678  1
  O  O179  1  0.37296732  0.71459617  0.73738042  1
  O  O180  1  0.85347846  0.22453950  0.08812380  1
  O  O181  1  0.87005184  0.21864274  0.40797729  1
  O  O182  1  0.86428030  0.22326310  0.74109214  1
  O  O183  1  0.86086921  0.72479647  0.07862752  1
  O  O184  1  0.86399958  0.72134006  0.41608879  1
  O  O185  1  0.86494498  0.72025644  0.74257661  1
  O  O186  1  0.28364559  0.12478646  0.09051199  1
  O  O187  1  0.27669898  0.13515881  0.41751141  1
  O  O188  1  0.28705224  0.13442227  0.75890099  1
  O  O189  1  0.28931476  0.62686697  0.09663138  1
  O  O190  1  0.28540633  0.62165221  0.42813286  1
  O  O191  1  0.28187899  0.62910710  0.75267798  1
  O  O192  1  0.76893836  0.12622663  0.09352969  1
  O  O193  1  0.78054560  0.13125961  0.42252022  1
  O  O194  1  0.77622451  0.13403480  0.75476306  1
  O  O195  1  0.77708606  0.63441725  0.09685029  1
  O  O196  1  0.78085160  0.62828495  0.43132127  1
  O  O197  1  0.77093773  0.63496633  0.75302301  1
  O  O198  1  0.13662608  0.29064684  0.27671045  1
  O  O199  1  0.13140736  0.27995541  0.58937694  1
  O  O200  1  0.13194784  0.27531240  0.91694591  1
  O  O201  1  0.12688334  0.77745229  0.26209211  1
  O  O202  1  0.13452135  0.76160290  0.57229932  1
  O  O203  1  0.12967102  0.78790448  0.92164647  1
  O  O204  1  0.62951136  0.27995654  0.25883713  1
  O  O205  1  0.62881893  0.28064774  0.58917837  1
  O  O206  1  0.62956205  0.28708631  0.92672228  1
  O  O207  1  0.62661080  0.78360131  0.26356283  1
  O  O208  1  0.63475852  0.78093640  0.59472026  1
  O  O209  1  0.62525833  0.78680293  0.93547635  1
  O  O210  1  0.22707508  0.36949857  0.25102567  1
  O  O211  1  0.22016467  0.36835493  0.57530731  1
  O  O212  1  0.21807668  0.36722700  0.90315318  1
  O  O213  1  0.22226398  0.86130367  0.25081760  1
  O  O214  1  0.21955544  0.86029897  0.56627703  1
  O  O215  1  0.21013657  0.87523612  0.89309675  1
  O  O216  1  0.71680333  0.36798431  0.24175498  1
  O  O217  1  0.71779570  0.36972789  0.57636025  1
  O  O218  1  0.71481194  0.37497113  0.90728346  1
  O  O219  1  0.71934556  0.86642498  0.24869786  1
  O  O220  1  0.72974093  0.86679702  0.58578710  1
  O  O221  1  0.71508311  0.86468596  0.90891027  1
  O  O222  1  0.42093044  0.13399995  0.15407977  1
  O  O223  1  0.41321979  0.13983187  0.48665034  1
  O  O224  1  0.42532368  0.13113402  0.81485603  1
  O  O225  1  0.42748536  0.62850447  0.15209215  1
  O  O226  1  0.42361610  0.63123449  0.48458884  1
  O  O227  1  0.41966866  0.62807681  0.81569802  1
  O  O228  1  0.90838670  0.13156162  0.15375456  1
  O  O229  1  0.91746887  0.13704652  0.48975715  1
  O  O230  1  0.91342649  0.13794787  0.81944641  1
  O  O231  1  0.91503869  0.63406909  0.14973346  1
  O  O232  1  0.91996720  0.62438479  0.47936022  1
  O  O233  1  0.90757440  0.62838043  0.81448865  1
  O  O234  1  0.37475827  0.08416560  0.01657984  1
  O  O235  1  0.37027863  0.08303267  0.34957029  1
  O  O236  1  0.36909722  0.07831304  0.67993120  1
  O  O237  1  0.37492055  0.57622999  0.01791258  1
  O  O238  1  0.37272802  0.57011066  0.35078436  1
  O  O239  1  0.37169270  0.57633538  0.68049060  1
  O  O240  1  0.85892249  0.08870005  0.01821575  1
  O  O241  1  0.87343098  0.07915733  0.35414794  1
  O  O242  1  0.86609875  0.08520202  0.68264353  1
  O  O243  1  0.85718957  0.58772221  0.01320771  1
  O  O244  1  0.85813492  0.58566304  0.34456642  1
  O  O245  1  0.85856436  0.58260032  0.67854822  1
  O  O246  1  0.09027970  0.35633999  0.18080735  1
  O  O247  1  0.08173873  0.37056691  0.51712909  1
  O  O248  1  0.07981484  0.37120038  0.85220053  1
  O  O249  1  0.08630792  0.86383616  0.18260717  1
  O  O250  1  0.08098672  0.86192545  0.51418205  1
  O  O251  1  0.07135285  0.87662094  0.85002554  1
  O  O252  1  0.57859303  0.36562338  0.18062465  1
  O  O253  1  0.58017181  0.37058475  0.51573708  1
  O  O254  1  0.57628075  0.37050526  0.84683286  1
  O  O255  1  0.58263549  0.86567660  0.18063532  1
  O  O256  1  0.59313651  0.86865491  0.51877600  1
  O  O257  1  0.57787495  0.86720540  0.85154372  1
  O  O258  1  0.13055790  0.42848608  0.31378739  1
  O  O259  1  0.13364220  0.41769451  0.65234194  1
  O  O260  1  0.14004191  0.41136256  0.98844441  1
  O  O261  1  0.12909093  0.91577258  0.31851657  1
  O  O262  1  0.13784689  0.89437217  0.64923526  1
  O  O263  1  0.13725465  0.92637942  0.98305484  1
  O  O264  1  0.62849645  0.41834658  0.31611230  1
  O  O265  1  0.62929015  0.41891134  0.65151135  1
  O  O266  1  0.62477723  0.42520714  0.98162667  1
  O  O267  1  0.62749753  0.92291265  0.31648473  1
  O  O268  1  0.63661911  0.91931598  0.65442196  1
  O  O269  1  0.63402087  0.92614591  0.98672686  1
  O  O270  1  0.03791462  0.17230043  0.09826738  1
  O  O271  1  0.03141132  0.20071777  0.44443318  1
  O  O272  1  0.02018589  0.21242412  0.77219018  1
  O  O273  1  0.02245052  0.71012177  0.11225147  1
  O  O274  1  0.02262214  0.69481762  0.43123716  1
  O  O275  1  0.02531988  0.69163204  0.76202584  1
  O  O276  1  0.53580361  0.20048816  0.10357639  1
  O  O277  1  0.53182119  0.20072600  0.43654743  1
  O  O278  1  0.53869749  0.20468839  0.77143993  1
  O  O279  1  0.53462890  0.70078032  0.10749468  1
  O  O280  1  0.54103815  0.69111878  0.44071065  1
  O  O281  1  0.53276636  0.70016819  0.77278731  1
  O  O282  1  0.31769645  0.46168416  0.06170676  1
  O  O283  1  0.30182234  0.46494697  0.39735727  1
  O  O284  1  0.30307307  0.46841944  0.72970605  1
  O  O285  1  0.29687939  0.96822278  0.06640830  1
  O  O286  1  0.28958831  0.97897257  0.39397992  1
  O  O287  1  0.30922961  0.95791746  0.71955809  1
  O  O288  1  0.78696139  0.47522717  0.05933966  1
  O  O289  1  0.79563542  0.46728380  0.39754383  1
  O  O290  1  0.79217387  0.47223879  0.72949823  1
  O  O291  1  0.79164180  0.97083665  0.06819486  1
  O  O292  1  0.79785715  0.96942946  0.39905778  1
  O  O293  1  0.80231730  0.97112051  0.72832435  1
  O  O294  1  0.47142012  0.30021548  0.23125669  1
  O  O295  1  0.47176553  0.30295001  0.56069484  1
  O  O296  1  0.46829649  0.30061125  0.89420613  1
  O  O297  1  0.46574001  0.79898968  0.22229297  1
  O  O298  1  0.47260765  0.80447478  0.56901284  1
  O  O299  1  0.46620250  0.79026478  0.89300537  1
  O  O300  1  0.96287449  0.33209300  0.23754337  1
  O  O301  1  0.96884931  0.30665870  0.56487722  1
  O  O302  1  0.96429193  0.29755766  0.89237031  1
  O  O303  1  0.96470373  0.80167618  0.23050716  1
  O  O304  1  0.97258932  0.79032037  0.56274075  1
  O  O305  1  0.96107751  0.80110859  0.89532014  1
  O  O306  1  0.20513538  0.01913163  0.26385129  1
  O  O307  1  0.19493677  0.02456635  0.59466045  1
  O  O308  1  0.20046163  0.04008356  0.93995229  1
  O  O309  1  0.20945118  0.53440098  0.27662478  1
  O  O310  1  0.20007631  0.52432648  0.60393061  1
  O  O311  1  0.21265644  0.53390915  0.93556477  1
  O  O312  1  0.70378521  0.02725639  0.26912636  1
  O  O313  1  0.70315960  0.03080773  0.60303244  1
  O  O314  1  0.68859980  0.03906584  0.93836619  1
  O  O315  1  0.69662366  0.53062780  0.27152682  1
  O  O316  1  0.69471701  0.52884750  0.60415017  1
  O  O317  1  0.69609514  0.53567010  0.93844304  1
  O  O318  1  0.09821929  0.07809981  0.02217438  1
  O  O319  1  0.08547973  0.09218439  0.37331020  1
  O  O320  1  0.08211884  0.10417495  0.71825700  1
  O  O321  1  0.09083904  0.60249550  0.06786607  1
  O  O322  1  0.07996801  0.58371067  0.37203403  1
  O  O323  1  0.08358157  0.58125715  0.70171787  1
  O  O324  1  0.60071529  0.09542343  0.04344784  1
  O  O325  1  0.58704408  0.08973941  0.36993587  1
  O  O326  1  0.59249319  0.09280112  0.70447792  1
  O  O327  1  0.57855398  0.58299960  0.03968842  1
  O  O328  1  0.58347551  0.57823648  0.36562314  1
  O  O329  1  0.58056720  0.58756727  0.70236017  1
  O  O330  1  0.42230498  0.41117816  0.13654391  1
  O  O331  1  0.41773209  0.41865121  0.46478141  1
  O  O332  1  0.41957783  0.41991952  0.79425152  1
  O  O333  1  0.40986710  0.91364472  0.12887546  1
  O  O334  1  0.40411981  0.92654781  0.45301272  1
  O  O335  1  0.41625156  0.91446844  0.79897092  1
  O  O336  1  0.89884552  0.41817825  0.11601522  1
  O  O337  1  0.91012611  0.41732553  0.46737760  1
  O  O338  1  0.90675380  0.42099709  0.79256942  1
  O  O339  1  0.89883785  0.90596857  0.12308183  1
  O  O340  1  0.90378311  0.90456135  0.45715135  1
  O  O341  1  0.90829344  0.90431819  0.78672408  1
  O  O342  1  0.42048675  0.41422921  0.29710608  1
  O  O343  1  0.42119433  0.41642229  0.62839898  1
  O  O344  1  0.41687654  0.41318783  0.96067288  1
  O  O345  1  0.41023250  0.90821953  0.28898804  1
  O  O346  1  0.41645240  0.91386237  0.63035463  1
  O  O347  1  0.41980561  0.90827810  0.95760377  1
  O  O348  1  0.90540142  0.42727882  0.31567648  1
  O  O349  1  0.91507996  0.41857957  0.62989280  1
  O  O350  1  0.90789029  0.40955728  0.95397291  1
  O  O351  1  0.91024870  0.90915470  0.30202843  1
  O  O352  1  0.91590410  0.90058065  0.62481807  1
  O  O353  1  0.93368540  0.92344601  0.97312006  1
  O  O354  1  0.08989040  0.06716603  0.19992290  1
  O  O355  1  0.08524818  0.08364249  0.53609138  1
  O  O356  1  0.08808906  0.09086463  0.87175053  1
  O  O357  1  0.08949093  0.57863308  0.21267867  1
  O  O358  1  0.08814674  0.57649040  0.53700534  1
  O  O359  1  0.09755398  0.58465683  0.87495918  1
  O  O360  1  0.59519440  0.08753452  0.21049624  1
  O  O361  1  0.59475884  0.09100411  0.54146264  1
  O  O362  1  0.58557173  0.09077918  0.85984695  1
  O  O363  1  0.58182568  0.58100704  0.20596183  1
  O  O364  1  0.58282955  0.58247392  0.53891802  1
  O  O365  1  0.58253742  0.58653831  0.87259349  1
  O  O366  1  0.13863003  0.21765927  0.05380749  1
  O  O367  1  0.13918136  0.22616944  0.40119992  1
  O  O368  1  0.13163230  0.23589685  0.73211126  1
  O  O369  1  0.12820440  0.72996406  0.06416234  1
  O  O370  1  0.13497177  0.71517308  0.38954280  1
  O  O371  1  0.13472596  0.71429563  0.71784996  1
  O  O372  1  0.64269449  0.23122813  0.06125158  1
  O  O373  1  0.63966034  0.22397978  0.39288402  1
  O  O374  1  0.64349413  0.22715793  0.72447006  1
  O  O375  1  0.63670261  0.71297994  0.05315844  1
  O  O376  1  0.64062978  0.71097893  0.38571341  1
  O  O377  1  0.63930850  0.72131533  0.72589738  1
  O  O378  1  0.28569727  0.35924617  0.10940038  1
  O  O379  1  0.28691345  0.35977447  0.44824802  1
  O  O380  1  0.28939812  0.36252780  0.78064315  1
  O  O381  1  0.27820878  0.86572308  0.11942427  1
  O  O382  1  0.27395346  0.86431225  0.43134122  1
  O  O383  1  0.28332921  0.85375001  0.76717105  1
  O  O384  1  0.76706728  0.36756877  0.10414295  1
  O  O385  1  0.77729401  0.35939361  0.44301312  1
  O  O386  1  0.77569661  0.36357899  0.77488021  1
  O  O387  1  0.76513634  0.86354798  0.11121189  1
  O  O388  1  0.76822119  0.86101787  0.43976806  1
  O  O389  1  0.77397256  0.86813859  0.77546842  1
  O  O390  1  0.36623693  0.28190968  0.28131474  1
  O  O391  1  0.36465675  0.28349647  0.60725277  1
  O  O392  1  0.36064182  0.27986525  0.94033914  1
  O  O393  1  0.35946456  0.77377794  0.26738271  1
  O  O394  1  0.36564023  0.77987469  0.61435149  1
  O  O395  1  0.35966912  0.77748442  0.94099143  1
  O  O396  1  0.86209195  0.28795079  0.28201445  1
  O  O397  1  0.85991718  0.28524838  0.60888971  1
  O  O398  1  0.86530356  0.27804954  0.94781296  1
  O  O399  1  0.85882205  0.77366460  0.27518973  1
  O  O400  1  0.85991715  0.76750009  0.60057752  1
  O  O401  1  0.85986454  0.79555490  0.94935949  1
  O  O402  1  0.22075710  0.13566970  0.23011377  1
  O  O403  1  0.21912163  0.13226944  0.54990926  1
  O  O404  1  0.22206377  0.14179813  0.89062754  1
  O  O405  1  0.21744228  0.63337306  0.21925223  1
  O  O406  1  0.22252577  0.63184141  0.55992486  1
  O  O407  1  0.22583762  0.63378144  0.87831416  1
  O  O408  1  0.72951467  0.14026732  0.23263779  1
  O  O409  1  0.72874669  0.13964749  0.56007791  1
  O  O410  1  0.72186282  0.14461638  0.89461891  1
  O  O411  1  0.71352643  0.63889362  0.22522795  1
  O  O412  1  0.71630866  0.63653629  0.55832022  1
  O  O413  1  0.71508815  0.64256702  0.89063319  1
  O  O414  1  0.49145135  0.33254507  0.02793860  1
  O  O415  1  0.49765565  0.33655307  0.36578514  1
  O  O416  1  0.49594172  0.33531813  0.69463022  1
  O  O417  1  0.49054002  0.82519126  0.02718197  1
  O  O418  1  0.49053580  0.82881476  0.35565618  1
  O  O419  1  0.49466605  0.83876518  0.70310277  1
  O  O420  1  0.99818268  0.34421068  0.02781265  1
  O  O421  1  0.99130104  0.34579317  0.37065400  1
  O  O422  1  0.98978650  0.33900208  0.69875780  1
  O  O423  1  0.99403500  0.82920992  0.03056250  1
  O  O424  1  0.98983059  0.82797494  0.36393075  1
  O  O425  1  0.98858135  0.81859575  0.69430697  1
  O  O426  1  0.17906203  0.01022233  0.13194794  1
  O  O427  1  0.15522825  0.00467566  0.46019733  1
  O  O428  1  0.16466153  0.01085833  0.80413435  1
  O  O429  1  0.16332215  0.49667428  0.14141007  1
  O  O430  1  0.16842796  0.50257555  0.46953443  1
  O  O431  1  0.16933644  0.50209480  0.80047070  1
  O  O432  1  0.67249292  0.01421077  0.13682708  1
  O  O433  1  0.66994174  0.01131814  0.46999299  1
  O  O434  1  0.67444072  0.01272739  0.80756655  1
  O  O435  1  0.66240241  0.50759125  0.13765882  1
  O  O436  1  0.66205357  0.50572915  0.47062029  1
  O  O437  1  0.66097900  0.51079849  0.80412679  1
  O  O438  1  0.00720429  0.17726520  0.31217060  1
  O  O439  1  0.00632808  0.17559908  0.63935640  1
  O  O440  1  0.00946855  0.15972872  0.96665276  1
  O  O441  1  0.00533320  0.66160058  0.29897293  1
  O  O442  1  0.00560452  0.65406756  0.62821559  1
  O  O443  1  0.00314143  0.65609579  0.97843015  1
  O  O444  1  0.50938349  0.16859046  0.30310125  1
  O  O445  1  0.51238848  0.17156494  0.63765719  1
  O  O446  1  0.51581380  0.16771194  0.97112531  1
  O  O447  1  0.50613094  0.66225244  0.30541713  1
  O  O448  1  0.50762253  0.67101946  0.63811255  1
  O  O449  1  0.50314786  0.66097324  0.97111735  1
  O  O450  1  0.33875608  0.49077562  0.19521562  1
  O  O451  1  0.33716600  0.49302085  0.53205727  1
  O  O452  1  0.34256870  0.49533798  0.86503006  1
  O  O453  1  0.34127678  0.99625278  0.20224822  1
  O  O454  1  0.32339901  0.99121431  0.52680645  1
  O  O455  1  0.32444690  0.98792886  0.85136900  1
  O  O456  1  0.82659852  0.49467314  0.19380937  1
  O  O457  1  0.82598502  0.49162979  0.53045497  1
  O  O458  1  0.82632810  0.49495929  0.86287605  1
  O  O459  1  0.83253388  0.98909395  0.20194827  1
  O  O460  1  0.83279455  0.98706611  0.53197929  1
  O  O461  1  0.84464939  0.99614090  0.86239991  1
