# generated using pymatgen
data_Na31Fe20(SO4)36
_symmetry_space_group_name_H-M   'P 1'
_cell_length_a   18.05798523
_cell_length_b   18.06589344
_cell_length_c   19.68490717
_cell_angle_alpha   107.61546478
_cell_angle_beta   107.58662639
_cell_angle_gamma   90.66325250
_symmetry_Int_Tables_number   1
_chemical_formula_structural   Na31Fe20(SO4)36
_chemical_formula_sum   'Na62 Fe40 S72 O288'
_cell_volume   5797.04980080
_cell_formula_units_Z   2
loop_
 _symmetry_equiv_pos_site_id
 _symmetry_equiv_pos_as_xyz
  1  'x, y, z'
loop_
 _atom_site_type_symbol
 _atom_site_label
 _atom_site_symmetry_multiplicity
 _atom_site_fract_x
 _atom_site_fract_y
 _atom_site_fract_z
 _atom_site_occupancy
  Na  Na0  1  0.13839996  0.37488687  0.09299046  1
  Na  Na1  1  0.13477381  0.36374522  0.41418847  1
  Na  Na2  1  0.13651265  0.36552120  0.75375525  1
  Na  Na3  1  0.13495697  0.86215617  0.08387557  1
  Na  Na4  1  0.13702379  0.86687944  0.42031658  1
  Na  Na5  1  0.13157997  0.88233081  0.75029042  1
  Na  Na6  1  0.63991772  0.33981933  0.09356933  1
  Na  Na7  1  0.62376582  0.35330591  0.40534327  1
  Na  Na8  1  0.63528887  0.35991250  0.74417817  1
  Na  Na9  1  0.63378389  0.86583396  0.08086634  1
  Na  Na10  1  0.63184856  0.86638167  0.41417420  1
  Na  Na11  1  0.63466164  0.87050782  0.75435395  1
  Na  Na12  1  0.35887709  0.14034404  0.23560188  1
  Na  Na13  1  0.36729776  0.14013791  0.58764096  1
  Na  Na14  1  0.37207613  0.14746178  0.93087003  1
  Na  Na15  1  0.36735261  0.62216992  0.25096910  1
  Na  Na16  1  0.36753325  0.63795959  0.59138585  1
  Na  Na17  1  0.36629390  0.63029129  0.91658369  1
  Na  Na18  1  0.86521763  0.14001744  0.24621600  1
  Na  Na19  1  0.86171792  0.13481481  0.57974747  1
  Na  Na20  1  0.87583722  0.12761502  0.91792071  1
  Na  Na21  1  0.86237054  0.63184592  0.24073383  1
  Na  Na22  1  0.86341962  0.63245414  0.58011420  1
  Na  Na23  1  0.85726357  0.64551720  0.93091773  1
  Na  Na24  1  0.50898210  0.50654992  0.72629101  1
  Na  Na25  1  0.98716899  0.50529465  0.76219351  1
  Na  Na26  1  0.47911133  0.00758362  0.76120690  1
  Na  Na27  1  0.46359856  0.50710931  0.43082917  1
  Na  Na28  1  0.51681976  0.47263454  0.09343024  1
  Na  Na29  1  0.98883643  0.00645789  0.42830440  1
  Na  Na30  1  0.49309782  0.04207095  0.42092775  1
  Na  Na31  1  0.99755012  0.51086601  0.40827391  1
  Na  Na32  1  1.04163310  -0.01432675  0.02470912  1
  Na  Na33  1  0.48147216  0.42366882  0.23260042  1
  Na  Na34  1  0.47728753  1.00820272  0.95586707  1
  Na  Na35  1  0.49600252  1.01455128  0.58349578  1
  Na  Na36  1  0.51951331  0.48896306  0.91458712  1
  Na  Na37  1  0.00677745  0.48879020  0.58350012  1
  Na  Na38  1  0.01585750  0.50390693  0.22425746  1
  Na  Na39  1  0.00714255  0.96362900  0.22090145  1
  Na  Na40  1  0.48475177  1.03816312  0.19444440  1
  Na  Na41  1  -0.04298766  0.51391037  0.97174350  1
  Na  Na42  1  0.75203213  0.25136089  -0.00030447  1
  Na  Na43  1  0.75138733  0.25398379  0.65281540  1
  Na  Na44  1  0.76013614  0.75810434  0.32431525  1
  Na  Na45  1  0.24827245  0.24922557  0.33001573  1
  Na  Na46  1  0.25169482  0.74992950  -0.00379493  1
  Na  Na47  1  0.74839983  0.74886601  0.67060629  1
  Na  Na48  1  0.72985583  0.23959947  0.33055122  1
  Na  Na49  1  0.23744012  0.23223044  0.67518480  1
  Na  Na50  1  0.25152824  0.23860792  0.00809322  1
  Na  Na51  1  0.24860027  0.74806328  0.33886836  1
  Na  Na52  1  0.75210657  0.75290553  0.49710496  1
  Na  Na53  1  0.24694564  0.74631833  0.16874217  1
  Na  Na54  1  0.24937810  0.25033589  0.50174800  1
  Na  Na55  1  0.25311315  0.75887154  0.81874959  1
  Na  Na56  1  0.26616163  0.26442741  0.16581441  1
  Na  Na57  1  0.75944185  0.26332765  0.83193373  1
  Na  Na58  1  0.24070802  0.74061374  0.51604352  1
  Na  Na59  1  0.74576584  0.74654418  0.84970822  1
  Na  Na60  1  0.76829749  0.75784468  0.14176347  1
  Na  Na61  1  0.23824347  0.23273011  0.83920635  1
  Fe  Fe62  1  0.96087282  0.30587967  0.44577874  1
  Fe  Fe63  1  0.46419579  0.81236304  0.45600122  1
  Fe  Fe64  1  0.46593809  0.80751868  0.12382121  1
  Fe  Fe65  1  0.96470024  0.31041804  0.78897876  1
  Fe  Fe66  1  0.96239424  0.30681365  0.11623096  1
  Fe  Fe67  1  0.96507695  0.81258915  0.78773490  1
  Fe  Fe68  1  0.96766678  0.80907707  0.45622610  1
  Fe  Fe69  1  0.47158717  0.29649985  0.45910749  1
  Fe  Fe70  1  0.46320141  0.81078773  0.78902624  1
  Fe  Fe71  1  0.46787452  0.30359176  0.78224493  1
  Fe  Fe72  1  0.68871970  0.03562305  0.37923871  1
  Fe  Fe73  1  0.20349753  0.52901786  0.37803577  1
  Fe  Fe74  1  0.19175698  0.53191751  0.04491910  1
  Fe  Fe75  1  0.69179860  0.53687618  0.38023774  1
  Fe  Fe76  1  0.19328082  0.53624129  0.71594339  1
  Fe  Fe77  1  0.70200047  0.52843175  0.04582880  1
  Fe  Fe78  1  0.69399127  0.03710059  0.05081884  1
  Fe  Fe79  1  0.69459825  0.53598508  0.71484021  1
  Fe  Fe80  1  0.18804673  0.03664395  0.37846400  1
  Fe  Fe81  1  0.69283390  0.03668551  0.71468533  1
  Fe  Fe82  1  0.53506524  0.69499319  0.88461161  1
  Fe  Fe83  1  0.03649046  0.18956334  0.20963127  1
  Fe  Fe84  1  0.53487599  0.69713339  0.54903451  1
  Fe  Fe85  1  0.03116086  0.19589118  0.55027136  1
  Fe  Fe86  1  0.02973337  0.69949344  0.20553835  1
  Fe  Fe87  1  0.53690117  0.19338481  0.88448523  1
  Fe  Fe88  1  0.03785160  0.18620624  0.87665080  1
  Fe  Fe89  1  0.53501890  0.69016683  0.21449491  1
  Fe  Fe90  1  0.03458400  0.69549375  0.88101326  1
  Fe  Fe91  1  0.03914176  0.69342860  0.54984532  1
  Fe  Fe92  1  0.81289343  0.96710430  0.62306449  1
  Fe  Fe93  1  0.80950037  0.96372149  0.28136541  1
  Fe  Fe94  1  0.30686488  0.46352446  0.62188009  1
  Fe  Fe95  1  0.31444290  0.46042587  0.95458535  1
  Fe  Fe96  1  0.80608371  0.46340957  0.28304597  1
  Fe  Fe97  1  0.81039119  0.96302936  0.95487967  1
  Fe  Fe98  1  0.29645823  0.96938493  0.62435056  1
  Fe  Fe99  1  0.30442390  0.96835094  0.28492899  1
  Fe  Fe100  1  0.29660947  0.97352907  0.95993940  1
  Fe  Fe101  1  0.80460125  0.46563478  0.61581780  1
  S  S102  1  0.36923841  0.13950416  0.08296713  1
  S  S103  1  0.35517549  0.13955997  0.41676790  1
  S  S104  1  0.36113894  0.14048649  0.74839088  1
  S  S105  1  0.36038910  0.63956353  0.08350789  1
  S  S106  1  0.36111539  0.64506200  0.42331531  1
  S  S107  1  0.36225196  0.64042118  0.75137652  1
  S  S108  1  0.86159090  0.13891843  0.08246069  1
  S  S109  1  0.85941089  0.13853721  0.41589435  1
  S  S110  1  0.85784722  0.14261228  0.75001602  1
  S  S111  1  0.86096236  0.63708028  0.08385436  1
  S  S112  1  0.86252445  0.64014039  0.41568579  1
  S  S113  1  0.86025911  0.64052112  0.75006073  1
  S  S114  1  0.13596781  0.36174364  0.24894649  1
  S  S115  1  0.13707033  0.36066876  0.58433575  1
  S  S116  1  0.14260805  0.35863233  0.91506520  1
  S  S117  1  0.14405450  0.85936802  0.25294664  1
  S  S118  1  0.14025620  0.85728950  0.58093298  1
  S  S119  1  0.14071934  0.85619515  0.91270163  1
  S  S120  1  0.64039249  0.36574699  0.25486204  1
  S  S121  1  0.63799472  0.36565016  0.58474271  1
  S  S122  1  0.63955224  0.36198114  0.91428157  1
  S  S123  1  0.64182258  0.85598320  0.24955550  1
  S  S124  1  0.64216763  0.85978112  0.58515035  1
  S  S125  1  0.63740991  0.86193845  0.91821803  1
  S  S126  1  0.07417591  0.17964041  0.04802723  1
  S  S127  1  0.06372408  0.17136967  0.37561278  1
  S  S128  1  0.06338489  0.17360524  0.71091887  1
  S  S129  1  0.07098756  0.66843329  0.03863808  1
  S  S130  1  0.06800848  0.66763467  0.37301664  1
  S  S131  1  0.06422997  0.66494401  0.70665453  1
  S  S132  1  0.57857859  0.16785129  0.03704658  1
  S  S133  1  0.55962439  0.16457129  0.37362835  1
  S  S134  1  0.56631816  0.16636954  0.71052664  1
  S  S135  1  0.56874653  0.66711843  0.04490179  1
  S  S136  1  0.56719510  0.67289119  0.37881527  1
  S  S137  1  0.57065045  0.67730388  0.71386494  1
  S  S138  1  0.33178901  0.43461174  0.11755541  1
  S  S139  1  0.32886586  0.42625574  0.46201735  1
  S  S140  1  0.33032920  0.43019136  0.78901976  1
  S  S141  1  0.32775028  0.92730250  0.12330820  1
  S  S142  1  0.32847355  0.93726755  0.45941501  1
  S  S143  1  0.33430344  0.93206048  0.79763315  1
  S  S144  1  0.82980754  0.42992444  0.12535727  1
  S  S145  1  0.83254450  0.43486284  0.45577348  1
  S  S146  1  0.83061932  0.43759397  0.78998443  1
  S  S147  1  0.82908874  0.93428526  0.12089197  1
  S  S148  1  0.83022159  0.93176467  0.45656640  1
  S  S149  1  0.82736796  0.93199417  0.78886873  1
  S  S150  1  0.42122972  0.32780779  0.30042952  1
  S  S151  1  0.43154033  0.33002318  0.62340663  1
  S  S152  1  0.43872959  0.33250761  0.95391034  1
  S  S153  1  0.43044801  0.83046393  0.29329886  1
  S  S154  1  0.43264144  0.83636673  0.62625291  1
  S  S155  1  0.42402817  0.82571300  0.95734965  1
  S  S156  1  0.93305742  0.33317272  0.29403353  1
  S  S157  1  0.93306241  0.33522660  0.62606973  1
  S  S158  1  0.93304605  0.32081486  0.95153790  1
  S  S159  1  0.93558029  0.83121259  0.29208968  1
  S  S160  1  0.93040987  0.82432237  0.62115918  1
  S  S161  1  0.93724260  0.83048879  0.95504124  1
  S  S162  1  0.16323606  0.06154908  0.20794284  1
  S  S163  1  0.16853365  0.07075489  0.54054318  1
  S  S164  1  0.17674785  0.06800339  0.87562035  1
  S  S165  1  0.17054861  0.57429980  0.20980125  1
  S  S166  1  0.17059387  0.56485268  0.54194296  1
  S  S167  1  0.17059187  0.56693820  0.87500920  1
  S  S168  1  0.67874047  0.06490583  0.21542328  1
  S  S169  1  0.66937676  0.05787493  0.54358909  1
  S  S170  1  0.67151257  0.06677943  0.87549253  1
  S  S171  1  0.67203392  0.56905605  0.20976818  1
  S  S172  1  0.66991891  0.57325892  0.54271291  1
  S  S173  1  0.66150444  0.56859663  0.87169539  1
  O  O174  1  0.38137331  0.20724813  0.05955900  1
  O  O175  1  0.36970780  0.22198373  0.41646113  1
  O  O176  1  0.37620925  0.21508180  0.73262279  1
  O  O177  1  0.37042020  0.71874314  0.07528383  1
  O  O178  1  0.36784779  0.72728283  0.42118700  1
  O  O179  1  0.37159511  0.71786686  0.74137934  1
  O  O180  1  0.86972082  0.21630333  0.07072612  1
  O  O181  1  0.86786111  0.21770527  0.40810722  1
  O  O182  1  0.86460612  0.22367027  0.74471281  1
  O  O183  1  0.86444313  0.71612321  0.07937378  1
  O  O184  1  0.87094548  0.71986793  0.40874262  1
  O  O185  1  0.86956460  0.71878474  0.74109150  1
  O  O186  1  0.29207564  0.13786262  0.09489192  1
  O  O187  1  0.27307680  0.13459281  0.41945401  1
  O  O188  1  0.28315016  0.13883168  0.75528226  1
  O  O189  1  0.28087119  0.63174944  0.09050471  1
  O  O190  1  0.28163924  0.63233369  0.43034780  1
  O  O191  1  0.28211918  0.63018371  0.75705423  1
  O  O192  1  0.78515928  0.13022114  0.09370199  1
  O  O193  1  0.78087134  0.12709751  0.42242848  1
  O  O194  1  0.77902985  0.13240684  0.75896352  1
  O  O195  1  0.78490504  0.62239845  0.09906478  1
  O  O196  1  0.78425990  0.63163088  0.42574732  1
  O  O197  1  0.78157617  0.63348688  0.75987056  1
  O  O198  1  0.12346258  0.28392014  0.26021974  1
  O  O199  1  0.12838238  0.28263569  0.59419356  1
  O  O200  1  0.13828950  0.27742744  0.91869084  1
  O  O201  1  0.13306791  0.78016418  0.26062523  1
  O  O202  1  0.13397422  0.77319963  0.57920371  1
  O  O203  1  0.13569101  0.77301426  0.91327139  1
  O  O204  1  0.62819075  0.29134095  0.26615059  1
  O  O205  1  0.63448557  0.29361750  0.60276024  1
  O  O206  1  0.62829405  0.28366656  0.92356013  1
  O  O207  1  0.62930909  0.77821900  0.26003100  1
  O  O208  1  0.63148927  0.78079595  0.59386124  1
  O  O209  1  0.62756985  0.78308134  0.92609727  1
  O  O210  1  0.20877142  0.36663781  0.23259304  1
  O  O211  1  0.21570426  0.36880089  0.57586299  1
  O  O212  1  0.21949159  0.37156752  0.90302477  1
  O  O213  1  0.22700741  0.86698382  0.25208200  1
  O  O214  1  0.21855985  0.86961162  0.57009919  1
  O  O215  1  0.22210751  0.87031768  0.90835866  1
  O  O216  1  0.72114833  0.37502496  0.24891515  1
  O  O217  1  0.71424521  0.37966760  0.57268882  1
  O  O218  1  0.71491117  0.37012320  0.90341123  1
  O  O219  1  0.72182424  0.86060852  0.24257044  1
  O  O220  1  0.72212630  0.86624290  0.57878609  1
  O  O221  1  0.71649371  0.87083872  0.90995028  1
  O  O222  1  0.43021173  0.13097979  0.14762754  1
  O  O223  1  0.40972156  0.12349059  0.48127022  1
  O  O224  1  0.42059846  0.13268382  0.81697725  1
  O  O225  1  0.41872263  0.63302350  0.15261854  1
  O  O226  1  0.41984110  0.63751564  0.49331387  1
  O  O227  1  0.41958676  0.63457211  0.82156496  1
  O  O228  1  0.92328773  0.13384618  0.15057643  1
  O  O229  1  0.91882718  0.13178749  0.48535691  1
  O  O230  1  0.91740884  0.13225286  0.81579442  1
  O  O231  1  0.92377156  0.62884873  0.15159214  1
  O  O232  1  0.92311563  0.63067112  0.48249254  1
  O  O233  1  0.92014390  0.63014083  0.81645034  1
  O  O234  1  0.37070950  0.06733828  0.01409995  1
  O  O235  1  0.36130450  0.08482895  0.34510123  1
  O  O236  1  0.36911625  0.07590774  0.68233708  1
  O  O237  1  0.36869427  0.58056494  0.01553853  1
  O  O238  1  0.37241463  0.58933564  0.35745254  1
  O  O239  1  0.37328539  0.57918827  0.68579543  1
  O  O240  1  0.86936870  0.07813662  0.01482865  1
  O  O241  1  0.87265031  0.07949188  0.35021191  1
  O  O242  1  0.86328516  0.08652825  0.67933332  1
  O  O243  1  0.86568294  0.57858833  0.01552942  1
  O  O244  1  0.86951167  0.58166565  0.34683641  1
  O  O245  1  0.86638474  0.58062432  0.68097734  1
  O  O246  1  0.07035323  0.37530425  0.18726182  1
  O  O247  1  0.07728016  0.36838080  0.51629879  1
  O  O248  1  0.08082322  0.36942665  0.84991899  1
  O  O249  1  0.09006381  0.86845319  0.18482762  1
  O  O250  1  0.08061035  0.86548570  0.51206095  1
  O  O251  1  0.08436090  0.86334001  0.84290048  1
  O  O252  1  0.58376716  0.37872487  0.18885896  1
  O  O253  1  0.57618951  0.36395529  0.51255222  1
  O  O254  1  0.57635424  0.37180474  0.84768442  1
  O  O255  1  0.58391234  0.86195967  0.17987201  1
  O  O256  1  0.58430126  0.86609034  0.51558548  1
  O  O257  1  0.57888414  0.86861244  0.84887855  1
  O  O258  1  0.13509411  0.42155446  0.32082615  1
  O  O259  1  0.12876693  0.42142743  0.65168187  1
  O  O260  1  0.13611436  0.41371587  0.98573456  1
  O  O261  1  0.13355961  0.91792711  0.32093369  1
  O  O262  1  0.13354045  0.91070007  0.64905658  1
  O  O263  1  0.13023300  0.90866457  0.98057549  1
  O  O264  1  0.63321137  0.42883594  0.32413273  1
  O  O265  1  0.62548866  0.43137838  0.64720726  1
  O  O266  1  0.63068483  0.42182116  0.98273098  1
  O  O267  1  0.63434216  0.91660202  0.31666577  1
  O  O268  1  0.63248076  0.91895236  0.65198005  1
  O  O269  1  0.62807279  0.92129525  0.98505948  1
  O  O270  1  0.03273723  0.21182669  0.10687198  1
  O  O271  1  0.02846447  0.20319409  0.43790414  1
  O  O272  1  0.02558751  0.20952607  0.77162943  1
  O  O273  1  0.04042141  0.69729995  0.10153459  1
  O  O274  1  0.03003831  0.69543343  0.43327715  1
  O  O275  1  0.02726534  0.69529829  0.76657404  1
  O  O276  1  0.56111919  0.20887343  0.10394935  1
  O  O277  1  0.52851198  0.19910653  0.43911909  1
  O  O278  1  0.53648872  0.20047002  0.77646005  1
  O  O279  1  0.53021495  0.69654151  0.10486738  1
  O  O280  1  0.52805223  0.70400005  0.43817967  1
  O  O281  1  0.53236679  0.70515348  0.77374112  1
  O  O282  1  0.29325948  0.47101093  0.05523394  1
  O  O283  1  0.30407112  0.46542971  0.40412401  1
  O  O284  1  0.29823151  0.46877310  0.72921848  1
  O  O285  1  0.30107175  0.95697635  0.05866605  1
  O  O286  1  0.30059940  0.97494096  0.39916850  1
  O  O287  1  0.31527334  0.96835290  0.73788728  1
  O  O288  1  0.79938320  0.46186464  0.06340970  1
  O  O289  1  0.80481456  0.47476405  0.39752892  1
  O  O290  1  0.79794302  0.46983733  0.72465189  1
  O  O291  1  0.79238019  0.97176034  0.06035981  1
  O  O292  1  0.79897672  0.96707622  0.39511871  1
  O  O293  1  0.79715270  0.97074155  0.72910303  1
  O  O294  1  0.44665762  0.29974185  0.23463470  1
  O  O295  1  0.46485389  0.30598003  0.56113809  1
  O  O296  1  0.46538560  0.29594736  0.88623016  1
  O  O297  1  0.46834180  0.80126673  0.23304023  1
  O  O298  1  0.47336858  0.80856389  0.56782960  1
  O  O299  1  0.46402219  0.80014461  0.89826183  1
  O  O300  1  0.96170115  0.29886621  0.22891904  1
  O  O301  1  0.96594890  0.30292431  0.56251298  1
  O  O302  1  0.97614308  0.28838134  0.89483242  1
  O  O303  1  0.97254626  0.80481830  0.23308748  1
  O  O304  1  0.96986727  0.79455660  0.56170351  1
  O  O305  1  0.96997664  0.79748380  0.88917610  1
  O  O306  1  0.19784700  0.02743818  0.27211977  1
  O  O307  1  0.19808710  0.03500172  0.59974053  1
  O  O308  1  0.20541915  0.03044018  0.93745795  1
  O  O309  1  0.19152880  0.53937638  0.27082330  1
  O  O310  1  0.19887291  0.52846845  0.60355211  1
  O  O311  1  0.19919218  0.53159914  0.93624930  1
  O  O312  1  0.71031404  0.02169828  0.27325830  1
  O  O313  1  0.70653336  0.02228566  0.60545428  1
  O  O314  1  0.70145423  0.03108360  0.93681491  1
  O  O315  1  0.70376620  0.53620166  0.27320245  1
  O  O316  1  0.70185377  0.54244028  0.60721556  1
  O  O317  1  0.68382566  0.53783762  0.93483346  1
  O  O318  1  0.09822466  0.10468610  0.05268134  1
  O  O319  1  0.07762032  0.08866988  0.36964413  1
  O  O320  1  0.08002218  0.09592148  0.70937191  1
  O  O321  1  0.08766233  0.58490713  0.02795979  1
  O  O322  1  0.08423658  0.58462299  0.36604378  1
  O  O323  1  0.08081131  0.58200832  0.70278333  1
  O  O324  1  0.59145345  0.08327597  0.03183908  1
  O  O325  1  0.58982935  0.08899676  0.38367820  1
  O  O326  1  0.58561740  0.08447355  0.70955016  1
  O  O327  1  0.58780350  0.58600393  0.04032869  1
  O  O328  1  0.58746435  0.59358404  0.37775651  1
  O  O329  1  0.58998401  0.59642605  0.70831188  1
  O  O330  1  0.40947609  0.41759058  0.11116996  1
  O  O331  1  0.40866327  0.40163626  0.46715854  1
  O  O332  1  0.41230331  0.41507411  0.79332851  1
  O  O333  1  0.41112198  0.91069390  0.13567225  1
  O  O334  1  0.41188421  0.92101639  0.46708376  1
  O  O335  1  0.42073510  0.91916786  0.81489389  1
  O  O336  1  0.91245637  0.41223027  0.13189599  1
  O  O337  1  0.91604177  0.41881907  0.46174722  1
  O  O338  1  0.91039785  0.41433747  0.78846518  1
  O  O339  1  0.90442190  0.91201222  0.11472330  1
  O  O340  1  0.91108460  0.91303094  0.45849529  1
  O  O341  1  0.90581622  0.91022674  0.78849411  1
  O  O342  1  0.41721178  0.41296340  0.32003141  1
  O  O343  1  0.41273607  0.41260873  0.63660445  1
  O  O344  1  0.42389981  0.41607538  0.95653184  1
  O  O345  1  0.40961075  0.91083274  0.29796321  1
  O  O346  1  0.41229834  0.91720470  0.62981009  1
  O  O347  1  0.39918572  0.90470459  0.96124969  1
  O  O348  1  0.91592571  0.41539018  0.29785778  1
  O  O349  1  0.91725223  0.41821633  0.62949443  1
  O  O350  1  0.90532890  0.39330924  0.94205560  1
  O  O351  1  0.91714323  0.91425606  0.29917583  1
  O  O352  1  0.90760725  0.90243714  0.62168548  1
  O  O353  1  0.91394493  0.90970196  0.95315211  1
  O  O354  1  0.08384049  0.08275129  0.21206298  1
  O  O355  1  0.08748943  0.09203986  0.53543930  1
  O  O356  1  0.09999853  0.09470718  0.88048026  1
  O  O357  1  0.08935077  0.59649963  0.19905654  1
  O  O358  1  0.08733102  0.58124637  0.53593457  1
  O  O359  1  0.08965199  0.58803894  0.86853232  1
  O  O360  1  0.60422733  0.08889432  0.22127953  1
  O  O361  1  0.58713163  0.06423643  0.53958697  1
  O  O362  1  0.58879251  0.08290462  0.86720691  1
  O  O363  1  0.58951301  0.58525379  0.20405996  1
  O  O364  1  0.58778083  0.59058679  0.53581678  1
  O  O365  1  0.57614249  0.58435720  0.85726498  1
  O  O366  1  0.14153501  0.23759808  0.06416835  1
  O  O367  1  0.13712919  0.22121072  0.39324918  1
  O  O368  1  0.13447561  0.22864092  0.72779911  1
  O  O369  1  0.14257075  0.71858429  0.05023803  1
  O  O370  1  0.14101081  0.71925978  0.39308964  1
  O  O371  1  0.13509818  0.71482496  0.72018012  1
  O  O372  1  0.64701155  0.20632976  0.02899094  1
  O  O373  1  0.62433002  0.21798220  0.37900831  1
  O  O374  1  0.63716893  0.21649372  0.72197566  1
  O  O375  1  0.63759298  0.72122980  0.06060320  1
  O  O376  1  0.63757022  0.72664653  0.39513612  1
  O  O377  1  0.64210125  0.73036644  0.73204864  1
  O  O378  1  0.28034220  0.36252469  0.10172850  1
  O  O379  1  0.27239101  0.35767550  0.44602506  1
  O  O380  1  0.27941402  0.35803206  0.77121414  1
  O  O381  1  0.27681667  0.85595673  0.11019140  1
  O  O382  1  0.27757315  0.86456223  0.44034008  1
  O  O383  1  0.28432210  0.85929343  0.77769743  1
  O  O384  1  0.78073200  0.35909586  0.11527759  1
  O  O385  1  0.78177810  0.36383495  0.43884601  1
  O  O386  1  0.77778583  0.36724720  0.77533448  1
  O  O387  1  0.77303150  0.86896109  0.11129642  1
  O  O388  1  0.77879368  0.85960255  0.44118406  1
  O  O389  1  0.77263027  0.86222893  0.77253303  1
  O  O390  1  0.34614127  0.28246064  0.28857687  1
  O  O391  1  0.36070783  0.27752606  0.60740302  1
  O  O392  1  0.36511125  0.28728368  0.94296317  1
  O  O393  1  0.36195757  0.77492878  0.27783070  1
  O  O394  1  0.36410565  0.78105560  0.60868252  1
  O  O395  1  0.35546086  0.76855503  0.93823502  1
  O  O396  1  0.86545503  0.28474788  0.29037592  1
  O  O397  1  0.86228060  0.28620761  0.61451077  1
  O  O398  1  0.86664803  0.26230805  0.93686522  1
  O  O399  1  0.86326667  0.77938999  0.27469344  1
  O  O400  1  0.86098815  0.76864619  0.60382067  1
  O  O401  1  0.86818818  0.77734946  0.94128432  1
  O  O402  1  0.21468667  0.13230382  0.22207416  1
  O  O403  1  0.22114426  0.14157952  0.55402332  1
  O  O404  1  0.23361815  0.13812374  0.89542405  1
  O  O405  1  0.22694348  0.64346124  0.22722307  1
  O  O406  1  0.22240684  0.63549756  0.55903376  1
  O  O407  1  0.22485239  0.63563845  0.88858136  1
  O  O408  1  0.73647980  0.13171186  0.23281505  1
  O  O409  1  0.71594084  0.13240733  0.56063733  1
  O  O410  1  0.72256411  0.13816642  0.89048249  1
  O  O411  1  0.72243291  0.64068061  0.22438342  1
  O  O412  1  0.72078644  0.64510452  0.55616358  1
  O  O413  1  0.71187357  0.63949143  0.88483499  1
  O  O414  1  0.50289345  0.33608463  0.02140453  1
  O  O415  1  0.48228097  0.31437477  0.36860043  1
  O  O416  1  0.49345943  0.32877171  0.69353226  1
  O  O417  1  0.48380754  0.82903144  0.02996400  1
  O  O418  1  0.49065290  0.83466519  0.36654714  1
  O  O419  1  0.49094021  0.84182557  0.70097863  1
  O  O420  1  0.99038839  0.33348161  0.02810422  1
  O  O421  1  0.99868707  0.34101500  0.36605256  1
  O  O422  1  0.99492663  0.34088555  0.69840373  1
  O  O423  1  1.00094628  0.83926485  0.02398833  1
  O  O424  1  0.99296665  0.83423375  0.36636653  1
  O  O425  1  0.98922471  0.82766041  0.69398390  1
  O  O426  1  0.15399537  -0.00020804  0.13716348  1
  O  O427  1  0.16208913  0.01126611  0.46550114  1
  O  O428  1  0.16918704  0.01166524  0.80334468  1
  O  O429  1  0.17087668  0.51395570  0.13838707  1
  O  O430  1  0.16750262  0.50584785  0.46892068  1
  O  O431  1  0.16645059  0.50578681  0.80211205  1
  O  O432  1  0.67115093  0.00667540  0.14033050  1
  O  O433  1  0.67252075  0.00163292  0.47090869  1
  O  O434  1  0.67092611  0.00653043  0.80349513  1
  O  O435  1  0.66915330  0.50771176  0.13814971  1
  O  O436  1  0.67070713  0.51184125  0.47302731  1
  O  O437  1  0.66219442  0.50655782  0.80049369  1
  O  O438  1  0.00603118  0.17361702  0.30438137  1
  O  O439  1  0.00455676  0.17630089  0.63847945  1
  O  O440  1  0.01516482  0.17264956  0.97364783  1
  O  O441  1  0.01080084  0.66816751  0.30053769  1
  O  O442  1  0.00501771  0.65933135  0.63231127  1
  O  O443  1  0.00835501  0.66763666  0.96757228  1
  O  O444  1  0.49396132  0.14329516  0.30334117  1
  O  O445  1  0.50325662  0.15786520  0.64041739  1
  O  O446  1  0.50902461  0.15860901  0.96578221  1
  O  O447  1  0.50889019  0.66884088  0.30503428  1
  O  O448  1  0.51204500  0.67671597  0.64161547  1
  O  O449  1  0.50862428  0.66314509  0.97129703  1
  O  O450  1  0.33872148  0.49153328  0.19060227  1
  O  O451  1  0.33346298  0.48661073  0.53593546  1
  O  O452  1  0.33089320  0.48863389  0.86164290  1
  O  O453  1  0.32589107  0.99028348  0.19248932  1
  O  O454  1  0.32863303  0.99452653  0.53211245  1
  O  O455  1  0.33039309  0.98984474  0.87000954  1
  O  O456  1  0.83505881  0.49235514  0.19863881  1
  O  O457  1  0.83661694  0.49364402  0.53003209  1
  O  O458  1  0.83902603  0.50027533  0.85984272  1
  O  O459  1  0.84043167  0.99550757  0.19639848  1
  O  O460  1  0.83396000  0.99031374  0.52961166  1
  O  O461  1  0.83170988  0.99013594  0.86236663  1
