# generated using pymatgen
data_Na31Fe20(SO4)36
_symmetry_space_group_name_H-M   'P 1'
_cell_length_a   18.08357429
_cell_length_b   18.08852211
_cell_length_c   19.73036578
_cell_angle_alpha   107.60097470
_cell_angle_beta   107.55437791
_cell_angle_gamma   90.77017374
_symmetry_Int_Tables_number   1
_chemical_formula_structural   Na31Fe20(SO4)36
_chemical_formula_sum   'Na62 Fe40 S72 O288'
_cell_volume   5826.27422179
_cell_formula_units_Z   2
loop_
 _symmetry_equiv_pos_site_id
 _symmetry_equiv_pos_as_xyz
  1  'x, y, z'
loop_
 _atom_site_type_symbol
 _atom_site_label
 _atom_site_symmetry_multiplicity
 _atom_site_fract_x
 _atom_site_fract_y
 _atom_site_fract_z
 _atom_site_occupancy
  Na  Na0  1  0.13250021  0.34507558  0.06126227  1
  Na  Na1  1  0.13347091  0.38006470  0.41830809  1
  Na  Na2  1  0.13389245  0.36948839  0.75467790  1
  Na  Na3  1  0.14385197  0.87508647  0.09765360  1
  Na  Na4  1  0.11867988  0.86790962  0.41403651  1
  Na  Na5  1  0.12743673  0.86862480  0.74942406  1
  Na  Na6  1  0.64414375  0.36024684  0.08915708  1
  Na  Na7  1  0.63280544  0.36599274  0.41762164  1
  Na  Na8  1  0.63676668  0.36359584  0.75485972  1
  Na  Na9  1  0.63056112  0.86210170  0.07587074  1
  Na  Na10  1  0.63768050  0.86985350  0.42334820  1
  Na  Na11  1  0.63453574  0.85657657  0.74924337  1
  Na  Na12  1  0.35851298  0.12772025  0.24458052  1
  Na  Na13  1  0.36803473  0.13100719  0.58633589  1
  Na  Na14  1  0.36100112  0.13574261  0.92148895  1
  Na  Na15  1  0.36467833  0.63986652  0.25460977  1
  Na  Na16  1  0.37221442  0.63785489  0.59447485  1
  Na  Na17  1  0.35983629  0.62697939  0.90267177  1
  Na  Na18  1  0.86633587  0.13569747  0.24776704  1
  Na  Na19  1  0.87147357  0.12446186  0.58339002  1
  Na  Na20  1  0.86870580  0.13884342  0.91531593  1
  Na  Na21  1  0.87299932  0.63910081  0.26254942  1
  Na  Na22  1  0.87395466  0.64578336  0.59152353  1
  Na  Na23  1  0.86324045  0.63965487  0.91878532  1
  Na  Na24  1  0.50933742  -0.02401880  0.76004434  1
  Na  Na25  1  0.99030098  0.50960402  0.08644301  1
  Na  Na26  1  0.48951772  0.50512565  0.08397596  1
  Na  Na27  1  0.47646632  0.50735021  0.44046337  1
  Na  Na28  1  1.02453419  0.61671020  0.48236467  1
  Na  Na29  1  0.49877714  0.52076051  0.73311789  1
  Na  Na30  1  0.45511565  0.00824268  0.40255481  1
  Na  Na31  1  0.99134536  0.01346860  0.07915655  1
  Na  Na32  1  1.07829255  0.51010226  0.63932222  1
  Na  Na33  1  0.51267486  0.49540919  0.91152996  1
  Na  Na34  1  0.50346702  0.99180912  0.23822033  1
  Na  Na35  1  -0.02748756  1.02786561  0.76849035  1
  Na  Na36  1  0.01210703  0.48647487  0.89993513  1
  Na  Na37  1  -0.01058660  0.92689183  0.55368466  1
  Na  Na38  1  0.03538904  0.49381155  0.27280292  1
  Na  Na39  1  0.49982679  0.96386187  0.92516418  1
  Na  Na40  1  0.50169701  0.49104583  0.25932870  1
  Na  Na41  1  0.51428668  0.98738504  0.58354533  1
  Na  Na42  1  0.75967027  0.25987787  0.32051045  1
  Na  Na43  1  0.24699335  0.74406604  0.67638805  1
  Na  Na44  1  0.75605092  0.25406473  -0.00468052  1
  Na  Na45  1  0.76310365  0.76316149  0.32477828  1
  Na  Na46  1  0.73841732  0.23584470  0.67957690  1
  Na  Na47  1  0.25339481  0.75263158  0.00103193  1
  Na  Na48  1  0.75482113  0.75852313  0.66436687  1
  Na  Na49  1  0.24429083  0.24847826  0.33553433  1
  Na  Na50  1  0.24157860  0.24036582  0.67504697  1
  Na  Na51  1  0.23853558  0.74442170  0.34278799  1
  Na  Na52  1  0.74759147  0.24810714  0.50250461  1
  Na  Na53  1  0.22733119  0.23659436  0.85263419  1
  Na  Na54  1  0.23751417  0.72988901  0.82995804  1
  Na  Na55  1  0.25128423  0.25317790  0.15822419  1
  Na  Na56  1  0.78529571  0.78297723  0.50144119  1
  Na  Na57  1  0.76126479  0.76190028  0.15029922  1
  Na  Na58  1  0.22520067  0.72254856  0.50387089  1
  Na  Na59  1  0.74246780  0.74618706  0.84452539  1
  Na  Na60  1  0.25372515  0.75609599  0.17055496  1
  Na  Na61  1  0.24407020  0.23896592  0.50298252  1
  Fe  Fe62  1  0.46593911  0.31039648  0.45675675  1
  Fe  Fe63  1  0.46555780  0.30258691  0.78617778  1
  Fe  Fe64  1  0.96723692  0.30688999  0.11662412  1
  Fe  Fe65  1  0.46425839  0.80387547  0.11846128  1
  Fe  Fe66  1  0.96927428  0.30817817  0.45448422  1
  Fe  Fe67  1  0.46193545  0.30660184  0.11754213  1
  Fe  Fe68  1  0.46432461  0.80760086  0.44975815  1
  Fe  Fe69  1  0.96107585  0.81446207  0.12160513  1
  Fe  Fe70  1  0.96448994  0.81369221  0.79366024  1
  Fe  Fe71  1  0.96612363  0.29581684  0.78579099  1
  Fe  Fe72  1  0.69114943  0.03991192  0.05040613  1
  Fe  Fe73  1  0.69528092  0.53539471  0.05099951  1
  Fe  Fe74  1  0.69018839  0.03692142  0.38002858  1
  Fe  Fe75  1  0.69141523  0.53121072  0.38326162  1
  Fe  Fe76  1  0.69973599  0.03182367  0.71210138  1
  Fe  Fe77  1  0.18581635  0.03782507  0.04229720  1
  Fe  Fe78  1  0.19765432  0.02905345  0.37348675  1
  Fe  Fe79  1  0.19232036  0.02882056  0.71328442  1
  Fe  Fe80  1  0.69486037  0.53302080  0.71331000  1
  Fe  Fe81  1  0.19271458  0.53448426  0.04691889  1
  Fe  Fe82  1  0.03742644  0.68810639  0.87923167  1
  Fe  Fe83  1  0.53494521  0.19035177  0.88196176  1
  Fe  Fe84  1  0.53506444  0.69584727  0.54997695  1
  Fe  Fe85  1  0.53344240  0.69967665  0.87932164  1
  Fe  Fe86  1  0.03331401  0.69499276  0.21349863  1
  Fe  Fe87  1  0.03557311  0.18344211  0.53895263  1
  Fe  Fe88  1  0.03486129  0.19477946  0.21342531  1
  Fe  Fe89  1  0.53126807  0.19376220  0.54765451  1
  Fe  Fe90  1  0.53511075  0.18957944  0.21009893  1
  Fe  Fe91  1  0.53931966  0.69077073  0.21764029  1
  Fe  Fe92  1  0.81143863  0.46455733  0.29073948  1
  Fe  Fe93  1  0.80470726  0.46488490  0.94970117  1
  Fe  Fe94  1  0.31210522  0.96283966  0.62103236  1
  Fe  Fe95  1  0.29915879  0.47053921  0.29135774  1
  Fe  Fe96  1  0.81142794  0.96759906  0.28750389  1
  Fe  Fe97  1  0.81562217  0.46380589  0.62381708  1
  Fe  Fe98  1  0.80516043  0.96648649  0.95535141  1
  Fe  Fe99  1  0.30500144  0.46368792  0.62481120  1
  Fe  Fe100  1  0.30421465  0.46392952  0.94851430  1
  Fe  Fe101  1  0.30683548  0.96306955  0.95341353  1
  S  S102  1  0.36030316  0.14019320  0.08417863  1
  S  S103  1  0.35881461  0.14633027  0.41590948  1
  S  S104  1  0.35906656  0.13894710  0.75154159  1
  S  S105  1  0.36262194  0.63548252  0.08552801  1
  S  S106  1  0.36110206  0.64203495  0.41622739  1
  S  S107  1  0.36635478  0.63406334  0.74978675  1
  S  S108  1  0.85804127  0.14284831  0.08427596  1
  S  S109  1  0.85682609  0.14468902  0.41468113  1
  S  S110  1  0.85339450  0.14128351  0.74636903  1
  S  S111  1  0.85917730  0.63915906  0.08018587  1
  S  S112  1  0.84737186  0.64070523  0.41732792  1
  S  S113  1  0.85943071  0.64194755  0.75367351  1
  S  S114  1  0.14092955  0.35856318  0.24748230  1
  S  S115  1  0.14497996  0.34976724  0.58157612  1
  S  S116  1  0.13704575  0.36110045  0.91399077  1
  S  S117  1  0.13987200  0.85877561  0.24800537  1
  S  S118  1  0.14977879  0.85664197  0.58300759  1
  S  S119  1  0.14154596  0.85888187  0.92123377  1
  S  S120  1  0.63705870  0.36064238  0.24987913  1
  S  S121  1  0.64151193  0.35858359  0.58588606  1
  S  S122  1  0.63918290  0.36102252  0.91869827  1
  S  S123  1  0.63979113  0.85918407  0.24706966  1
  S  S124  1  0.63870752  0.86086108  0.58226766  1
  S  S125  1  0.63793556  0.86509597  0.91843600  1
  S  S126  1  0.06127043  0.16767810  0.04169923  1
  S  S127  1  0.07213158  0.17342089  0.37604986  1
  S  S128  1  0.06996850  0.16901003  0.70611344  1
  S  S129  1  0.06736821  0.66747204  0.04234096  1
  S  S130  1  0.06350835  0.67475771  0.37386962  1
  S  S131  1  0.06580275  0.67924534  0.72232951  1
  S  S132  1  0.56643335  0.17105108  0.04107449  1
  S  S133  1  0.56426413  0.17222935  0.37445018  1
  S  S134  1  0.56625474  0.16805250  0.70989597  1
  S  S135  1  0.56583719  0.66581595  0.04203312  1
  S  S136  1  0.56902350  0.66863951  0.37645059  1
  S  S137  1  0.57494668  0.66720396  0.70876033  1
  S  S138  1  0.33110612  0.43310027  0.12699317  1
  S  S139  1  0.33044707  0.43045841  0.46148080  1
  S  S140  1  0.33517752  0.42653080  0.79116737  1
  S  S141  1  0.33358398  0.93222167  0.12391271  1
  S  S142  1  0.33424360  0.93551784  0.45799788  1
  S  S143  1  0.33564228  0.93641518  0.79401443  1
  S  S144  1  0.83295507  0.43595363  0.12649189  1
  S  S145  1  0.82625243  0.42688812  0.45745439  1
  S  S146  1  0.82893368  0.43011851  0.78854501  1
  S  S147  1  0.82647923  0.93661578  0.12277144  1
  S  S148  1  0.82413809  0.93850904  0.44865308  1
  S  S149  1  0.82601733  0.93237582  0.79598532  1
  S  S150  1  0.43073913  0.33561215  0.29343231  1
  S  S151  1  0.43141059  0.32801417  0.62654701  1
  S  S152  1  0.43224684  0.33165737  0.95742143  1
  S  S153  1  0.44195245  0.83044885  0.28881204  1
  S  S154  1  0.43682274  0.83056679  0.62340512  1
  S  S155  1  0.42724738  0.82139309  0.95583966  1
  S  S156  1  0.93435270  0.33136051  0.29103140  1
  S  S157  1  0.93386768  0.32226776  0.62108871  1
  S  S158  1  0.93021147  0.33719241  0.95990601  1
  S  S159  1  0.92791694  0.82602038  0.28315280  1
  S  S160  1  0.93248233  0.84120325  0.63792840  1
  S  S161  1  0.93175015  0.83160043  0.95971110  1
  S  S162  1  0.16941348  0.07162904  0.20805743  1
  S  S163  1  0.17784053  0.06620396  0.54132829  1
  S  S164  1  0.16954160  0.06165579  0.87600313  1
  S  S165  1  0.17040435  0.56732615  0.20649179  1
  S  S166  1  0.17894185  0.56293533  0.55593803  1
  S  S167  1  0.17112332  0.56534158  0.87935868  1
  S  S168  1  0.66814677  0.06777689  0.21089283  1
  S  S169  1  0.65377596  0.06719256  0.53536111  1
  S  S170  1  0.66939838  0.06746580  0.87603811  1
  S  S171  1  0.66777247  0.56363117  0.20931369  1
  S  S172  1  0.67078660  0.56739031  0.54543639  1
  S  S173  1  0.66794866  0.56695907  0.87500796  1
  O  O174  1  0.36933936  0.21916636  0.07606059  1
  O  O175  1  0.36786761  0.22803698  0.41316044  1
  O  O176  1  0.37000455  0.21641105  0.74032786  1
  O  O177  1  0.36993505  0.71446114  0.07754214  1
  O  O178  1  0.37564995  0.71694308  0.40059860  1
  O  O179  1  0.37600657  0.70484234  0.73125399  1
  O  O180  1  0.86891880  0.22148672  0.07616264  1
  O  O181  1  0.86777633  0.22466597  0.40855644  1
  O  O182  1  0.86450019  0.22343413  0.74298498  1
  O  O183  1  0.86931744  0.71790492  0.07379599  1
  O  O184  1  0.85127845  0.71702359  0.40632780  1
  O  O185  1  0.86736837  0.72250111  0.74842338  1
  O  O186  1  0.28185869  0.12948919  0.09265564  1
  O  O187  1  0.27773706  0.13449700  0.41823883  1
  O  O188  1  0.27909013  0.13203092  0.75728661  1
  O  O189  1  0.28554573  0.62748413  0.09730700  1
  O  O190  1  0.28443807  0.63932923  0.42511994  1
  O  O191  1  0.29334068  0.62592610  0.76600874  1
  O  O192  1  0.77925972  0.13378566  0.09133828  1
  O  O193  1  0.77750187  0.13667185  0.42270952  1
  O  O194  1  0.76967114  0.13365639  0.74623795  1
  O  O195  1  0.78058629  0.63043915  0.08982134  1
  O  O196  1  0.76727313  0.62626100  0.42316177  1
  O  O197  1  0.78160927  0.63097944  0.76419410  1
  O  O198  1  0.13381336  0.27767990  0.25218475  1
  O  O199  1  0.13812564  0.26615145  0.57889683  1
  O  O200  1  0.13235772  0.28507234  0.92369191  1
  O  O201  1  0.12947380  0.77891345  0.25571694  1
  O  O202  1  0.14284041  0.77659428  0.58561866  1
  O  O203  1  0.13066313  0.77959958  0.92896285  1
  O  O204  1  0.62687867  0.28229717  0.25884973  1
  O  O205  1  0.62978771  0.27877048  0.59217705  1
  O  O206  1  0.62938975  0.28251061  0.92685825  1
  O  O207  1  0.63253681  0.78028300  0.25631950  1
  O  O208  1  0.62758918  0.78287491  0.59310401  1
  O  O209  1  0.62570339  0.78715114  0.92751109  1
  O  O210  1  0.22139082  0.36978264  0.24201676  1
  O  O211  1  0.22599405  0.36340308  0.57643431  1
  O  O212  1  0.21394956  0.37497890  0.90145080  1
  O  O213  1  0.21427652  0.86740259  0.23484419  1
  O  O214  1  0.23070978  0.87010627  0.57735643  1
  O  O215  1  0.21931098  0.86318157  0.90925839  1
  O  O216  1  0.71662057  0.37102017  0.24499901  1
  O  O217  1  0.72098452  0.36739004  0.57919637  1
  O  O218  1  0.71715056  0.37105719  0.91035416  1
  O  O219  1  0.71869442  0.86879066  0.23959704  1
  O  O220  1  0.71249938  0.86803679  0.56858064  1
  O  O221  1  0.71954002  0.87105485  0.91504476  1
  O  O222  1  0.41963513  0.13640126  0.15436639  1
  O  O223  1  0.41419949  0.13935623  0.48724829  1
  O  O224  1  0.41679401  0.13465782  0.82167238  1
  O  O225  1  0.42379796  0.62588670  0.15163079  1
  O  O226  1  0.42246731  0.63407636  0.48398783  1
  O  O227  1  0.43195077  0.62603938  0.81560923  1
  O  O228  1  0.91720220  0.13430539  0.15214142  1
  O  O229  1  0.91556696  0.13582876  0.48186171  1
  O  O230  1  0.90630888  0.13297315  0.81561195  1
  O  O231  1  0.91896470  0.62625962  0.14522075  1
  O  O232  1  0.90470377  0.63541703  0.48570742  1
  O  O233  1  0.91970757  0.63265782  0.82013086  1
  O  O234  1  0.36986038  0.08080227  0.01792510  1
  O  O235  1  0.37321486  0.09084802  0.35136283  1
  O  O236  1  0.36930383  0.07829034  0.68560853  1
  O  O237  1  0.36966586  0.57647771  0.01675826  1
  O  O238  1  0.36869196  0.57825748  0.34971460  1
  O  O239  1  0.37361611  0.56564336  0.68380792  1
  O  O240  1  0.86720003  0.08288991  0.01700793  1
  O  O241  1  0.86251264  0.08732172  0.34516004  1
  O  O242  1  0.86383660  0.08547156  0.67981839  1
  O  O243  1  0.86421062  0.58022295  0.01025908  1
  O  O244  1  0.85780231  0.57990016  0.34984175  1
  O  O245  1  0.86342549  0.58481309  0.68314760  1
  O  O246  1  0.08357196  0.36548464  0.17740726  1
  O  O247  1  0.08752981  0.36230895  0.51507285  1
  O  O248  1  0.07473047  0.36906542  0.84687181  1
  O  O249  1  0.07593606  0.86730740  0.18276508  1
  O  O250  1  0.09218812  0.87185452  0.52007502  1
  O  O251  1  0.08141272  0.87064488  0.85649854  1
  O  O252  1  0.57853747  0.36793202  0.18097378  1
  O  O253  1  0.58347044  0.36553081  0.51679804  1
  O  O254  1  0.57876045  0.36966469  0.85138367  1
  O  O255  1  0.58068532  0.86468931  0.17764664  1
  O  O256  1  0.57386455  0.87060052  0.51763602  1
  O  O257  1  0.58267274  0.87593952  0.85150632  1
  O  O258  1  0.13007110  0.41518232  0.31329286  1
  O  O259  1  0.13640746  0.40076816  0.65115858  1
  O  O260  1  0.12930734  0.42317842  0.98120337  1
  O  O261  1  0.13617173  0.91653125  0.31876188  1
  O  O262  1  0.14329743  0.91282681  0.65483556  1
  O  O263  1  0.13930672  0.91702369  0.99200685  1
  O  O264  1  0.62522133  0.42028496  0.31648454  1
  O  O265  1  0.63317719  0.41650802  0.65393149  1
  O  O266  1  0.63108542  0.42093708  0.98682863  1
  O  O267  1  0.62785897  0.91864440  0.31269591  1
  O  O268  1  0.63297505  0.92057169  0.65209361  1
  O  O269  1  0.62931204  0.92514739  0.98694388  1
  O  O270  1  0.02783141  0.20116100  0.10665995  1
  O  O271  1  0.02973055  0.20027869  0.43350319  1
  O  O272  1  0.02874929  0.19526313  0.76193240  1
  O  O273  1  0.03179770  0.69739734  0.10315631  1
  O  O274  1  0.02341407  0.70937128  0.42739623  1
  O  O275  1  0.02646115  0.71715716  0.78300032  1
  O  O276  1  0.53180317  0.20257233  0.10380775  1
  O  O277  1  0.52752253  0.20061879  0.43543491  1
  O  O278  1  0.52987885  0.19793348  0.77164098  1
  O  O279  1  0.52935543  0.69470174  0.10312439  1
  O  O280  1  0.53537333  0.70070029  0.43873795  1
  O  O281  1  0.54701016  0.69386554  0.77363613  1
  O  O282  1  0.30027435  0.46515135  0.06310413  1
  O  O283  1  0.31172931  0.47080270  0.40487077  1
  O  O284  1  0.30975478  0.45605948  0.72666912  1
  O  O285  1  0.30270931  0.96401975  0.05947557  1
  O  O286  1  0.30662383  0.97516017  0.40092145  1
  O  O287  1  0.30039758  0.97380975  0.73402774  1
  O  O288  1  0.80206917  0.47312117  0.06562949  1
  O  O289  1  0.79582199  0.46392448  0.39665377  1
  O  O290  1  0.80166218  0.46922464  0.72852255  1
  O  O291  1  0.79424349  0.97492447  0.06299929  1
  O  O292  1  0.78794429  0.97540201  0.38621633  1
  O  O293  1  0.79889778  0.96858598  0.73656966  1
  O  O294  1  0.46718877  0.30859159  0.23246333  1
  O  O295  1  0.46937606  0.30198642  0.56655391  1
  O  O296  1  0.46991855  0.30010070  0.89777362  1
  O  O297  1  0.47477988  0.78950818  0.22617442  1
  O  O298  1  0.46541744  0.79668895  0.55628210  1
  O  O299  1  0.46194641  0.79407283  0.89508633  1
  O  O300  1  0.97196836  0.30188299  0.23045256  1
  O  O301  1  0.97580825  0.29575871  0.56335782  1
  O  O302  1  0.96256534  0.31342489  0.89801082  1
  O  O303  1  0.96250211  0.79328849  0.21914099  1
  O  O304  1  0.95985928  0.81020103  0.57353786  1
  O  O305  1  0.96890456  0.80448406  0.89897833  1
  O  O306  1  0.19184660  0.03637250  0.26806081  1
  O  O307  1  0.20505604  0.02925794  0.60224396  1
  O  O308  1  0.20382007  0.02521803  0.93845529  1
  O  O309  1  0.19845679  0.53176143  0.26635904  1
  O  O310  1  0.21385839  0.51948854  0.61200254  1
  O  O311  1  0.20727707  0.53569186  0.94613563  1
  O  O312  1  0.69910731  0.02975628  0.27032444  1
  O  O313  1  0.67281012  0.03267822  0.59604532  1
  O  O314  1  0.69807554  0.03143424  0.93742661  1
  O  O315  1  0.69688304  0.52729812  0.26946492  1
  O  O316  1  0.69867292  0.52859519  0.60474229  1
  O  O317  1  0.69803474  0.53054812  0.93626563  1
  O  O318  1  0.07895859  0.08612869  0.04079823  1
  O  O319  1  0.09928348  0.09753036  0.37698375  1
  O  O320  1  0.09470434  0.09029366  0.70478369  1
  O  O321  1  0.08018703  0.58350121  0.03426907  1
  O  O322  1  0.08376242  0.59647848  0.37706659  1
  O  O323  1  0.09793713  0.61186232  0.74221127  1
  O  O324  1  0.58332367  0.08941135  0.03587608  1
  O  O325  1  0.58083248  0.08957740  0.36624083  1
  O  O326  1  0.58547438  0.08731577  0.70591895  1
  O  O327  1  0.58305849  0.58288625  0.03746190  1
  O  O328  1  0.58518940  0.58642807  0.37241301  1
  O  O329  1  0.59060431  0.58339228  0.69750397  1
  O  O330  1  0.41527602  0.41865767  0.13270307  1
  O  O331  1  0.41398184  0.41288503  0.47421109  1
  O  O332  1  0.41908757  0.41030431  0.80330188  1
  O  O333  1  0.41326859  0.90722575  0.12515616  1
  O  O334  1  0.41740325  0.91816384  0.46099009  1
  O  O335  1  0.41765974  0.92803077  0.79859210  1
  O  O336  1  0.91598042  0.42161893  0.13270577  1
  O  O337  1  0.90499834  0.40519485  0.45877904  1
  O  O338  1  0.90825645  0.40765540  0.79264797  1
  O  O339  1  0.90648701  0.91883142  0.12229751  1
  O  O340  1  0.89948726  0.91648919  0.44186834  1
  O  O341  1  0.90728888  0.91141989  0.80179872  1
  O  O342  1  0.41359728  0.41857314  0.30148605  1
  O  O343  1  0.40907140  0.40873292  0.63233179  1
  O  O344  1  0.41664247  0.41440027  0.96151531  1
  O  O345  1  0.43709167  0.91184998  0.29062389  1
  O  O346  1  0.41994856  0.91327670  0.62614328  1
  O  O347  1  0.40821566  0.90278210  0.96170520  1
  O  O348  1  0.91630076  0.41247106  0.29385917  1
  O  O349  1  0.91274789  0.40213927  0.62387206  1
  O  O350  1  0.91220266  0.42134508  0.97108990  1
  O  O351  1  0.90134214  0.90204249  0.27729825  1
  O  O352  1  0.92725017  0.92569455  0.65388554  1
  O  O353  1  0.91221466  0.91291893  0.96730353  1
  O  O354  1  0.08654247  0.09001983  0.19454861  1
  O  O355  1  0.09764089  0.08632717  0.53524469  1
  O  O356  1  0.08969697  0.07524080  0.87163882  1
  O  O357  1  0.08788928  0.58456897  0.19933723  1
  O  O358  1  0.10828458  0.58879904  0.57434435  1
  O  O359  1  0.09142705  0.58471631  0.88250095  1
  O  O360  1  0.58689173  0.08515738  0.20953503  1
  O  O361  1  0.56845582  0.08270403  0.51959407  1
  O  O362  1  0.58651149  0.08423916  0.87014290  1
  O  O363  1  0.58433410  0.57917645  0.20361590  1
  O  O364  1  0.58964005  0.58791649  0.53878533  1
  O  O365  1  0.58552502  0.58275148  0.86991938  1
  O  O366  1  0.13503891  0.21652565  0.05941526  1
  O  O367  1  0.13821777  0.23332581  0.39368648  1
  O  O368  1  0.13968106  0.22598733  0.72541068  1
  O  O369  1  0.14160756  0.71551035  0.05935419  1
  O  O370  1  0.13528713  0.72630082  0.38622323  1
  O  O371  1  0.13049888  0.73731723  0.73197210  1
  O  O372  1  0.63607234  0.22213765  0.05336536  1
  O  O373  1  0.63614335  0.22400469  0.39254508  1
  O  O374  1  0.63377910  0.22284227  0.72416853  1
  O  O375  1  0.63696146  0.71687604  0.05831804  1
  O  O376  1  0.63826395  0.71955227  0.38700032  1
  O  O377  1  0.64675532  0.71691062  0.72072340  1
  O  O378  1  0.28327541  0.36130675  0.11440201  1
  O  O379  1  0.27649797  0.35922623  0.43964412  1
  O  O380  1  0.28436813  0.35634391  0.77886429  1
  O  O381  1  0.27999918  0.86200519  0.11017779  1
  O  O382  1  0.28459807  0.86329467  0.44161521  1
  O  O383  1  0.28833568  0.86241810  0.77798162  1
  O  O384  1  0.78291326  0.36315238  0.10788082  1
  O  O385  1  0.77076861  0.35740393  0.44076223  1
  O  O386  1  0.77183881  0.36334392  0.77192335  1
  O  O387  1  0.77441483  0.86612238  0.10699756  1
  O  O388  1  0.76841524  0.86802851  0.43101614  1
  O  O389  1  0.77340655  0.86146991  0.78124472  1
  O  O390  1  0.35982635  0.28318595  0.27658044  1
  O  O391  1  0.36267253  0.27316640  0.61033071  1
  O  O392  1  0.36071781  0.28191979  0.94222707  1
  O  O393  1  0.36642900  0.78621716  0.27437844  1
  O  O394  1  0.36613270  0.78132749  0.61231360  1
  O  O395  1  0.35636207  0.76912325  0.94220149  1
  O  O396  1  0.86384480  0.27904167  0.27490526  1
  O  O397  1  0.86349055  0.26694656  0.60025574  1
  O  O398  1  0.86078587  0.28621867  0.94894535  1
  O  O399  1  0.85810115  0.76982266  0.26603172  1
  O  O400  1  0.85718735  0.79498870  0.62547378  1
  O  O401  1  0.86216010  0.77743891  0.94218307  1
  O  O402  1  0.22293047  0.14305747  0.22620703  1
  O  O403  1  0.23288558  0.13733489  0.56119003  1
  O  O404  1  0.22274289  0.13217528  0.89268942  1
  O  O405  1  0.22152408  0.63980400  0.22246907  1
  O  O406  1  0.23583088  0.63154153  0.57189316  1
  O  O407  1  0.22185613  0.63739496  0.89382617  1
  O  O408  1  0.71909433  0.13913549  0.22676087  1
  O  O409  1  0.70505072  0.13983539  0.55418829  1
  O  O410  1  0.72062810  0.13845579  0.89229172  1
  O  O411  1  0.71703248  0.63536085  0.22326551  1
  O  O412  1  0.72502762  0.63689553  0.56274943  1
  O  O413  1  0.71851051  0.63775374  0.88975292  1
  O  O414  1  0.49142155  0.33651147  0.03124605  1
  O  O415  1  0.49012994  0.33760384  0.36620340  1
  O  O416  1  0.49214059  0.33213475  0.69879178  1
  O  O417  1  0.48795465  0.82340968  0.02802343  1
  O  O418  1  0.49839164  0.82790823  0.36128664  1
  O  O419  1  0.50088816  0.83735017  0.69211895  1
  O  O420  1  0.99299349  0.34018872  0.03189109  1
  O  O421  1  0.99334959  0.33438914  0.36391819  1
  O  O422  1  0.98960130  0.32500511  0.69496340  1
  O  O423  1  0.99178210  0.83334005  0.03187472  1
  O  O424  1  0.98771907  0.83360102  0.35308752  1
  O  O425  1  0.99117487  0.83033356  0.70795375  1
  O  O426  1  0.17265651  0.01309116  0.13677700  1
  O  O427  1  0.17831449  0.00899726  0.46918128  1
  O  O428  1  0.17198128  0.00234754  0.80443796  1
  O  O429  1  0.16795114  0.50843283  0.13299586  1
  O  O430  1  0.16114071  0.51006359  0.47953995  1
  O  O431  1  0.16675296  0.50353862  0.81099659  1
  O  O432  1  0.66399672  0.00991202  0.13731743  1
  O  O433  1  0.65844818  0.00903750  0.46470935  1
  O  O434  1  0.66550357  0.00777184  0.80310064  1
  O  O435  1  0.66425511  0.50432733  0.13593101  1
  O  O436  1  0.66676329  0.50672273  0.47263118  1
  O  O437  1  0.66487200  0.50641158  0.80232845  1
  O  O438  1  0.01296326  0.16718897  0.30210072  1
  O  O439  1  0.01468631  0.16219149  0.62990801  1
  O  O440  1  0.00196879  0.16717943  0.97329798  1
  O  O441  1  0.00807844  0.66321113  0.29445455  1
  O  O442  1  0.00563064  0.65849042  0.64926272  1
  O  O443  1  0.00933120  0.66914620  0.97066397  1
  O  O444  1  0.50582156  0.17259206  0.30259615  1
  O  O445  1  0.50516041  0.16345301  0.63701024  1
  O  O446  1  0.50405682  0.16833789  0.96975079  1
  O  O447  1  0.50684568  0.66203650  0.30340051  1
  O  O448  1  0.51257722  0.66892994  0.63931386  1
  O  O449  1  0.50709808  0.66159611  0.96890408  1
  O  O450  1  0.33449158  0.49447832  0.19877394  1
  O  O451  1  0.32745630  0.48541701  0.53500200  1
  O  O452  1  0.33503623  0.48978977  0.86090140  1
  O  O453  1  0.34237746  0.99390392  0.19430658  1
  O  O454  1  0.34132415  0.99208422  0.53388517  1
  O  O455  1  0.33533385  0.99264705  0.86821815  1
  O  O456  1  0.83205641  0.49350787  0.19865353  1
  O  O457  1  0.83022111  0.48633207  0.53018669  1
  O  O458  1  0.83329839  0.49120390  0.86121588  1
  O  O459  1  0.83050856  0.99587522  0.19563781  1
  O  O460  1  0.82895344  0.99585609  0.52041089  1
  O  O461  1  0.83003609  0.99188005  0.86934820  1
