# generated using pymatgen
data_Na31Fe20(SO4)36
_symmetry_space_group_name_H-M   'P 1'
_cell_length_a   18.06154932
_cell_length_b   18.06855987
_cell_length_c   19.67979782
_cell_angle_alpha   107.60246691
_cell_angle_beta   107.57928174
_cell_angle_gamma   90.68207133
_symmetry_Int_Tables_number   1
_chemical_formula_structural   Na31Fe20(SO4)36
_chemical_formula_sum   'Na62 Fe40 S72 O288'
_cell_volume   5798.04013624
_cell_formula_units_Z   2
loop_
 _symmetry_equiv_pos_site_id
 _symmetry_equiv_pos_as_xyz
  1  'x, y, z'
loop_
 _atom_site_type_symbol
 _atom_site_label
 _atom_site_symmetry_multiplicity
 _atom_site_fract_x
 _atom_site_fract_y
 _atom_site_fract_z
 _atom_site_occupancy
  Na  Na0  1  0.13391792  0.36566637  0.08439033  1
  Na  Na1  1  0.14493066  0.36552911  0.42074589  1
  Na  Na2  1  0.13190172  0.36661345  0.74616569  1
  Na  Na3  1  0.12423272  0.86325733  0.07487235  1
  Na  Na4  1  0.13777859  0.86257491  0.41346073  1
  Na  Na5  1  0.13195304  0.86492003  0.75226738  1
  Na  Na6  1  0.63477387  0.36659926  0.08567891  1
  Na  Na7  1  0.65167161  0.34401835  0.42250317  1
  Na  Na8  1  0.61003553  0.35805108  0.73259502  1
  Na  Na9  1  0.63864672  0.86235913  0.08606969  1
  Na  Na10  1  0.63841605  0.87136667  0.42759187  1
  Na  Na11  1  0.63768116  0.86937014  0.75683025  1
  Na  Na12  1  0.36496532  0.13600205  0.26358652  1
  Na  Na13  1  0.39091725  0.16943956  0.60840871  1
  Na  Na14  1  0.36822141  0.13321749  0.91237708  1
  Na  Na15  1  0.36903187  0.63615378  0.25908401  1
  Na  Na16  1  0.35989535  0.62485050  0.57044311  1
  Na  Na17  1  0.36857804  0.62764656  0.91781562  1
  Na  Na18  1  0.86476297  0.13801575  0.25589613  1
  Na  Na19  1  0.86492213  0.13586093  0.58089450  1
  Na  Na20  1  0.85454117  0.13178752  0.91109948  1
  Na  Na21  1  0.86258998  0.63349299  0.24808204  1
  Na  Na22  1  0.85574776  0.63229598  0.57017069  1
  Na  Na23  1  0.86599850  0.63724455  0.91587604  1
  Na  Na24  1  0.49753656  0.02609850  0.71948282  1
  Na  Na25  1  0.99039592  0.53873255  0.75856292  1
  Na  Na26  1  0.49727515  0.02090232  0.08354253  1
  Na  Na27  1  0.54326291  0.47682242  0.38348227  1
  Na  Na28  1  0.98937895  0.50628807  0.10139468  1
  Na  Na29  1  0.99158655  0.00671722  0.41462833  1
  Na  Na30  1  0.50076031  0.50450146  0.07945242  1
  Na  Na31  1  0.96042337  0.00311796  0.75231978  1
  Na  Na32  1  1.03520898  0.48399988  0.36867402  1
  Na  Na33  1  0.50382718  0.98988103  0.26384012  1
  Na  Na34  1  0.00782444  0.99520860  0.23429076  1
  Na  Na35  1  0.50055985  0.44384630  0.56797383  1
  Na  Na36  1  0.52569122  0.99588035  0.90287319  1
  Na  Na37  1  -0.01081150  0.99870379  0.59096758  1
  Na  Na38  1  -0.03868091  1.01364622  0.97426903  1
  Na  Na39  1  0.48311261  1.04134946  0.51346210  1
  Na  Na40  1  -0.00433501  0.51131542  0.92114827  1
  Na  Na41  1  0.00792219  0.50017773  0.57852637  1
  Na  Na42  1  0.75655564  0.75448453  0.32228901  1
  Na  Na43  1  0.74309960  0.24624080  0.00477981  1
  Na  Na44  1  0.24811337  0.74593702  0.66303579  1
  Na  Na45  1  0.74844231  0.75154044  0.00511312  1
  Na  Na46  1  0.23579905  0.73917122  0.00855087  1
  Na  Na47  1  0.25919953  0.26318162  0.66156031  1
  Na  Na48  1  0.26355586  0.26234879  0.32650956  1
  Na  Na49  1  0.75743668  0.76259407  0.66111566  1
  Na  Na50  1  0.74500999  0.25320470  0.64960514  1
  Na  Na51  1  0.25864086  0.25518612  -0.00661712  1
  Na  Na52  1  0.23780706  0.73978793  0.18212558  1
  Na  Na53  1  0.25953124  0.26021909  0.16383730  1
  Na  Na54  1  0.27472694  0.26157203  0.48711469  1
  Na  Na55  1  0.23676660  0.74427738  0.84274866  1
  Na  Na56  1  0.26577153  0.26083488  0.82513099  1
  Na  Na57  1  0.75503838  0.75370411  0.49255118  1
  Na  Na58  1  0.75989397  0.76208764  0.83276940  1
  Na  Na59  1  0.25214982  0.75047007  0.48786812  1
  Na  Na60  1  0.73888859  0.24152800  0.18045070  1
  Na  Na61  1  0.74824142  0.25435378  0.82602351  1
  Fe  Fe62  1  0.46859891  0.30826500  0.12618851  1
  Fe  Fe63  1  0.46300104  0.80596198  0.78500237  1
  Fe  Fe64  1  0.96393499  0.31284001  0.12373893  1
  Fe  Fe65  1  0.46557568  0.80668438  0.11868169  1
  Fe  Fe66  1  0.46474646  0.80804765  0.45225768  1
  Fe  Fe67  1  0.96070568  0.30706180  0.45041821  1
  Fe  Fe68  1  0.96191547  0.80371430  0.11568761  1
  Fe  Fe69  1  0.96810631  0.80212604  0.79290319  1
  Fe  Fe70  1  0.96533878  0.80606876  0.45048451  1
  Fe  Fe71  1  0.96506500  0.31027287  0.78537537  1
  Fe  Fe72  1  0.68701955  0.53570256  0.04454156  1
  Fe  Fe73  1  0.70076931  0.03078282  0.04305826  1
  Fe  Fe74  1  0.19213452  0.53564133  0.71742619  1
  Fe  Fe75  1  0.19289259  0.03696581  0.04944108  1
  Fe  Fe76  1  0.19253735  0.53424024  0.05101427  1
  Fe  Fe77  1  0.70663317  0.02547399  0.70562824  1
  Fe  Fe78  1  0.19145507  0.03192842  0.38234237  1
  Fe  Fe79  1  0.19174661  0.03379822  0.71573424  1
  Fe  Fe80  1  0.69946654  0.03397406  0.38582066  1
  Fe  Fe81  1  0.68959212  0.53716521  0.71219106  1
  Fe  Fe82  1  0.53631672  0.68589888  0.54347732  1
  Fe  Fe83  1  0.03455835  0.19444174  0.88297394  1
  Fe  Fe84  1  0.53368783  0.19941619  0.87043843  1
  Fe  Fe85  1  0.03579702  0.19596823  0.55038733  1
  Fe  Fe86  1  0.03543225  0.68949462  0.54435447  1
  Fe  Fe87  1  0.53683660  0.69302372  0.21818592  1
  Fe  Fe88  1  0.54376881  0.19620441  0.23863616  1
  Fe  Fe89  1  0.03712039  0.69256371  0.21940924  1
  Fe  Fe90  1  0.53363349  0.68648549  0.87793011  1
  Fe  Fe91  1  0.03322867  0.19197339  0.21369733  1
  Fe  Fe92  1  0.80557329  0.46643229  0.61389849  1
  Fe  Fe93  1  0.30952821  0.46810394  0.62459513  1
  Fe  Fe94  1  0.30419302  0.46950566  0.29561077  1
  Fe  Fe95  1  0.80436987  0.46476059  0.95246223  1
  Fe  Fe96  1  0.30844708  0.46310179  0.95389433  1
  Fe  Fe97  1  0.80785761  0.96250362  0.28226765  1
  Fe  Fe98  1  0.30609970  0.96878989  0.95270098  1
  Fe  Fe99  1  0.30740874  0.96258839  0.28802101  1
  Fe  Fe100  1  0.79977477  0.46946799  0.29046340  1
  Fe  Fe101  1  0.30356926  0.96605855  0.61567331  1
  S  S102  1  0.36168105  0.14068569  0.08536994  1
  S  S103  1  0.35457397  0.13501082  0.41802459  1
  S  S104  1  0.35723935  0.13867508  0.74788729  1
  S  S105  1  0.36065011  0.64077090  0.08436574  1
  S  S106  1  0.36252665  0.64219284  0.41688606  1
  S  S107  1  0.35573151  0.64518367  0.75302963  1
  S  S108  1  0.86087949  0.14589790  0.08405777  1
  S  S109  1  0.86501461  0.13703653  0.41682988  1
  S  S110  1  0.86399124  0.14324250  0.75159726  1
  S  S111  1  0.85890652  0.63639048  0.08397127  1
  S  S112  1  0.85986202  0.64049947  0.41533077  1
  S  S113  1  0.85657180  0.63997048  0.74925680  1
  S  S114  1  0.13723574  0.35643954  0.25059561  1
  S  S115  1  0.13591558  0.36198906  0.58259199  1
  S  S116  1  0.14084016  0.35756636  0.91783523  1
  S  S117  1  0.13730897  0.86184185  0.24779064  1
  S  S118  1  0.13898021  0.86072715  0.58388339  1
  S  S119  1  0.14261131  0.86342081  0.91804837  1
  S  S120  1  0.63850977  0.35568499  0.24870610  1
  S  S121  1  0.64362845  0.36427588  0.58546269  1
  S  S122  1  0.64310050  0.35975090  0.91613182  1
  S  S123  1  0.64026136  0.86069108  0.25041328  1
  S  S124  1  0.63644798  0.85606135  0.58563550  1
  S  S125  1  0.63583796  0.85820960  0.91689546  1
  S  S126  1  0.06847853  0.17251911  0.04528127  1
  S  S127  1  0.06879120  0.16802540  0.37681653  1
  S  S128  1  0.06799018  0.17036532  0.71201360  1
  S  S129  1  0.06300236  0.66636109  0.04570683  1
  S  S130  1  0.06797858  0.67491669  0.37856674  1
  S  S131  1  0.06421816  0.66888139  0.70776599  1
  S  S132  1  0.56672379  0.16775028  0.03574599  1
  S  S133  1  0.56345615  0.15664572  0.36854095  1
  S  S134  1  0.57806983  0.15994843  0.70332481  1
  S  S135  1  0.56573188  0.67108922  0.04270229  1
  S  S136  1  0.56965288  0.67409285  0.37866227  1
  S  S137  1  0.56663262  0.67349951  0.71178897  1
  S  S138  1  0.32727406  0.43151106  0.12493741  1
  S  S139  1  0.32857013  0.43614877  0.45462336  1
  S  S140  1  0.32554894  0.43287535  0.79138791  1
  S  S141  1  0.33047832  0.93315669  0.12442547  1
  S  S142  1  0.32666754  0.92857753  0.45786446  1
  S  S143  1  0.32874355  0.93247498  0.79026996  1
  S  S144  1  0.82651472  0.43359195  0.12487599  1
  S  S145  1  0.83783919  0.43261405  0.45982134  1
  S  S146  1  0.83396993  0.43542787  0.79286491  1
  S  S147  1  0.83030971  0.93445171  0.12441258  1
  S  S148  1  0.83869203  0.93482117  0.45739460  1
  S  S149  1  0.83423718  0.93365919  0.79493945  1
  S  S150  1  0.43324372  0.32639492  0.29073080  1
  S  S151  1  0.42246315  0.33661103  0.62328605  1
  S  S152  1  0.43327685  0.32660778  0.95996792  1
  S  S153  1  0.43287623  0.82990972  0.28858075  1
  S  S154  1  0.42656175  0.83120218  0.62489308  1
  S  S155  1  0.42955523  0.83445881  0.95917019  1
  S  S156  1  0.93048402  0.32928086  0.28943667  1
  S  S157  1  0.93359535  0.33322809  0.62729862  1
  S  S158  1  0.93411381  0.33295700  0.95834477  1
  S  S159  1  0.93563248  0.83080782  0.29025598  1
  S  S160  1  0.93923234  0.82815134  0.62547828  1
  S  S161  1  0.92855281  0.82567267  0.95817522  1
  S  S162  1  0.16864584  0.06726950  0.20950542  1
  S  S163  1  0.16437861  0.06729129  0.54410023  1
  S  S164  1  0.16803399  0.06997563  0.87571252  1
  S  S165  1  0.17088261  0.56404932  0.20765583  1
  S  S166  1  0.16764849  0.56317297  0.54453765  1
  S  S167  1  0.16638323  0.56042148  0.87919802  1
  S  S168  1  0.67367487  0.06607977  0.20694468  1
  S  S169  1  0.68295002  0.06251408  0.54719004  1
  S  S170  1  0.66861970  0.06772598  0.87006357  1
  S  S171  1  0.66793725  0.56663443  0.20761605  1
  S  S172  1  0.67200493  0.56723359  0.54298383  1
  S  S173  1  0.67282512  0.56991635  0.87835601  1
  O  O174  1  0.36767359  0.22071819  0.07889848  1
  O  O175  1  0.35559341  0.20664125  0.39799933  1
  O  O176  1  0.36086515  0.21572351  0.73870365  1
  O  O177  1  0.36972296  0.71794578  0.07215840  1
  O  O178  1  0.37573106  0.71868623  0.40429166  1
  O  O179  1  0.36392454  0.72559187  0.74707218  1
  O  O180  1  0.86895598  0.22809641  0.08105019  1
  O  O181  1  0.87545920  0.21332743  0.40529577  1
  O  O182  1  0.86835924  0.22533964  0.74944215  1
  O  O183  1  0.86802693  0.71483647  0.07521897  1
  O  O184  1  0.87082857  0.71976002  0.40533284  1
  O  O185  1  0.86577499  0.71983921  0.74223829  1
  O  O186  1  0.28323426  0.13017416  0.09511373  1
  O  O187  1  0.27368603  0.12189633  0.42472596  1
  O  O188  1  0.28061535  0.12488807  0.76073401  1
  O  O189  1  0.27912106  0.63271457  0.08740141  1
  O  O190  1  0.28765799  0.63657236  0.42924297  1
  O  O191  1  0.27731783  0.63630681  0.76335525  1
  O  O192  1  0.77947883  0.13442626  0.08719502  1
  O  O193  1  0.78768960  0.12733196  0.42545565  1
  O  O194  1  0.78339851  0.12761627  0.75619125  1
  O  O195  1  0.78019267  0.62632677  0.09039051  1
  O  O196  1  0.78544960  0.63404632  0.42870107  1
  O  O197  1  0.77615000  0.63237084  0.75577529  1
  O  O198  1  0.13009368  0.27426685  0.25436561  1
  O  O199  1  0.12862466  0.28525763  0.59691956  1
  O  O200  1  0.13025866  0.27989234  0.92895376  1
  O  O201  1  0.13055712  0.78323653  0.25550873  1
  O  O202  1  0.13178181  0.78142565  0.59143236  1
  O  O203  1  0.14112694  0.78702880  0.92897951  1
  O  O204  1  0.63036793  0.26935488  0.23692657  1
  O  O205  1  0.62849324  0.28993702  0.59600933  1
  O  O206  1  0.63271701  0.28114140  0.92663818  1
  O  O207  1  0.63085486  0.78133556  0.25716660  1
  O  O208  1  0.61826289  0.78210728  0.60045045  1
  O  O209  1  0.62059134  0.78092968  0.92723660  1
  O  O210  1  0.21825655  0.36703961  0.24617064  1
  O  O211  1  0.21436538  0.37154882  0.57507181  1
  O  O212  1  0.22185415  0.36355866  0.91346847  1
  O  O213  1  0.21554181  0.87220158  0.23803820  1
  O  O214  1  0.21766018  0.87064313  0.57512562  1
  O  O215  1  0.21942663  0.87828406  0.90512930  1
  O  O216  1  0.71763304  0.37055444  0.24170832  1
  O  O217  1  0.72808483  0.37303829  0.58749521  1
  O  O218  1  0.72759509  0.36652242  0.91681536  1
  O  O219  1  0.71862443  0.86977220  0.24220886  1
  O  O220  1  0.71142293  0.85280786  0.57155136  1
  O  O221  1  0.71150513  0.86268178  0.90598055  1
  O  O222  1  0.42334247  0.12920151  0.14913260  1
  O  O223  1  0.41144231  0.13756475  0.48951701  1
  O  O224  1  0.41984481  0.13129377  0.81441693  1
  O  O225  1  0.41665033  0.63671508  0.15543963  1
  O  O226  1  0.42487569  0.63542976  0.48490998  1
  O  O227  1  0.41531589  0.63742609  0.82072536  1
  O  O228  1  0.91649364  0.13852797  0.15483769  1
  O  O229  1  0.92587071  0.13066483  0.48601123  1
  O  O230  1  0.92006263  0.13711100  0.82339870  1
  O  O231  1  0.91888167  0.62843098  0.15213250  1
  O  O232  1  0.92357409  0.63181955  0.48079495  1
  O  O233  1  0.91410576  0.62883988  0.81496266  1
  O  O234  1  0.36626530  0.08336395  0.01377952  1
  O  O235  1  0.36628188  0.06913076  0.35469117  1
  O  O236  1  0.36517438  0.07830013  0.67951212  1
  O  O237  1  0.37313197  0.57876258  0.02013511  1
  O  O238  1  0.36934504  0.58006219  0.34953148  1
  O  O239  1  0.36135431  0.58890129  0.68336149  1
  O  O240  1  0.87259525  0.09174915  0.01741514  1
  O  O241  1  0.87574713  0.07488643  0.35102747  1
  O  O242  1  0.88027503  0.08843426  0.68769718  1
  O  O243  1  0.86989556  0.57665838  0.01679364  1
  O  O244  1  0.86457072  0.58160170  0.34525846  1
  O  O245  1  0.86499424  0.58232036  0.67950364  1
  O  O246  1  0.08153268  0.36255354  0.17915392  1
  O  O247  1  0.07673656  0.36382508  0.51191082  1
  O  O248  1  0.08495985  0.36261301  0.84700420  1
  O  O249  1  0.07700792  0.87162093  0.18113507  1
  O  O250  1  0.07956547  0.87085295  0.51733623  1
  O  O251  1  0.08084643  0.86776189  0.84998941  1
  O  O252  1  0.57987884  0.37186865  0.18363105  1
  O  O253  1  0.59293497  0.37590071  0.51660520  1
  O  O254  1  0.59108859  0.36511563  0.84660261  1
  O  O255  1  0.58013714  0.87022434  0.18299295  1
  O  O256  1  0.57508619  0.87017752  0.52221108  1
  O  O257  1  0.57373011  0.86946833  0.85040268  1
  O  O258  1  0.12393415  0.41103018  0.31595728  1
  O  O259  1  0.12327555  0.42359843  0.64706777  1
  O  O260  1  0.12985566  0.41846857  0.98297960  1
  O  O261  1  0.12876828  0.92091841  0.31631651  1
  O  O262  1  0.13191461  0.91891998  0.65338013  1
  O  O263  1  0.13540653  0.92459244  0.98585461  1
  O  O264  1  0.63026924  0.40085734  0.32034632  1
  O  O265  1  0.63230449  0.42787702  0.65241952  1
  O  O266  1  0.63430536  0.41877758  0.98448714  1
  O  O267  1  0.63181535  0.91922474  0.31887772  1
  O  O268  1  0.63952263  0.91985347  0.65725458  1
  O  O269  1  0.62989334  0.91999927  0.98525977  1
  O  O270  1  0.03040248  0.20121118  0.10476958  1
  O  O271  1  0.03550289  0.19903626  0.43976137  1
  O  O272  1  0.03131917  0.20136672  0.77275178  1
  O  O273  1  0.03167135  0.69962872  0.11089710  1
  O  O274  1  0.03088334  0.70925961  0.44000806  1
  O  O275  1  0.02974015  0.69835908  0.76837639  1
  O  O276  1  0.52389663  0.19461294  0.09059411  1
  O  O277  1  0.53952818  0.18967862  0.43284873  1
  O  O278  1  0.54336999  0.18209022  0.76544282  1
  O  O279  1  0.53045011  0.70315860  0.10514833  1
  O  O280  1  0.53589047  0.71114226  0.44181131  1
  O  O281  1  0.52619723  0.70209806  0.77126729  1
  O  O282  1  0.29648394  0.47020992  0.06463754  1
  O  O283  1  0.29064980  0.47259373  0.39660100  1
  O  O284  1  0.29115934  0.47298879  0.73193465  1
  O  O285  1  0.30150403  0.97023300  0.06352277  1
  O  O286  1  0.29044092  0.95759320  0.39247986  1
  O  O287  1  0.29837615  0.96688041  0.72789419  1
  O  O288  1  0.79719256  0.47104097  0.06463219  1
  O  O289  1  0.81174350  0.46477744  0.39765038  1
  O  O290  1  0.80557259  0.47336257  0.73394312  1
  O  O291  1  0.80260587  0.97298898  0.06685243  1
  O  O292  1  0.80295676  0.96420561  0.39136376  1
  O  O293  1  0.80380964  0.96919842  0.73249634  1
  O  O294  1  0.46857451  0.29271144  0.22687429  1
  O  O295  1  0.43934929  0.32145303  0.55245215  1
  O  O296  1  0.46907058  0.29912806  0.90060544  1
  O  O297  1  0.47146856  0.79948438  0.22851639  1
  O  O298  1  0.45821577  0.80208253  0.56159254  1
  O  O299  1  0.46233663  0.80439050  0.89634411  1
  O  O300  1  0.97035905  0.30051708  0.23025752  1
  O  O301  1  0.96714383  0.30030447  0.56412032  1
  O  O302  1  0.97257171  0.30555021  0.89847519  1
  O  O303  1  0.96845837  0.79733091  0.22676454  1
  O  O304  1  0.97357164  0.79306770  0.56264733  1
  O  O305  1  0.96423295  0.80172326  0.89725784  1
  O  O306  1  0.19907049  0.03090800  0.27032984  1
  O  O307  1  0.19634803  0.03135089  0.60548121  1
  O  O308  1  0.19968743  0.03855112  0.94004093  1
  O  O309  1  0.20059688  0.52918033  0.26725969  1
  O  O310  1  0.20251282  0.53319189  0.61065586  1
  O  O311  1  0.20501308  0.52472248  0.94008184  1
  O  O312  1  0.70329297  0.02929866  0.26789994  1
  O  O313  1  0.71000275  0.02225881  0.60633334  1
  O  O314  1  0.68660041  0.03303541  0.93136263  1
  O  O315  1  0.69522975  0.52868429  0.26544239  1
  O  O316  1  0.70590511  0.53546484  0.60806033  1
  O  O317  1  0.70226770  0.53070084  0.93825447  1
  O  O318  1  0.08688547  0.09108063  0.04006285  1
  O  O319  1  0.08192552  0.08402382  0.36950824  1
  O  O320  1  0.08319539  0.08751689  0.70587430  1
  O  O321  1  0.08605693  0.58621063  0.04608827  1
  O  O322  1  0.08917722  0.59852624  0.38042181  1
  O  O323  1  0.08327766  0.58649782  0.70523522  1
  O  O324  1  0.58513398  0.08537964  0.03185556  1
  O  O325  1  0.59654083  0.07968363  0.36695743  1
  O  O326  1  0.61214055  0.08292891  0.70398860  1
  O  O327  1  0.58087893  0.58922058  0.03940968  1
  O  O328  1  0.58532483  0.59553323  0.37743754  1
  O  O329  1  0.58669761  0.59394647  0.70935003  1
  O  O330  1  0.40715871  0.41250516  0.12596718  1
  O  O331  1  0.40883468  0.42496404  0.45608021  1
  O  O332  1  0.40188534  0.41207268  0.79271211  1
  O  O333  1  0.41348178  0.91727676  0.13091960  1
  O  O334  1  0.40806643  0.91289740  0.45995422  1
  O  O335  1  0.41103183  0.91573737  0.79738696  1
  O  O336  1  0.90871805  0.41712222  0.12828535  1
  O  O337  1  0.92200979  0.41509308  0.46999037  1
  O  O338  1  0.91785217  0.42005995  0.79977176  1
  O  O339  1  0.91095637  0.91189951  0.12971250  1
  O  O340  1  0.91933565  0.91356131  0.45456976  1
  O  O341  1  0.91037634  0.90505797  0.78832684  1
  O  O342  1  0.40749000  0.40386358  0.28802217  1
  O  O343  1  0.41100140  0.42299121  0.64987508  1
  O  O344  1  0.41215630  0.40829939  0.96778632  1
  O  O345  1  0.41353800  0.91019891  0.28880440  1
  O  O346  1  0.40880760  0.91393478  0.63308912  1
  O  O347  1  0.41469378  0.91819050  0.96729411  1
  O  O348  1  0.90976212  0.40920950  0.29248944  1
  O  O349  1  0.91865020  0.41575595  0.63250732  1
  O  O350  1  0.91722845  0.41569705  0.96555418  1
  O  O351  1  0.91996529  0.91320758  0.29338342  1
  O  O352  1  0.93278623  0.91110259  0.63227808  1
  O  O353  1  0.90648416  0.90442217  0.97046221  1
  O  O354  1  0.08725308  0.08526490  0.20671928  1
  O  O355  1  0.08104532  0.08158191  0.53930200  1
  O  O356  1  0.08599521  0.08704551  0.86868790  1
  O  O357  1  0.09082850  0.58812480  0.20509513  1
  O  O358  1  0.08877526  0.58730793  0.54801864  1
  O  O359  1  0.08548767  0.56974874  0.87829017  1
  O  O360  1  0.59197836  0.08501313  0.20195668  1
  O  O361  1  0.60399071  0.08174548  0.53885949  1
  O  O362  1  0.58309495  0.07927277  0.84980623  1
  O  O363  1  0.58594967  0.58760332  0.20100411  1
  O  O364  1  0.59061416  0.58462683  0.54159089  1
  O  O365  1  0.59339454  0.59007982  0.87675280  1
  O  O366  1  0.13972970  0.22449599  0.06116025  1
  O  O367  1  0.14086306  0.21681554  0.39037627  1
  O  O368  1  0.14018578  0.22025671  0.72762513  1
  O  O369  1  0.13327514  0.71914628  0.05896291  1
  O  O370  1  0.13516503  0.73022324  0.39113260  1
  O  O371  1  0.13646781  0.71908034  0.72138496  1
  O  O372  1  0.63933433  0.22047187  0.05719486  1
  O  O373  1  0.61950542  0.20951245  0.35596811  1
  O  O374  1  0.64118582  0.22012485  0.71614428  1
  O  O375  1  0.63708021  0.72056131  0.05627171  1
  O  O376  1  0.63976630  0.72663369  0.39048293  1
  O  O377  1  0.63694033  0.72857812  0.73169535  1
  O  O378  1  0.27373655  0.35915780  0.10486426  1
  O  O379  1  0.27909295  0.36129772  0.43783162  1
  O  O380  1  0.26705343  0.36424477  0.77400395  1
  O  O381  1  0.27942087  0.86117782  0.10720272  1
  O  O382  1  0.27839339  0.85887372  0.45037930  1
  O  O383  1  0.27707193  0.86148963  0.77542073  1
  O  O384  1  0.77593764  0.36106412  0.10748057  1
  O  O385  1  0.78880216  0.36308615  0.45026626  1
  O  O386  1  0.78400577  0.36325518  0.77687978  1
  O  O387  1  0.77656112  0.86524971  0.11031779  1
  O  O388  1  0.78868072  0.86438366  0.44709807  1
  O  O389  1  0.77770304  0.86641925  0.78153502  1
  O  O390  1  0.36356080  0.27034156  0.27339945  1
  O  O391  1  0.34644219  0.28885981  0.60854402  1
  O  O392  1  0.36157260  0.27328876  0.94363988  1
  O  O393  1  0.36211183  0.77778662  0.27160028  1
  O  O394  1  0.35527421  0.78006343  0.61175852  1
  O  O395  1  0.35750745  0.78503425  0.94593307  1
  O  O396  1  0.86236518  0.27411600  0.27320457  1
  O  O397  1  0.86435494  0.28284975  0.61676991  1
  O  O398  1  0.86293386  0.28010332  0.93964282  1
  O  O399  1  0.86495343  0.78203525  0.27927222  1
  O  O400  1  0.86326242  0.78184040  0.60684095  1
  O  O401  1  0.85977632  0.76874740  0.94185584  1
  O  O402  1  0.21997034  0.13828085  0.22376358  1
  O  O403  1  0.21260626  0.13953718  0.55886258  1
  O  O404  1  0.21930564  0.14049360  0.88788466  1
  O  O405  1  0.22413144  0.63101053  0.21542293  1
  O  O406  1  0.21935471  0.63248307  0.55458170  1
  O  O407  1  0.21416219  0.63480204  0.89511164  1
  O  O408  1  0.72693917  0.13507511  0.22176148  1
  O  O409  1  0.73847690  0.13213176  0.56751083  1
  O  O410  1  0.71844482  0.14241500  0.89187667  1
  O  O411  1  0.72094118  0.63646062  0.22196935  1
  O  O412  1  0.72127720  0.64093752  0.55876848  1
  O  O413  1  0.72687248  0.64089476  0.89726069  1
  O  O414  1  0.49121840  0.33022954  0.03446745  1
  O  O415  1  0.49487259  0.33349107  0.36062724  1
  O  O416  1  0.48318794  0.31803844  0.68192988  1
  O  O417  1  0.49063634  0.83538987  0.03079876  1
  O  O418  1  0.49126501  0.83551076  0.36228030  1
  O  O419  1  0.48806687  0.83336549  0.69654392  1
  O  O420  1  0.99201571  0.33458844  0.03155323  1
  O  O421  1  0.99133239  0.33397185  0.36262244  1
  O  O422  1  0.99628932  0.33580522  0.69904909  1
  O  O423  1  0.99042436  0.82155158  0.02892175  1
  O  O424  1  0.99806364  0.83562824  0.36203289  1
  O  O425  1  0.99457280  0.82252290  0.69717299  1
  O  O426  1  0.16553685  0.00786710  0.13658713  1
  O  O427  1  0.16128791  0.00681971  0.47151512  1
  O  O428  1  0.16693938  0.00750882  0.80509415  1
  O  O429  1  0.15985822  0.50173407  0.13230732  1
  O  O430  1  0.15548842  0.49960736  0.47436717  1
  O  O431  1  0.16493911  0.50502527  0.80450822  1
  O  O432  1  0.66839823  0.00619539  0.13310877  1
  O  O433  1  0.68668442  0.00345380  0.47558263  1
  O  O434  1  0.68197969  0.01061495  0.80251281  1
  O  O435  1  0.66072443  0.50778140  0.13148178  1
  O  O436  1  0.66966413  0.50657607  0.47367969  1
  O  O437  1  0.67128384  0.51222099  0.80594599  1
  O  O438  1  0.00798279  0.16662933  0.30504750  1
  O  O439  1  0.00876022  0.16887255  0.63940248  1
  O  O440  1  0.00901995  0.16960264  0.97227145  1
  O  O441  1  0.00623725  0.67007148  0.30519906  1
  O  O442  1  0.00544009  0.66158441  0.63317231  1
  O  O443  1  0.00098302  0.65592713  0.97501909  1
  O  O444  1  0.49501261  0.13387464  0.29388409  1
  O  O445  1  0.51451169  0.14269336  0.63208059  1
  O  O446  1  0.51369636  0.16320428  0.95899881  1
  O  O447  1  0.50847523  0.67352496  0.30649955  1
  O  O448  1  0.50867188  0.67124561  0.63895003  1
  O  O449  1  0.50491543  0.66926372  0.97079915  1
  O  O450  1  0.32755184  0.48779582  0.19742397  1
  O  O451  1  0.32793850  0.48952375  0.53037214  1
  O  O452  1  0.32591648  0.49147044  0.86520269  1
  O  O453  1  0.33121308  0.99185458  0.19677421  1
  O  O454  1  0.33116431  0.99353312  0.52809128  1
  O  O455  1  0.33027543  0.99354746  0.86200871  1
  O  O456  1  0.82756133  0.49077931  0.19754218  1
  O  O457  1  0.84260230  0.49623868  0.53227763  1
  O  O458  1  0.83777360  0.49355766  0.86737052  1
  O  O459  1  0.83770243  0.99391974  0.20025044  1
  O  O460  1  0.85168369  0.99767260  0.52823050  1
  O  O461  1  0.84941007  0.99506309  0.86755256  1
