# generated using pymatgen
data_Na31Fe20(SO4)36
_symmetry_space_group_name_H-M   'P 1'
_cell_length_a   18.08016782
_cell_length_b   18.08043542
_cell_length_c   19.72140029
_cell_angle_alpha   107.61491571
_cell_angle_beta   107.56194707
_cell_angle_gamma   90.74968759
_symmetry_Int_Tables_number   1
_chemical_formula_structural   Na31Fe20(SO4)36
_chemical_formula_sum   'Na62 Fe40 S72 O288'
_cell_volume   5819.41095616
_cell_formula_units_Z   2
loop_
 _symmetry_equiv_pos_site_id
 _symmetry_equiv_pos_as_xyz
  1  'x, y, z'
loop_
 _atom_site_type_symbol
 _atom_site_label
 _atom_site_symmetry_multiplicity
 _atom_site_fract_x
 _atom_site_fract_y
 _atom_site_fract_z
 _atom_site_occupancy
  Na  Na0  1  0.13950982  0.37504673  0.09029333  1
  Na  Na1  1  0.12804003  0.36581747  0.41133893  1
  Na  Na2  1  0.14711572  0.36410303  0.74591067  1
  Na  Na3  1  0.12884892  0.86340494  0.08418380  1
  Na  Na4  1  0.12309115  0.86524860  0.40799761  1
  Na  Na5  1  0.13576337  0.86290844  0.74925685  1
  Na  Na6  1  0.63616976  0.37348082  0.09619714  1
  Na  Na7  1  0.64991682  0.34654070  0.40971307  1
  Na  Na8  1  0.63586858  0.36740193  0.75199597  1
  Na  Na9  1  0.63119754  0.86315652  0.08861001  1
  Na  Na10  1  0.63180754  0.86272176  0.40993731  1
  Na  Na11  1  0.63500482  0.86670355  0.74924790  1
  Na  Na12  1  0.35889279  0.13553182  0.24265389  1
  Na  Na13  1  0.35960825  0.13959215  0.58580444  1
  Na  Na14  1  0.36554097  0.13799575  0.91565498  1
  Na  Na15  1  0.37091850  0.62561077  0.24155253  1
  Na  Na16  1  0.36893011  0.63239033  0.58611602  1
  Na  Na17  1  0.37380846  0.64154039  0.92847308  1
  Na  Na18  1  0.86280122  0.12776914  0.25210414  1
  Na  Na19  1  0.85914395  0.13454297  0.57604566  1
  Na  Na20  1  0.86389707  0.14079896  0.92153580  1
  Na  Na21  1  0.87653316  0.62335884  0.24880980  1
  Na  Na22  1  0.86683629  0.63545093  0.58096774  1
  Na  Na23  1  0.87827593  0.64718537  0.93583228  1
  Na  Na24  1  0.99306901  0.01591797  0.74027276  1
  Na  Na25  1  0.94690959  0.00413854  0.40658685  1
  Na  Na26  1  0.98434988  -0.07639915  0.20987895  1
  Na  Na27  1  0.47475719  0.50326088  0.76192065  1
  Na  Na28  1  1.02549478  0.59844761  0.13805743  1
  Na  Na29  1  0.50187778  -0.00760916  0.08092349  1
  Na  Na30  1  0.48790181  0.00873727  0.41234076  1
  Na  Na31  1  0.48843646  0.03884094  0.75731354  1
  Na  Na32  1  1.02515490  0.49300470  0.73950704  1
  Na  Na33  1  0.52103690  0.49684177  0.24166616  1
  Na  Na34  1  0.51816041  0.49080481  0.57077817  1
  Na  Na35  1  0.04437444  0.49211007  0.93398981  1
  Na  Na36  1  0.49933477  0.48000353  0.94992626  1
  Na  Na37  1  0.50242613  1.00659745  0.91583145  1
  Na  Na38  1  0.50934695  0.98738808  0.58338975  1
  Na  Na39  1  0.00693278  0.99019586  0.92787560  1
  Na  Na40  1  0.03112854  0.49214439  0.56986895  1
  Na  Na41  1  0.51183615  0.96299816  0.24053182  1
  Na  Na42  1  0.75967555  0.26061229  0.65545867  1
  Na  Na43  1  0.23204737  0.73454877  0.33649722  1
  Na  Na44  1  0.76281992  0.76226141  0.32274906  1
  Na  Na45  1  0.75646141  0.76140934  -0.00139086  1
  Na  Na46  1  0.24913458  0.73884009  0.01337856  1
  Na  Na47  1  0.24062099  0.73473361  0.67529483  1
  Na  Na48  1  0.73351596  0.24188679  0.00868524  1
  Na  Na49  1  0.75179568  0.75442692  0.66357313  1
  Na  Na50  1  0.24345876  0.24393922  0.00700834  1
  Na  Na51  1  0.25510768  0.25466505  0.32609175  1
  Na  Na52  1  0.75249510  0.75040454  0.83371176  1
  Na  Na53  1  0.24260357  0.73273147  0.84193390  1
  Na  Na54  1  0.73859188  0.24733033  0.83965097  1
  Na  Na55  1  0.23716356  0.24308758  0.51014133  1
  Na  Na56  1  0.23169614  0.72343159  0.17054584  1
  Na  Na57  1  0.75846985  0.75750080  0.49307346  1
  Na  Na58  1  0.24323476  0.74163795  0.50449651  1
  Na  Na59  1  0.77586919  0.77244373  0.16506672  1
  Na  Na60  1  0.74599509  0.24848653  0.18342857  1
  Na  Na61  1  0.25707121  0.25632707  0.82298876  1
  Fe  Fe62  1  0.46614401  0.30094113  0.79164041  1
  Fe  Fe63  1  0.96781742  0.30865202  0.78671184  1
  Fe  Fe64  1  0.46298925  0.80440368  0.44704378  1
  Fe  Fe65  1  0.46582086  0.30357577  0.45071043  1
  Fe  Fe66  1  0.96338504  0.81072718  0.45406078  1
  Fe  Fe67  1  0.46437502  0.80885368  0.78039355  1
  Fe  Fe68  1  0.46282388  0.30408093  0.12125123  1
  Fe  Fe69  1  0.96431152  0.80774657  0.78470556  1
  Fe  Fe70  1  0.96469772  0.31542399  0.12541650  1
  Fe  Fe71  1  0.95914153  0.30711390  0.44466015  1
  Fe  Fe72  1  0.69088102  0.03653827  0.71604514  1
  Fe  Fe73  1  0.69710655  0.53334226  0.71354532  1
  Fe  Fe74  1  0.18524280  0.03583051  0.70710150  1
  Fe  Fe75  1  0.19404541  0.03427497  0.04960614  1
  Fe  Fe76  1  0.18336900  0.53453396  0.37274206  1
  Fe  Fe77  1  0.70402777  0.52993989  0.37691294  1
  Fe  Fe78  1  0.69440786  0.53307656  0.04844349  1
  Fe  Fe79  1  0.18699548  0.03092942  0.37456029  1
  Fe  Fe80  1  0.69083396  0.03947416  0.05141922  1
  Fe  Fe81  1  0.69830418  0.03495527  0.37877258  1
  Fe  Fe82  1  0.03538889  0.68908680  0.54131733  1
  Fe  Fe83  1  0.03545184  0.19329990  0.88305903  1
  Fe  Fe84  1  0.03696511  0.68980340  0.87802420  1
  Fe  Fe85  1  0.03366029  0.18911226  0.21084383  1
  Fe  Fe86  1  0.53339538  0.19287605  0.54717893  1
  Fe  Fe87  1  0.53594883  0.69743584  0.88181820  1
  Fe  Fe88  1  0.53540925  0.68488068  0.53786675  1
  Fe  Fe89  1  0.03190036  0.19062803  0.54403608  1
  Fe  Fe90  1  0.53270679  0.69955252  0.20578785  1
  Fe  Fe91  1  0.53220497  0.19046259  0.21755244  1
  Fe  Fe92  1  0.81184693  0.96617353  0.95677593  1
  Fe  Fe93  1  0.81001102  0.46306968  0.61496612  1
  Fe  Fe94  1  0.31361316  0.45989916  0.28936739  1
  Fe  Fe95  1  0.81441258  0.46594820  0.95716161  1
  Fe  Fe96  1  0.30753329  0.96316806  0.94877570  1
  Fe  Fe97  1  0.30211014  0.47037580  0.96270899  1
  Fe  Fe98  1  0.30092398  0.46547846  0.62418630  1
  Fe  Fe99  1  0.30757048  0.96591405  0.27953281  1
  Fe  Fe100  1  0.80285506  0.96673978  0.62067208  1
  Fe  Fe101  1  0.30387767  0.96615455  0.61433978  1
  S  S102  1  0.35849550  0.13724154  0.07886261  1
  S  S103  1  0.35747218  0.13785413  0.41622860  1
  S  S104  1  0.35470288  0.13759934  0.74824723  1
  S  S105  1  0.36454051  0.64109156  0.08079126  1
  S  S106  1  0.36003092  0.63931665  0.41646834  1
  S  S107  1  0.36328362  0.64111966  0.74828975  1
  S  S108  1  0.85930012  0.14356424  0.08163778  1
  S  S109  1  0.85601664  0.14598351  0.41985110  1
  S  S110  1  0.85764913  0.14337727  0.75211496  1
  S  S111  1  0.85398326  0.64118071  0.08383314  1
  S  S112  1  0.85848424  0.64623512  0.41902355  1
  S  S113  1  0.85889822  0.64109229  0.74926033  1
  S  S114  1  0.14306660  0.35505599  0.24972894  1
  S  S115  1  0.13426339  0.35699012  0.58055914  1
  S  S116  1  0.14321651  0.35510073  0.91475339  1
  S  S117  1  0.15102618  0.85744451  0.24638364  1
  S  S118  1  0.14207787  0.85913679  0.58469305  1
  S  S119  1  0.14145281  0.85920575  0.91347738  1
  S  S120  1  0.63501402  0.35958368  0.25185003  1
  S  S121  1  0.64038691  0.35963427  0.58468648  1
  S  S122  1  0.64143523  0.36252063  0.91352851  1
  S  S123  1  0.64245223  0.85919857  0.25344792  1
  S  S124  1  0.63744502  0.85833546  0.58280915  1
  S  S125  1  0.63700801  0.86381048  0.91310192  1
  S  S126  1  0.06798951  0.16880591  0.03920516  1
  S  S127  1  0.06585350  0.16828149  0.37458314  1
  S  S128  1  0.06368248  0.17077493  0.70955977  1
  S  S129  1  0.06919084  0.67412782  0.04067445  1
  S  S130  1  0.06680247  0.67704667  0.38013720  1
  S  S131  1  0.06241153  0.66936727  0.70714724  1
  S  S132  1  0.56196882  0.16831487  0.04341028  1
  S  S133  1  0.56067063  0.16142545  0.37347296  1
  S  S134  1  0.56272901  0.16787194  0.70688349  1
  S  S135  1  0.57639316  0.67237250  0.04132933  1
  S  S136  1  0.57004822  0.67179809  0.37423411  1
  S  S137  1  0.57212070  0.67092357  0.70627208  1
  S  S138  1  0.33105951  0.42893681  0.12473642  1
  S  S139  1  0.33056955  0.42909777  0.46088895  1
  S  S140  1  0.33694462  0.43069977  0.79897974  1
  S  S141  1  0.33445789  0.93779591  0.11925826  1
  S  S142  1  0.33353417  0.93318153  0.45634738  1
  S  S143  1  0.33021154  0.93316860  0.78569444  1
  S  S144  1  0.82403171  0.42976313  0.11953637  1
  S  S145  1  0.83578227  0.43749280  0.46511381  1
  S  S146  1  0.83304329  0.43421233  0.79132012  1
  S  S147  1  0.82152956  0.93610246  0.11482258  1
  S  S148  1  0.82595156  0.93564960  0.46308700  1
  S  S149  1  0.83091789  0.93695900  0.79164480  1
  S  S150  1  0.43166636  0.32545202  0.29370639  1
  S  S151  1  0.43100001  0.32906323  0.62487070  1
  S  S152  1  0.42496505  0.32848245  0.95908090  1
  S  S153  1  0.43183112  0.83023338  0.28995283  1
  S  S154  1  0.43320525  0.83482694  0.62133757  1
  S  S155  1  0.43598000  0.83548592  0.95169984  1
  S  S156  1  0.93166954  0.32379053  0.28377148  1
  S  S157  1  0.93530577  0.33005230  0.62691198  1
  S  S158  1  0.93446610  0.32893897  0.95516302  1
  S  S159  1  0.93498256  0.83298853  0.29407974  1
  S  S160  1  0.93231131  0.83481154  0.62686546  1
  S  S161  1  0.93571519  0.83271013  0.95274699  1
  S  S162  1  0.16937160  0.06708812  0.20819700  1
  S  S163  1  0.16677461  0.06552390  0.53755290  1
  S  S164  1  0.16732257  0.06431386  0.87271803  1
  S  S165  1  0.18195245  0.56549941  0.22195369  1
  S  S166  1  0.17524362  0.56760487  0.54183211  1
  S  S167  1  0.17377965  0.56111245  0.87271447  1
  S  S168  1  0.66188590  0.06685593  0.20703478  1
  S  S169  1  0.66574115  0.06548416  0.54337057  1
  S  S170  1  0.66757499  0.06335293  0.87585740  1
  S  S171  1  0.66490215  0.57333666  0.20948154  1
  S  S172  1  0.67420461  0.56728287  0.54264054  1
  S  S173  1  0.66911760  0.57267413  0.87300606  1
  O  O174  1  0.36959432  0.21551808  0.07012426  1
  O  O175  1  0.36727803  0.21751031  0.41057660  1
  O  O176  1  0.36720109  0.21778083  0.74514416  1
  O  O177  1  0.37790202  0.71002616  0.06010391  1
  O  O178  1  0.36774411  0.71850309  0.40757398  1
  O  O179  1  0.37801412  0.71546628  0.73161841  1
  O  O180  1  0.87130225  0.22096226  0.07102368  1
  O  O181  1  0.86553400  0.22700164  0.41824780  1
  O  O182  1  0.86703119  0.22287898  0.74607765  1
  O  O183  1  0.85613919  0.71659190  0.07025356  1
  O  O184  1  0.86229593  0.73093728  0.42120042  1
  O  O185  1  0.86561353  0.72020089  0.73983492  1
  O  O186  1  0.27872979  0.12992865  0.08439721  1
  O  O187  1  0.27868626  0.12711084  0.42336275  1
  O  O188  1  0.27279623  0.12821356  0.75066754  1
  O  O189  1  0.28933298  0.63636149  0.09363354  1
  O  O190  1  0.28046632  0.62972506  0.42305135  1
  O  O191  1  0.28567456  0.63915405  0.75579760  1
  O  O192  1  0.77828367  0.13847393  0.08739732  1
  O  O193  1  0.77969018  0.13316250  0.43177386  1
  O  O194  1  0.77872826  0.13339792  0.76046437  1
  O  O195  1  0.77503774  0.62699393  0.09220790  1
  O  O196  1  0.78082304  0.63229165  0.43026796  1
  O  O197  1  0.77867129  0.63179732  0.75536135  1
  O  O198  1  0.13188867  0.27696865  0.25956591  1
  O  O199  1  0.12674491  0.27515175  0.58263771  1
  O  O200  1  0.13624468  0.27173978  0.91304682  1
  O  O201  1  0.14747930  0.77779201  0.24982041  1
  O  O202  1  0.13372492  0.78032750  0.59417944  1
  O  O203  1  0.13419705  0.77844162  0.91753416  1
  O  O204  1  0.62117472  0.28232842  0.26196040  1
  O  O205  1  0.62866052  0.28190922  0.59468001  1
  O  O206  1  0.64169575  0.28576476  0.92334415  1
  O  O207  1  0.62297781  0.78344582  0.26707337  1
  O  O208  1  0.62585119  0.77950587  0.59034495  1
  O  O209  1  0.62921690  0.78557664  0.92341627  1
  O  O210  1  0.22288206  0.36315998  0.24463522  1
  O  O211  1  0.21554647  0.36984697  0.57805721  1
  O  O212  1  0.22408403  0.36944631  0.90995732  1
  O  O213  1  0.22918031  0.87192698  0.23521336  1
  O  O214  1  0.22134705  0.86768363  0.57626741  1
  O  O215  1  0.21908367  0.86905148  0.90228366  1
  O  O216  1  0.70701343  0.36495489  0.23436393  1
  O  O217  1  0.72152745  0.36868528  0.58372585  1
  O  O218  1  0.71676659  0.38079338  0.90039797  1
  O  O219  1  0.72155248  0.85767537  0.24902654  1
  O  O220  1  0.71859205  0.86598227  0.57938673  1
  O  O221  1  0.71637792  0.87152563  0.90546350  1
  O  O222  1  0.41608488  0.12846355  0.14698677  1
  O  O223  1  0.41720542  0.12859895  0.48372657  1
  O  O224  1  0.40979813  0.12313579  0.81331431  1
  O  O225  1  0.42727699  0.63615977  0.14953981  1
  O  O226  1  0.41767320  0.63693175  0.48839430  1
  O  O227  1  0.42312911  0.63587296  0.81795174  1
  O  O228  1  0.91550779  0.13467726  0.14982338  1
  O  O229  1  0.91801780  0.13515241  0.48723022  1
  O  O230  1  0.91720294  0.13272999  0.81869138  1
  O  O231  1  0.91341153  0.63703792  0.15115024  1
  O  O232  1  0.91895518  0.63922527  0.48749907  1
  O  O233  1  0.91634385  0.63568354  0.81856499  1
  O  O234  1  0.36737328  0.07781867  0.01081273  1
  O  O235  1  0.36724633  0.07987808  0.34792850  1
  O  O236  1  0.36340623  0.08083975  0.67783342  1
  O  O237  1  0.36985009  0.57108479  0.01569108  1
  O  O238  1  0.37321678  0.58016120  0.35226718  1
  O  O239  1  0.37215820  0.57606388  0.68380869  1
  O  O240  1  0.86628855  0.08313097  0.01376896  1
  O  O241  1  0.86382783  0.08927897  0.35237891  1
  O  O242  1  0.86464403  0.08465907  0.68329821  1
  O  O243  1  0.86302199  0.57953162  0.01566169  1
  O  O244  1  0.86503033  0.59464285  0.35015097  1
  O  O245  1  0.86810394  0.58212511  0.68239175  1
  O  O246  1  0.08508996  0.36040265  0.18002099  1
  O  O247  1  0.07835905  0.36483790  0.50973708  1
  O  O248  1  0.08598745  0.36595573  0.84635371  1
  O  O249  1  0.09025425  0.87233853  0.18554607  1
  O  O250  1  0.08331923  0.86727301  0.51798155  1
  O  O251  1  0.08077954  0.87069114  0.84797553  1
  O  O252  1  0.56889481  0.37173415  0.18870091  1
  O  O253  1  0.58391980  0.36568303  0.51434666  1
  O  O254  1  0.57836812  0.36501793  0.84465587  1
  O  O255  1  0.58523746  0.86941748  0.18709566  1
  O  O256  1  0.58136994  0.86784132  0.51415629  1
  O  O257  1  0.57924779  0.86786264  0.84215405  1
  O  O258  1  0.13397772  0.41544699  0.31669874  1
  O  O259  1  0.11984573  0.41311486  0.64520801  1
  O  O260  1  0.13202424  0.40776372  0.98222436  1
  O  O261  1  0.14890591  0.91318177  0.32036548  1
  O  O262  1  0.13645743  0.91792444  0.65411785  1
  O  O263  1  0.13474202  0.91619113  0.98311577  1
  O  O264  1  0.63409934  0.42057683  0.32252751  1
  O  O265  1  0.62777762  0.42122848  0.64985680  1
  O  O266  1  0.62887802  0.42252116  0.97959359  1
  O  O267  1  0.63597664  0.92240742  0.32170253  1
  O  O268  1  0.62792816  0.91820228  0.64996020  1
  O  O269  1  0.62407764  0.92430488  0.97705711  1
  O  O270  1  0.03380162  0.19657755  0.10105542  1
  O  O271  1  0.02538897  0.19762105  0.43265520  1
  O  O272  1  0.02417250  0.19905159  0.76904334  1
  O  O273  1  0.03142178  0.70551710  0.09686629  1
  O  O274  1  0.02973311  0.70896027  0.44299127  1
  O  O275  1  0.02622902  0.70260516  0.76880781  1
  O  O276  1  0.53118861  0.20028041  0.10872885  1
  O  O277  1  0.52723931  0.19583068  0.43754931  1
  O  O278  1  0.52552927  0.19454475  0.76551209  1
  O  O279  1  0.54767733  0.69957956  0.10615920  1
  O  O280  1  0.52898905  0.69944479  0.43343314  1
  O  O281  1  0.53745338  0.69983940  0.76806288  1
  O  O282  1  0.30683626  0.46600938  0.06461686  1
  O  O283  1  0.30523077  0.46591296  0.40050085  1
  O  O284  1  0.31872777  0.46804465  0.73981182  1
  O  O285  1  0.29517281  0.97157913  0.05655028  1
  O  O286  1  0.30697574  0.96853048  0.39523706  1
  O  O287  1  0.29947148  0.96844362  0.72453451  1
  O  O288  1  0.79148514  0.46153145  0.05323455  1
  O  O289  1  0.80504214  0.47042352  0.40380084  1
  O  O290  1  0.80395889  0.47139623  0.73044283  1
  O  O291  1  0.78336662  0.97376496  0.05317768  1
  O  O292  1  0.80034236  0.97355530  0.40472622  1
  O  O293  1  0.79781199  0.97148064  0.72934114  1
  O  O294  1  0.46098938  0.28924480  0.22861360  1
  O  O295  1  0.47045901  0.30180817  0.56521840  1
  O  O296  1  0.46306909  0.31078043  0.90062126  1
  O  O297  1  0.46684942  0.79861808  0.23005608  1
  O  O298  1  0.46780483  0.80611783  0.55933898  1
  O  O299  1  0.46688565  0.80073195  0.88618327  1
  O  O300  1  0.97453019  0.29078251  0.22575388  1
  O  O301  1  0.96942263  0.30031672  0.56504652  1
  O  O302  1  0.97478769  0.29821699  0.89600671  1
  O  O303  1  0.97845424  0.80797578  0.24167374  1
  O  O304  1  0.96943168  0.80867748  0.56731309  1
  O  O305  1  0.96826728  0.79900384  0.88756189  1
  O  O306  1  0.20091722  0.03116401  0.26991568  1
  O  O307  1  0.19630446  0.02824480  0.59879370  1
  O  O308  1  0.19690889  0.02740373  0.93296563  1
  O  O309  1  0.21735419  0.52296602  0.27951004  1
  O  O310  1  0.20279739  0.52981714  0.60025887  1
  O  O311  1  0.20364312  0.52553268  0.93473874  1
  O  O312  1  0.68981627  0.03599362  0.26992265  1
  O  O313  1  0.69366830  0.02777779  0.60449311  1
  O  O314  1  0.70587746  0.03065313  0.93763268  1
  O  O315  1  0.68311539  0.53492978  0.26797922  1
  O  O316  1  0.70345929  0.52853665  0.60251102  1
  O  O317  1  0.69694967  0.53967376  0.93508471  1
  O  O318  1  0.09091015  0.08811887  0.03423440  1
  O  O319  1  0.08629550  0.08831923  0.37296701  1
  O  O320  1  0.08112652  0.08915101  0.70692055  1
  O  O321  1  0.08750634  0.59386342  0.03758114  1
  O  O322  1  0.09341253  0.60124847  0.38656065  1
  O  O323  1  0.06984647  0.58654900  0.69758983  1
  O  O324  1  0.58407768  0.08686729  0.04219518  1
  O  O325  1  0.57441630  0.07881512  0.37013700  1
  O  O326  1  0.58035962  0.08437079  0.70096214  1
  O  O327  1  0.59069233  0.58860583  0.02747487  1
  O  O328  1  0.58849958  0.59118521  0.36841525  1
  O  O329  1  0.58968346  0.58862908  0.69799607  1
  O  O330  1  0.41359163  0.41038282  0.13608894  1
  O  O331  1  0.41264109  0.40871382  0.46871538  1
  O  O332  1  0.42185073  0.41503747  0.81472000  1
  O  O333  1  0.41665777  0.93343059  0.12320836  1
  O  O334  1  0.41743227  0.91765194  0.46483700  1
  O  O335  1  0.41377346  0.91951164  0.79241329  1
  O  O336  1  0.90190631  0.40575338  0.11602563  1
  O  O337  1  0.91697457  0.41668171  0.46924081  1
  O  O338  1  0.91500787  0.41638115  0.79694501  1
  O  O339  1  0.89176094  0.90737614  0.09932272  1
  O  O340  1  0.90694589  0.91621882  0.47006700  1
  O  O341  1  0.91312315  0.92186730  0.79566467  1
  O  O342  1  0.41548729  0.40626500  0.29508868  1
  O  O343  1  0.41439126  0.41164128  0.63282841  1
  O  O344  1  0.39974069  0.40968278  0.96937996  1
  O  O345  1  0.41675550  0.91346668  0.29310748  1
  O  O346  1  0.41761803  0.91823878  0.62927696  1
  O  O347  1  0.41564398  0.91664016  0.95052169  1
  O  O348  1  0.90868860  0.39820248  0.27917218  1
  O  O349  1  0.91693738  0.41210953  0.63293609  1
  O  O350  1  0.91927092  0.41011819  0.95761061  1
  O  O351  1  0.90803272  0.91014746  0.29396397  1
  O  O352  1  0.91092200  0.91580993  0.63485817  1
  O  O353  1  0.91252216  0.91174767  0.94859624  1
  O  O354  1  0.08952080  0.08626601  0.20538382  1
  O  O355  1  0.08604566  0.08428130  0.53264166  1
  O  O356  1  0.08470610  0.08140788  0.86770864  1
  O  O357  1  0.11682392  0.60103206  0.24399862  1
  O  O358  1  0.09534071  0.58965904  0.54116544  1
  O  O359  1  0.09250824  0.58205710  0.87171137  1
  O  O360  1  0.57765559  0.08318119  0.19892307  1
  O  O361  1  0.58194860  0.07974262  0.53622749  1
  O  O362  1  0.58555079  0.07062790  0.87171748  1
  O  O363  1  0.58312753  0.59636351  0.20060494  1
  O  O364  1  0.59165599  0.58237617  0.53865920  1
  O  O365  1  0.58578892  0.58937159  0.86229022  1
  O  O366  1  0.13388833  0.22308740  0.04823919  1
  O  O367  1  0.13692223  0.22220333  0.39343996  1
  O  O368  1  0.13496689  0.22258929  0.72798785  1
  O  O369  1  0.14155240  0.72560203  0.05395393  1
  O  O370  1  0.13695443  0.73372010  0.39904986  1
  O  O371  1  0.13808183  0.71771891  0.72825455  1
  O  O372  1  0.63249394  0.22022775  0.05700399  1
  O  O373  1  0.63139581  0.20929123  0.38529020  1
  O  O374  1  0.63494743  0.21806412  0.72226301  1
  O  O375  1  0.64715590  0.72300073  0.05334848  1
  O  O376  1  0.64031295  0.72709495  0.39617298  1
  O  O377  1  0.64339090  0.72351653  0.72224889  1
  O  O378  1  0.27733617  0.35853609  0.10558237  1
  O  O379  1  0.27679484  0.35852066  0.44341692  1
  O  O380  1  0.28476748  0.35899954  0.77838090  1
  O  O381  1  0.29023918  0.86286071  0.10424207  1
  O  O382  1  0.28388089  0.86162202  0.44249047  1
  O  O383  1  0.28164238  0.85980627  0.77005666  1
  O  O384  1  0.76971202  0.36008056  0.10489109  1
  O  O385  1  0.78464497  0.37104700  0.45997865  1
  O  O386  1  0.78030972  0.36216001  0.77218791  1
  O  O387  1  0.76376789  0.86985998  0.10294589  1
  O  O388  1  0.77204711  0.86491529  0.44625994  1
  O  O389  1  0.78104068  0.86410190  0.77557220  1
  O  O390  1  0.36225107  0.27645712  0.28614869  1
  O  O391  1  0.35955537  0.27636774  0.60431932  1
  O  O392  1  0.35566654  0.27185870  0.93884363  1
  O  O393  1  0.36106295  0.78168067  0.27981213  1
  O  O394  1  0.36172177  0.78432046  0.60667510  1
  O  O395  1  0.36519050  0.78536654  0.93971803  1
  O  O396  1  0.86674235  0.26392255  0.26857544  1
  O  O397  1  0.86658103  0.27823614  0.61614651  1
  O  O398  1  0.86100607  0.27771120  0.93387793  1
  O  O399  1  0.86796255  0.77427959  0.27921746  1
  O  O400  1  0.86221681  0.78055714  0.61081795  1
  O  O401  1  0.86413903  0.78076907  0.93790001  1
  O  O402  1  0.22296755  0.13638651  0.22305862  1
  O  O403  1  0.22044518  0.13492000  0.55343971  1
  O  O404  1  0.21893687  0.13557457  0.88902838  1
  O  O405  1  0.24276942  0.62841646  0.23294975  1
  O  O406  1  0.22877567  0.63923635  0.55908975  1
  O  O407  1  0.22626081  0.63352652  0.89117314  1
  O  O408  1  0.71101031  0.13657714  0.21575223  1
  O  O409  1  0.71584926  0.13826310  0.56369708  1
  O  O410  1  0.71319041  0.13821125  0.88929322  1
  O  O411  1  0.72085810  0.64178018  0.22787716  1
  O  O412  1  0.72364864  0.64163799  0.56328301  1
  O  O413  1  0.71989644  0.64443605  0.88689763  1
  O  O414  1  0.48450653  0.32915260  0.03058403  1
  O  O415  1  0.49554601  0.32972157  0.36445417  1
  O  O416  1  0.48801790  0.32890630  0.69779819  1
  O  O417  1  0.49844703  0.84515912  0.02171759  1
  O  O418  1  0.49193732  0.83808989  0.36521106  1
  O  O419  1  0.49333642  0.83494339  0.69278099  1
  O  O420  1  0.98989651  0.32761142  0.02752158  1
  O  O421  1  0.99076400  0.32953153  0.35880805  1
  O  O422  1  0.99762111  0.33630708  0.70010431  1
  O  O423  1  0.99664177  0.83994926  0.02192166  1
  O  O424  1  0.98957242  0.84434818  0.37406852  1
  O  O425  1  0.99204389  0.83794100  0.70004421  1
  O  O426  1  0.16630473  0.00644650  0.13593378  1
  O  O427  1  0.16572371  0.00455955  0.46617694  1
  O  O428  1  0.16353777  0.00594638  0.79911101  1
  O  O429  1  0.15794678  0.50842398  0.14694911  1
  O  O430  1  0.17014389  0.51071334  0.46738275  1
  O  O431  1  0.16609112  0.50346890  0.79986584  1
  O  O432  1  0.65718567  0.00393265  0.13465758  1
  O  O433  1  0.66622888  0.00834439  0.47142965  1
  O  O434  1  0.66896425  0.00601448  0.80232846  1
  O  O435  1  0.66194455  0.51338043  0.13676544  1
  O  O436  1  0.67521307  0.51192936  0.47073103  1
  O  O437  1  0.66885557  0.51137525  0.80143709  1
  O  O438  1  0.00908471  0.16406563  0.30075904  1
  O  O439  1  0.00630127  0.16784694  0.63647295  1
  O  O440  1  0.00438930  0.15953232  0.96581873  1
  O  O441  1  0.00826134  0.67035508  0.30964195  1
  O  O442  1  0.00798202  0.67737630  0.63626213  1
  O  O443  1  0.01239985  0.66978168  0.96366936  1
  O  O444  1  0.49819690  0.15906597  0.30238497  1
  O  O445  1  0.50509335  0.16312369  0.63203559  1
  O  O446  1  0.50034691  0.15878347  0.97277453  1
  O  O447  1  0.51253008  0.67314890  0.30185622  1
  O  O448  1  0.51224472  0.67004870  0.63436959  1
  O  O449  1  0.51310278  0.67539865  0.97227894  1
  O  O450  1  0.33059334  0.48774959  0.19656163  1
  O  O451  1  0.33291007  0.48818622  0.53364126  1
  O  O452  1  0.33261395  0.48858553  0.87114807  1
  O  O453  1  0.33131892  0.99563006  0.19129565  1
  O  O454  1  0.33485622  0.99365640  0.52857418  1
  O  O455  1  0.33000665  0.99193594  0.85773973  1
  O  O456  1  0.82972937  0.49175618  0.18785013  1
  O  O457  1  0.84516659  0.50119851  0.53944451  1
  O  O458  1  0.83354468  0.49204618  0.86344770  1
  O  O459  1  0.83654106  0.99627610  0.18724806  1
  O  O460  1  0.82739901  0.99412947  0.53682255  1
  O  O461  1  0.83215905  0.99615910  0.86318314  1
