# generated using pymatgen
data_Na31Fe20(SO4)36
_symmetry_space_group_name_H-M   'P 1'
_cell_length_a   18.08926115
_cell_length_b   18.08360511
_cell_length_c   19.73645861
_cell_angle_alpha   107.59285173
_cell_angle_beta   107.60239249
_cell_angle_gamma   90.77169329
_symmetry_Int_Tables_number   1
_chemical_formula_structural   Na31Fe20(SO4)36
_chemical_formula_sum   'Na62 Fe40 S72 O288'
_cell_volume   5826.84878616
_cell_formula_units_Z   2
loop_
 _symmetry_equiv_pos_site_id
 _symmetry_equiv_pos_as_xyz
  1  'x, y, z'
loop_
 _atom_site_type_symbol
 _atom_site_label
 _atom_site_symmetry_multiplicity
 _atom_site_fract_x
 _atom_site_fract_y
 _atom_site_fract_z
 _atom_site_occupancy
  Na  Na0  1  0.13230392  0.34523351  0.07404651  1
  Na  Na1  1  0.12356052  0.35685648  0.39917393  1
  Na  Na2  1  0.14492208  0.36892671  0.75491085  1
  Na  Na3  1  0.12964323  0.87234964  0.08706753  1
  Na  Na4  1  0.16656305  0.85511463  0.43750976  1
  Na  Na5  1  0.13899962  0.86064275  0.74757953  1
  Na  Na6  1  0.62933802  0.36265362  0.07639335  1
  Na  Na7  1  0.63522109  0.36915249  0.42169999  1
  Na  Na8  1  0.63457591  0.36553737  0.75080517  1
  Na  Na9  1  0.64737911  0.87587434  0.09201444  1
  Na  Na10  1  0.63532375  0.86203820  0.41385532  1
  Na  Na11  1  0.63104336  0.86410606  0.74931741  1
  Na  Na12  1  0.36867857  0.13790354  0.25493908  1
  Na  Na13  1  0.35914536  0.13691397  0.58672202  1
  Na  Na14  1  0.36830602  0.13773727  0.92053120  1
  Na  Na15  1  0.36439490  0.64284616  0.26020514  1
  Na  Na16  1  0.36803564  0.64044928  0.58738675  1
  Na  Na17  1  0.35610366  0.62685771  0.89835418  1
  Na  Na18  1  0.86488453  0.12627074  0.25045802  1
  Na  Na19  1  0.86699984  0.13149766  0.58360896  1
  Na  Na20  1  0.87729706  0.14683487  0.93943757  1
  Na  Na21  1  0.86549621  0.62965514  0.24479698  1
  Na  Na22  1  0.87051069  0.63397144  0.58575619  1
  Na  Na23  1  0.86543534  0.63332839  0.91505343  1
  Na  Na24  1  1.00669793  0.00862780  0.74065944  1
  Na  Na25  1  0.97411717  0.00929470  0.39578356  1
  Na  Na26  1  0.46294158  0.01214626  0.75219743  1
  Na  Na27  1  0.48861857  0.52523783  0.73305279  1
  Na  Na28  1  1.01233712  0.49667515  0.74851971  1
  Na  Na29  1  0.50284464  0.00751876  0.07541930  1
  Na  Na30  1  0.99133918  0.51454664  0.41695487  1
  Na  Na31  1  1.01054922  0.47705697  0.09392753  1
  Na  Na32  1  0.49242881  0.01375617  0.41800539  1
  Na  Na33  1  0.50528792  0.48095663  0.93163037  1
  Na  Na34  1  -0.01277705  1.07121331  0.13845591  1
  Na  Na35  1  0.52125699  0.99100176  0.24903936  1
  Na  Na36  1  -0.00243566  0.43689752  0.23480506  1
  Na  Na37  1  0.48325641  1.00711888  0.59409679  1
  Na  Na38  1  0.53347001  0.97969765  0.91489638  1
  Na  Na39  1  0.50339070  0.49072835  0.25014063  1
  Na  Na40  1  0.05399237  0.49735821  0.59718205  1
  Na  Na41  1  0.01134552  0.49094785  0.91938036  1
  Na  Na42  1  0.75791732  0.75922692  -0.00177546  1
  Na  Na43  1  0.74764825  0.74852753  0.66667582  1
  Na  Na44  1  0.72265145  0.22575612  0.00367942  1
  Na  Na45  1  0.76026725  0.76194680  0.32696785  1
  Na  Na46  1  0.74062124  0.23990878  0.34842511  1
  Na  Na47  1  0.75835040  0.25612928  0.65702007  1
  Na  Na48  1  0.24312845  0.23976580  0.67337253  1
  Na  Na49  1  0.27701412  0.77593174  0.65351443  1
  Na  Na50  1  0.23204966  0.24098287  0.32970460  1
  Na  Na51  1  0.25343113  0.75049546  -0.00317922  1
  Na  Na52  1  0.74562246  0.74991145  0.83255914  1
  Na  Na53  1  0.26324024  0.75465805  0.82005937  1
  Na  Na54  1  0.76373417  0.76800257  0.16556777  1
  Na  Na55  1  0.24826719  0.24142264  0.84599822  1
  Na  Na56  1  0.73864287  0.23881277  0.84411064  1
  Na  Na57  1  0.24257981  0.74190170  0.17537214  1
  Na  Na58  1  0.24005841  0.24364490  0.50017383  1
  Na  Na59  1  0.73868307  0.22797088  0.17046549  1
  Na  Na60  1  0.75201801  0.75194272  0.49870639  1
  Na  Na61  1  0.25061687  0.25317343  0.16311450  1
  Fe  Fe62  1  0.46020522  0.30573195  0.11569309  1
  Fe  Fe63  1  0.96482310  0.30492222  0.45078717  1
  Fe  Fe64  1  0.46708815  0.80529160  0.11766080  1
  Fe  Fe65  1  0.96617436  0.30578641  0.78253854  1
  Fe  Fe66  1  0.46957971  0.30006144  0.79202757  1
  Fe  Fe67  1  0.96595710  0.81788560  0.13003458  1
  Fe  Fe68  1  0.96872490  0.80992389  0.45615456  1
  Fe  Fe69  1  0.46272703  0.31334320  0.45731807  1
  Fe  Fe70  1  0.45897735  0.81241784  0.45176036  1
  Fe  Fe71  1  0.96533693  0.81250515  0.79352446  1
  Fe  Fe72  1  0.69573999  0.53624222  0.38178706  1
  Fe  Fe73  1  0.69174596  0.03331042  0.71273247  1
  Fe  Fe74  1  0.19090926  0.53970541  0.38080769  1
  Fe  Fe75  1  0.69965064  0.03128858  0.38132441  1
  Fe  Fe76  1  0.69138669  0.53361284  0.70985665  1
  Fe  Fe77  1  0.18817043  0.03432589  0.04394422  1
  Fe  Fe78  1  0.69434459  0.54014668  0.04802179  1
  Fe  Fe79  1  0.19759124  0.02942958  0.70699986  1
  Fe  Fe80  1  0.18926220  0.03151390  0.37574910  1
  Fe  Fe81  1  0.19523931  0.53421000  0.05176379  1
  Fe  Fe82  1  0.03718638  0.69437258  0.55179613  1
  Fe  Fe83  1  0.03664775  0.19263197  0.88479631  1
  Fe  Fe84  1  0.53245694  0.70204720  0.87532036  1
  Fe  Fe85  1  0.03413261  0.18750902  0.54240433  1
  Fe  Fe86  1  0.53481420  0.68831022  0.21026119  1
  Fe  Fe87  1  0.03787042  0.69227633  0.21925258  1
  Fe  Fe88  1  0.53545230  0.19687061  0.55014692  1
  Fe  Fe89  1  0.53116169  0.19508859  0.21588006  1
  Fe  Fe90  1  0.53121662  0.69270652  0.54382488  1
  Fe  Fe91  1  0.03528707  0.69242142  0.88286597  1
  Fe  Fe92  1  0.80799354  0.46450010  0.61637779  1
  Fe  Fe93  1  0.31069753  0.96231640  0.28475527  1
  Fe  Fe94  1  0.30823990  0.46638669  0.95563050  1
  Fe  Fe95  1  0.30625830  0.96584568  0.95322238  1
  Fe  Fe96  1  0.29861041  0.46692145  0.62339066  1
  Fe  Fe97  1  0.81050640  0.46738050  0.95289576  1
  Fe  Fe98  1  0.80267037  0.97014055  0.96145774  1
  Fe  Fe99  1  0.80454022  0.46417743  0.28236737  1
  Fe  Fe100  1  0.31150790  0.46820856  0.29268226  1
  Fe  Fe101  1  0.80680497  0.96433908  0.62295314  1
  S  S102  1  0.35691953  0.14028170  0.08616180  1
  S  S103  1  0.36117326  0.14138180  0.41709158  1
  S  S104  1  0.35806418  0.14093583  0.74803049  1
  S  S105  1  0.35959627  0.64161651  0.08321307  1
  S  S106  1  0.35780610  0.64249403  0.41635758  1
  S  S107  1  0.35934400  0.63937418  0.74782294  1
  S  S108  1  0.84140903  0.14333180  0.07666214  1
  S  S109  1  0.85920376  0.14236564  0.41972096  1
  S  S110  1  0.86013985  0.14039502  0.75165114  1
  S  S111  1  0.86252773  0.64211244  0.08407496  1
  S  S112  1  0.86147592  0.64211536  0.41749712  1
  S  S113  1  0.86057097  0.63966752  0.75170777  1
  S  S114  1  0.14350601  0.36520101  0.24790989  1
  S  S115  1  0.13853499  0.35489645  0.58350439  1
  S  S116  1  0.13927519  0.36130062  0.91651751  1
  S  S117  1  0.14435082  0.85583179  0.25080685  1
  S  S118  1  0.14068500  0.85665703  0.58693871  1
  S  S119  1  0.14307892  0.85685151  0.91735094  1
  S  S120  1  0.63865247  0.36167691  0.25103016  1
  S  S121  1  0.64177291  0.35930283  0.58358040  1
  S  S122  1  0.64389271  0.36415258  0.91636661  1
  S  S123  1  0.63924851  0.85721436  0.25202481  1
  S  S124  1  0.64026387  0.85745428  0.57868286  1
  S  S125  1  0.64407599  0.85813648  0.91870449  1
  S  S126  1  0.06592876  0.15873713  0.04049574  1
  S  S127  1  0.06235308  0.16547478  0.37149077  1
  S  S128  1  0.07039639  0.17227415  0.71174860  1
  S  S129  1  0.06739365  0.66978695  0.04436267  1
  S  S130  1  0.06291444  0.66556207  0.37444777  1
  S  S131  1  0.06171651  0.67064530  0.71500872  1
  S  S132  1  0.55493357  0.17235520  0.04406405  1
  S  S133  1  0.56578332  0.17106262  0.37930314  1
  S  S134  1  0.56816269  0.17078507  0.70855427  1
  S  S135  1  0.57029134  0.67398170  0.04061018  1
  S  S136  1  0.56832981  0.66714215  0.37338464  1
  S  S137  1  0.57129367  0.66516657  0.70410069  1
  S  S138  1  0.32722087  0.43270005  0.12711181  1
  S  S139  1  0.32038857  0.42792867  0.45667580  1
  S  S140  1  0.33409007  0.42698567  0.79328803  1
  S  S141  1  0.33397364  0.93276390  0.12483026  1
  S  S142  1  0.34057966  0.94202907  0.45705431  1
  S  S143  1  0.33287960  0.93916417  0.79650794  1
  S  S144  1  0.82700612  0.43525049  0.11852579  1
  S  S145  1  0.83286772  0.43584248  0.45832817  1
  S  S146  1  0.83296505  0.43481037  0.78866269  1
  S  S147  1  0.83392116  0.93526605  0.12804598  1
  S  S148  1  0.82952258  0.93085554  0.46071257  1
  S  S149  1  0.82660121  0.92982669  0.79362651  1
  S  S150  1  0.43301480  0.33247900  0.29322152  1
  S  S151  1  0.42948247  0.32921807  0.62562424  1
  S  S152  1  0.43395622  0.33798888  0.96188053  1
  S  S153  1  0.43526369  0.83025514  0.28844095  1
  S  S154  1  0.44389060  0.83292183  0.62195377  1
  S  S155  1  0.43380751  0.83017852  0.95969520  1
  S  S156  1  0.92460598  0.33255054  0.29250878  1
  S  S157  1  0.93475838  0.33208686  0.62572749  1
  S  S158  1  0.93541869  0.33535495  0.95246883  1
  S  S159  1  0.93484394  0.82518795  0.29163942  1
  S  S160  1  0.93178091  0.83032572  0.62887405  1
  S  S161  1  0.92713797  0.82778872  0.95851767  1
  S  S162  1  0.17933293  0.06772986  0.21458332  1
  S  S163  1  0.16469653  0.06497513  0.53685400  1
  S  S164  1  0.17134833  0.06627877  0.87128428  1
  S  S165  1  0.17068781  0.56758803  0.20760576  1
  S  S166  1  0.16870450  0.56642862  0.54145880  1
  S  S167  1  0.16632702  0.56377496  0.87915030  1
  S  S168  1  0.65711733  0.06653464  0.21059648  1
  S  S169  1  0.67077822  0.06684618  0.54340206  1
  S  S170  1  0.66552116  0.05546166  0.86858102  1
  S  S171  1  0.67044563  0.56807972  0.20958995  1
  S  S172  1  0.67535397  0.57147130  0.54355919  1
  S  S173  1  0.67054298  0.57179147  0.87417140  1
  O  O174  1  0.36391747  0.21985518  0.08034246  1
  O  O175  1  0.36866938  0.21970874  0.40743689  1
  O  O176  1  0.37008783  0.22243554  0.74324267  1
  O  O177  1  0.36902110  0.72154450  0.07692860  1
  O  O178  1  0.36990190  0.71800144  0.40335815  1
  O  O179  1  0.36506941  0.71390253  0.73377808  1
  O  O180  1  0.85627550  0.21168859  0.05496055  1
  O  O181  1  0.86785910  0.22355942  0.41507409  1
  O  O182  1  0.86894604  0.21656294  0.73768092  1
  O  O183  1  0.87360499  0.72164030  0.07824543  1
  O  O184  1  0.87008998  0.72213376  0.41205642  1
  O  O185  1  0.86728121  0.71942543  0.74508341  1
  O  O186  1  0.27758647  0.12704845  0.09164557  1
  O  O187  1  0.28124557  0.12999554  0.42201614  1
  O  O188  1  0.27283774  0.13433084  0.74415514  1
  O  O189  1  0.28083242  0.63294646  0.09210642  1
  O  O190  1  0.27851724  0.63211317  0.42174713  1
  O  O191  1  0.28819746  0.62683940  0.76582784  1
  O  O192  1  0.75877612  0.13159887  0.07089874  1
  O  O193  1  0.77950881  0.13205886  0.42526340  1
  O  O194  1  0.78020475  0.13149189  0.75712594  1
  O  O195  1  0.78425454  0.63612104  0.09508086  1
  O  O196  1  0.78259111  0.63256312  0.42572996  1
  O  O197  1  0.78242751  0.62839922  0.76070119  1
  O  O198  1  0.13347511  0.28971488  0.25854206  1
  O  O199  1  0.12978481  0.27356178  0.58743747  1
  O  O200  1  0.12927790  0.28216379  0.92240439  1
  O  O201  1  0.13514437  0.77513012  0.25385681  1
  O  O202  1  0.12734509  0.78046133  0.60188525  1
  O  O203  1  0.13138209  0.77719593  0.92395580  1
  O  O204  1  0.63053008  0.28358922  0.26098352  1
  O  O205  1  0.63318713  0.28017324  0.59196516  1
  O  O206  1  0.64194282  0.28858609  0.92833565  1
  O  O207  1  0.62507798  0.77867565  0.26107182  1
  O  O208  1  0.63393635  0.77747562  0.58500950  1
  O  O209  1  0.63591841  0.77516660  0.92051952  1
  O  O210  1  0.22591581  0.37661799  0.24559153  1
  O  O211  1  0.21828251  0.36486818  0.57749966  1
  O  O212  1  0.21789558  0.37138493  0.90862083  1
  O  O213  1  0.22146329  0.86602063  0.23889155  1
  O  O214  1  0.21840807  0.86283365  0.58102085  1
  O  O215  1  0.22200688  0.86347532  0.90830032  1
  O  O216  1  0.71522082  0.36922622  0.23819674  1
  O  O217  1  0.72033310  0.36968195  0.57588011  1
  O  O218  1  0.72059705  0.37907833  0.90406087  1
  O  O219  1  0.71716091  0.86323207  0.24580935  1
  O  O220  1  0.72111668  0.86902652  0.57393687  1
  O  O221  1  0.72870991  0.86669885  0.91839766  1
  O  O222  1  0.41490489  0.13250971  0.15519260  1
  O  O223  1  0.41946937  0.13621477  0.48701352  1
  O  O224  1  0.40767663  0.13302319  0.81851779  1
  O  O225  1  0.41871125  0.63357652  0.15093294  1
  O  O226  1  0.41539201  0.63686603  0.48603338  1
  O  O227  1  0.42731238  0.63284496  0.81308225  1
  O  O228  1  0.89186428  0.14500473  0.15111426  1
  O  O229  1  0.91687357  0.13693671  0.49073886  1
  O  O230  1  0.91818010  0.13702620  0.82173630  1
  O  O231  1  0.92210197  0.62914378  0.14865788  1
  O  O232  1  0.92075244  0.63218117  0.48480028  1
  O  O233  1  0.92064535  0.63120287  0.81908277  1
  O  O234  1  0.36843659  0.08186665  0.01956488  1
  O  O235  1  0.37482541  0.08157335  0.35212535  1
  O  O236  1  0.37230105  0.08451537  0.68301984  1
  O  O237  1  0.36516493  0.58420721  0.01375650  1
  O  O238  1  0.36779175  0.58015478  0.35028381  1
  O  O239  1  0.36607286  0.57532709  0.68007584  1
  O  O240  1  0.86156973  0.07357268  0.01750793  1
  O  O241  1  0.87146579  0.08517098  0.35503274  1
  O  O242  1  0.87086204  0.07760193  0.68667840  1
  O  O243  1  0.86517786  0.58412629  0.01295592  1
  O  O244  1  0.86872081  0.58389858  0.34894128  1
  O  O245  1  0.86865370  0.58176830  0.68325546  1
  O  O246  1  0.08845126  0.37423326  0.17938877  1
  O  O247  1  0.08098605  0.36390575  0.51427673  1
  O  O248  1  0.08021384  0.37204665  0.84919581  1
  O  O249  1  0.08391832  0.86667658  0.18466198  1
  O  O250  1  0.08180990  0.85819947  0.51557167  1
  O  O251  1  0.08416628  0.86698030  0.85091555  1
  O  O252  1  0.57627336  0.37192999  0.18643204  1
  O  O253  1  0.58176797  0.36601349  0.51607726  1
  O  O254  1  0.58216730  0.36736761  0.84721504  1
  O  O255  1  0.57979775  0.86683442  0.18423607  1
  O  O256  1  0.58355142  0.86430337  0.50926612  1
  O  O257  1  0.59175519  0.86738172  0.85004883  1
  O  O258  1  0.13195404  0.42776807  0.31442474  1
  O  O259  1  0.12810673  0.41119070  0.65011002  1
  O  O260  1  0.13025773  0.41992674  0.98467768  1
  O  O261  1  0.14025242  0.91212851  0.32135415  1
  O  O262  1  0.12854195  0.91889651  0.65135233  1
  O  O263  1  0.14004372  0.91434469  0.98782945  1
  O  O264  1  0.63507518  0.42178553  0.32098027  1
  O  O265  1  0.63478844  0.41724382  0.65269172  1
  O  O266  1  0.63284508  0.42653550  0.98169777  1
  O  O267  1  0.62946685  0.91727526  0.31941597  1
  O  O268  1  0.63120610  0.91563593  0.64591691  1
  O  O269  1  0.63255497  0.91210492  0.98577406  1
  O  O270  1  0.02655713  0.16643831  0.09562241  1
  O  O271  1  0.02899224  0.19890060  0.43624548  1
  O  O272  1  0.03031472  0.20056527  0.77063157  1
  O  O273  1  0.03319219  0.69905133  0.10589712  1
  O  O274  1  0.02766052  0.69627786  0.43673594  1
  O  O275  1  0.02414649  0.70749583  0.77483098  1
  O  O276  1  0.52353263  0.20711257  0.11116978  1
  O  O277  1  0.52988573  0.20235382  0.44068441  1
  O  O278  1  0.53257939  0.19858768  0.76801484  1
  O  O279  1  0.53237770  0.69959204  0.10135835  1
  O  O280  1  0.53214578  0.69484591  0.43363021  1
  O  O281  1  0.54005737  0.69189376  0.76660815  1
  O  O282  1  0.29915838  0.46975559  0.06576348  1
  O  O283  1  0.29494646  0.46942140  0.39905975  1
  O  O284  1  0.31148159  0.45922568  0.73104608  1
  O  O285  1  0.30328420  0.96782972  0.06336220  1
  O  O286  1  0.30284669  0.96916563  0.38973926  1
  O  O287  1  0.29953495  0.97463418  0.73663768  1
  O  O288  1  0.79413489  0.47630331  0.06039554  1
  O  O289  1  0.80312477  0.47387571  0.39816093  1
  O  O290  1  0.80167677  0.46944377  0.72672452  1
  O  O291  1  0.80808323  0.96094342  0.05986784  1
  O  O292  1  0.79870245  0.96855470  0.40283560  1
  O  O293  1  0.79789541  0.96826256  0.73361688  1
  O  O294  1  0.46990461  0.30010094  0.23291031  1
  O  O295  1  0.46898374  0.30210554  0.56578816  1
  O  O296  1  0.47369249  0.31645535  0.90483376  1
  O  O297  1  0.46979384  0.79848109  0.22661662  1
  O  O298  1  0.47531109  0.79815549  0.55442464  1
  O  O299  1  0.46944918  0.80308840  0.90007944  1
  O  O300  1  0.95540446  0.31330568  0.23051262  1
  O  O301  1  0.96950336  0.30239011  0.56433863  1
  O  O302  1  0.96776471  0.30239561  0.88793637  1
  O  O303  1  0.97284900  0.79165316  0.23096845  1
  O  O304  1  0.96581901  0.80050629  0.56665393  1
  O  O305  1  0.96820805  0.80105653  0.90030503  1
  O  O306  1  0.21205050  0.02606027  0.27244356  1
  O  O307  1  0.18540799  0.03151880  0.59809489  1
  O  O308  1  0.19937028  0.02903304  0.93209941  1
  O  O309  1  0.20329465  0.53644373  0.27099990  1
  O  O310  1  0.19276028  0.52606816  0.59850866  1
  O  O311  1  0.20027918  0.53244708  0.94419376  1
  O  O312  1  0.67831740  0.03523322  0.27443044  1
  O  O313  1  0.69846976  0.02896390  0.60384542  1
  O  O314  1  0.70247821  0.01698216  0.92612651  1
  O  O315  1  0.70308616  0.53082140  0.27011814  1
  O  O316  1  0.70424201  0.53269342  0.60345373  1
  O  O317  1  0.70058720  0.53852551  0.93719074  1
  O  O318  1  0.08690594  0.07678056  0.01615979  1
  O  O319  1  0.08615273  0.08674938  0.37420582  1
  O  O320  1  0.09050423  0.09244713  0.70897841  1
  O  O321  1  0.08548570  0.58735212  0.03809281  1
  O  O322  1  0.07751440  0.58259719  0.36971836  1
  O  O323  1  0.06913499  0.58892525  0.71219274  1
  O  O324  1  0.56694087  0.09072350  0.03914178  1
  O  O325  1  0.58154359  0.08871331  0.37539134  1
  O  O326  1  0.58698565  0.08852757  0.70102083  1
  O  O327  1  0.58903856  0.59193284  0.03337216  1
  O  O328  1  0.58821487  0.58547019  0.36588817  1
  O  O329  1  0.58764926  0.58153690  0.69499943  1
  O  O330  1  0.40822428  0.41245552  0.13268141  1
  O  O331  1  0.39983079  0.40624648  0.46008247  1
  O  O332  1  0.41725183  0.40935974  0.80799227  1
  O  O333  1  0.41660187  0.91669490  0.13086163  1
  O  O334  1  0.42324778  0.92518368  0.45601420  1
  O  O335  1  0.41525688  0.92951140  0.80446168  1
  O  O336  1  0.90731949  0.42256717  0.11980276  1
  O  O337  1  0.91506609  0.41955986  0.46482755  1
  O  O338  1  0.91612113  0.42012602  0.79462348  1
  O  O339  1  0.91755672  0.91884735  0.13904533  1
  O  O340  1  0.90956982  0.91123173  0.46193478  1
  O  O341  1  0.90736896  0.91173563  0.79648036  1
  O  O342  1  0.41734146  0.41366550  0.29493461  1
  O  O343  1  0.41002532  0.40998319  0.63197151  1
  O  O344  1  0.41337384  0.42032436  0.97037694  1
  O  O345  1  0.42347029  0.91433190  0.29481344  1
  O  O346  1  0.42957531  0.91392615  0.62492146  1
  O  O347  1  0.41327302  0.91195733  0.96667688  1
  O  O348  1  0.90845351  0.41886709  0.30858042  1
  O  O349  1  0.91663569  0.41428097  0.63111160  1
  O  O350  1  0.91823828  0.41844014  0.95515458  1
  O  O351  1  0.91571714  0.90287459  0.29231489  1
  O  O352  1  0.91317710  0.91183414  0.63556953  1
  O  O353  1  0.89989069  0.90460968  0.95817111  1
  O  O354  1  0.10528955  0.09176808  0.22150877  1
  O  O355  1  0.08080081  0.08143007  0.51996812  1
  O  O356  1  0.09046769  0.08754144  0.86526507  1
  O  O357  1  0.08906809  0.58575004  0.20377071  1
  O  O358  1  0.08567062  0.58585273  0.53739973  1
  O  O359  1  0.08470918  0.58352146  0.87902785  1
  O  O360  1  0.57330021  0.08775843  0.20170085  1
  O  O361  1  0.58904040  0.08594828  0.53735055  1
  O  O362  1  0.58399805  0.06305125  0.86530064  1
  O  O363  1  0.58963086  0.58424588  0.20829399  1
  O  O364  1  0.59775565  0.59529421  0.54097945  1
  O  O365  1  0.58920398  0.59016703  0.86719411  1
  O  O366  1  0.13642867  0.21569238  0.06646232  1
  O  O367  1  0.13335720  0.21928154  0.38772777  1
  O  O368  1  0.14054473  0.22773856  0.73148731  1
  O  O369  1  0.13847266  0.72128647  0.05818114  1
  O  O370  1  0.13348831  0.71445769  0.38727156  1
  O  O371  1  0.13614213  0.71751324  0.73261091  1
  O  O372  1  0.62924673  0.22287033  0.06414838  1
  O  O373  1  0.63617070  0.22206844  0.39341917  1
  O  O374  1  0.63934964  0.22268437  0.72267529  1
  O  O375  1  0.64182760  0.72719319  0.06067464  1
  O  O376  1  0.63924887  0.71992380  0.38923142  1
  O  O377  1  0.64413090  0.71472985  0.71778032  1
  O  O378  1  0.27347122  0.36406050  0.11185509  1
  O  O379  1  0.26462192  0.35752131  0.43610219  1
  O  O380  1  0.28071517  0.35651102  0.77780417  1
  O  O381  1  0.28320873  0.86104316  0.10974672  1
  O  O382  1  0.29628825  0.87108611  0.45024521  1
  O  O383  1  0.28444597  0.86395277  0.77892159  1
  O  O384  1  0.77490682  0.36424176  0.10077907  1
  O  O385  1  0.78022203  0.36564758  0.44178695  1
  O  O386  1  0.78377076  0.36206233  0.77288221  1
  O  O387  1  0.78430696  0.86045546  0.11069394  1
  O  O388  1  0.77728122  0.85864226  0.44486431  1
  O  O389  1  0.77375587  0.85778504  0.77428233  1
  O  O390  1  0.36070460  0.28192145  0.27704084  1
  O  O391  1  0.35864536  0.27450386  0.60505942  1
  O  O392  1  0.36385679  0.28422210  0.94387810  1
  O  O393  1  0.36181955  0.78275612  0.27214426  1
  O  O394  1  0.37236384  0.78176239  0.60501388  1
  O  O395  1  0.36303940  0.77706454  0.94489704  1
  O  O396  1  0.85337532  0.28315114  0.28122655  1
  O  O397  1  0.86595572  0.28053504  0.61471343  1
  O  O398  1  0.86323779  0.28646361  0.93781449  1
  O  O399  1  0.86433179  0.76964199  0.27371047  1
  O  O400  1  0.86070373  0.77782260  0.61344094  1
  O  O401  1  0.86006234  0.76863636  0.93985751  1
  O  O402  1  0.23677112  0.13520963  0.23026653  1
  O  O403  1  0.21678771  0.13832673  0.55619190  1
  O  O404  1  0.22582489  0.13469771  0.88630676  1
  O  O405  1  0.22165794  0.63537697  0.21518293  1
  O  O406  1  0.22101688  0.63680295  0.55867427  1
  O  O407  1  0.21652942  0.63479825  0.89169483  1
  O  O408  1  0.71025551  0.13812671  0.22883339  1
  O  O409  1  0.72466591  0.13649239  0.56128711  1
  O  O410  1  0.71197792  0.13101027  0.88576332  1
  O  O411  1  0.72154863  0.64013212  0.22603888  1
  O  O412  1  0.73271908  0.63945046  0.55994860  1
  O  O413  1  0.72406853  0.64163176  0.88847258  1
  O  O414  1  0.49164685  0.34093532  0.03583805  1
  O  O415  1  0.49077428  0.33476868  0.36635354  1
  O  O416  1  0.48761656  0.32895686  0.69760508  1
  O  O417  1  0.49350359  0.83536916  0.03390832  1
  O  O418  1  0.49306840  0.82935651  0.36033440  1
  O  O419  1  0.50473279  0.83173340  0.68958681  1
  O  O420  1  0.99695732  0.34124380  0.02242616  1
  O  O421  1  0.98677044  0.33247209  0.36407570  1
  O  O422  1  0.99697780  0.33829201  0.69908510  1
  O  O423  1  0.98586937  0.83362654  0.03202927  1
  O  O424  1  0.99329937  0.82648554  0.36423798  1
  O  O425  1  0.99189595  0.83333733  0.70114514  1
  O  O426  1  0.17106736  0.01023840  0.13898406  1
  O  O427  1  0.17281508  0.00626814  0.46809406  1
  O  O428  1  0.16495097  0.00520413  0.79801172  1
  O  O429  1  0.16245923  0.50364288  0.13492692  1
  O  O430  1  0.16086351  0.50896733  0.46580591  1
  O  O431  1  0.15771965  0.50203078  0.80867789  1
  O  O432  1  0.65307985  0.00656560  0.14067758  1
  O  O433  1  0.66782343  0.00750378  0.47060154  1
  O  O434  1  0.66692655  0.00135826  0.79390404  1
  O  O435  1  0.66738870  0.51062794  0.13633253  1
  O  O436  1  0.67175821  0.51129167  0.47105504  1
  O  O437  1  0.66923805  0.51013178  0.80293400  1
  O  O438  1  0.00190725  0.15900427  0.30153042  1
  O  O439  1  0.01326417  0.17015878  0.63843516  1
  O  O440  1  0.01066420  0.17073524  0.97027004  1
  O  O441  1  0.00212237  0.66203416  0.30187123  1
  O  O442  1  0.00675770  0.67106448  0.64066237  1
  O  O443  1  0.00709632  0.66701428  0.97187183  1
  O  O444  1  0.50546626  0.16815696  0.30692354  1
  O  O445  1  0.50870098  0.16570655  0.63390057  1
  O  O446  1  0.49718147  0.17780261  0.97669573  1
  O  O447  1  0.50836108  0.66436236  0.30069301  1
  O  O448  1  0.51111069  0.66536008  0.63330962  1
  O  O449  1  0.51188657  0.67319602  0.96883537  1
  O  O450  1  0.33253331  0.49476280  0.19934865  1
  O  O451  1  0.32261470  0.48453871  0.52999803  1
  O  O452  1  0.33049000  0.48852384  0.86321322  1
  O  O453  1  0.33664202  0.99204063  0.19754772  1
  O  O454  1  0.34983012  1.00754774  0.52530763  1
  O  O455  1  0.32892740  0.99498754  0.86971885  1
  O  O456  1  0.82985990  0.49153672  0.19379740  1
  O  O457  1  0.83437152  0.49513868  0.53111487  1
  O  O458  1  0.83380792  0.49421394  0.86046441  1
  O  O459  1  0.82746141  0.99558149  0.19273473  1
  O  O460  1  0.83400324  0.98781464  0.53566139  1
  O  O461  1  0.82783233  0.98638983  0.86678521  1
