# generated using pymatgen
data_Na31Fe20(SO4)36
_symmetry_space_group_name_H-M   'P 1'
_cell_length_a   18.07054078
_cell_length_b   18.07130676
_cell_length_c   19.71391252
_cell_angle_alpha   107.58133058
_cell_angle_beta   107.57706042
_cell_angle_gamma   90.75922205
_symmetry_Int_Tables_number   1
_chemical_formula_structural   Na31Fe20(SO4)36
_chemical_formula_sum   'Na62 Fe40 S72 O288'
_cell_volume   5811.71665279
_cell_formula_units_Z   2
loop_
 _symmetry_equiv_pos_site_id
 _symmetry_equiv_pos_as_xyz
  1  'x, y, z'
loop_
 _atom_site_type_symbol
 _atom_site_label
 _atom_site_symmetry_multiplicity
 _atom_site_fract_x
 _atom_site_fract_y
 _atom_site_fract_z
 _atom_site_occupancy
  Na  Na0  1  0.14312195  0.36381593  0.09424478  1
  Na  Na1  1  0.13982066  0.35890243  0.40844520  1
  Na  Na2  1  0.14104699  0.35416404  0.74570777  1
  Na  Na3  1  0.13716181  0.86164702  0.07733147  1
  Na  Na4  1  0.13314810  0.86266399  0.41720226  1
  Na  Na5  1  0.14049352  0.87699067  0.76479795  1
  Na  Na6  1  0.63877591  0.36812223  0.08571484  1
  Na  Na7  1  0.62889010  0.36725025  0.41389532  1
  Na  Na8  1  0.62335453  0.37135066  0.74964290  1
  Na  Na9  1  0.63415123  0.86616431  0.08223325  1
  Na  Na10  1  0.63123062  0.86489169  0.41111931  1
  Na  Na11  1  0.63952703  0.87355996  0.76194511  1
  Na  Na12  1  0.35465138  0.13601408  0.24109733  1
  Na  Na13  1  0.37027590  0.15058126  0.60442100  1
  Na  Na14  1  0.35881980  0.13332153  0.91336099  1
  Na  Na15  1  0.36837704  0.64115318  0.25118533  1
  Na  Na16  1  0.36569246  0.62094478  0.57222679  1
  Na  Na17  1  0.36503486  0.63993544  0.91816216  1
  Na  Na18  1  0.85941392  0.14141743  0.24275251  1
  Na  Na19  1  0.87923560  0.13952558  0.59864937  1
  Na  Na20  1  0.86009113  0.12799866  0.91280079  1
  Na  Na21  1  0.85733921  0.62867369  0.24183826  1
  Na  Na22  1  0.86896903  0.63304486  0.58559875  1
  Na  Na23  1  0.86596178  0.63564238  0.91880683  1
  Na  Na24  1  0.99103891  0.00428280  0.42664908  1
  Na  Na25  1  1.00948993  0.47674372  0.76170065  1
  Na  Na26  1  0.49498045  0.01984796  0.73021676  1
  Na  Na27  1  1.02140647  0.49169321  0.40902929  1
  Na  Na28  1  0.48072686  0.00948178  0.43981731  1
  Na  Na29  1  0.97674455  0.51498437  0.08285021  1
  Na  Na30  1  0.44519583  0.00295362  0.06589108  1
  Na  Na31  1  0.49997419  0.54036644  0.09448684  1
  Na  Na32  1  0.98521379  0.03441476  0.07323432  1
  Na  Na33  1  -0.00940979  1.02356876  0.23802187  1
  Na  Na34  1  -0.00019010  0.43871632  0.90756458  1
  Na  Na35  1  0.49775787  0.50359771  0.26477249  1
  Na  Na36  1  0.50377381  0.99655464  0.91185432  1
  Na  Na37  1  0.53142585  0.47800905  0.90564586  1
  Na  Na38  1  0.04052024  0.49326702  0.25360813  1
  Na  Na39  1  0.50676740  0.98068249  0.25048300  1
  Na  Na40  1  0.01340289  0.48921853  0.58483040  1
  Na  Na41  1  0.00628350  1.00161292  0.89865972  1
  Na  Na42  1  0.73583489  0.74007882  0.33655805  1
  Na  Na43  1  0.24384618  0.73768997  0.33664928  1
  Na  Na44  1  0.24252605  0.24611792  0.00719761  1
  Na  Na45  1  0.75072403  0.25113765  0.67272487  1
  Na  Na46  1  0.25505022  0.25430656  0.32139003  1
  Na  Na47  1  0.74148033  0.74545723  0.00621053  1
  Na  Na48  1  0.74366525  0.24158337  0.01441540  1
  Na  Na49  1  0.75777783  0.25910837  0.32197813  1
  Na  Na50  1  0.74647623  0.74796753  0.67207715  1
  Na  Na51  1  0.24332476  0.74533527  0.67373726  1
  Na  Na52  1  0.24609833  0.75007920  0.84940099  1
  Na  Na53  1  0.72081241  0.72355694  0.16799207  1
  Na  Na54  1  0.75332744  0.24878657  0.50140189  1
  Na  Na55  1  0.24612769  0.24607585  0.50675310  1
  Na  Na56  1  0.75396089  0.75875177  0.84082088  1
  Na  Na57  1  0.23964340  0.73396959  0.50410639  1
  Na  Na58  1  0.25841099  0.75773026  0.15374960  1
  Na  Na59  1  0.74287975  0.24456253  0.83927637  1
  Na  Na60  1  0.27143755  0.26025384  0.81739403  1
  Na  Na61  1  0.74176135  0.74239068  0.50405919  1
  Fe  Fe62  1  0.46346845  0.31131451  0.12240429  1
  Fe  Fe63  1  0.46402216  0.31334182  0.45479266  1
  Fe  Fe64  1  0.96485190  0.81019998  0.11659519  1
  Fe  Fe65  1  0.46341206  0.80791406  0.78515748  1
  Fe  Fe66  1  0.97249719  0.29751396  0.12849485  1
  Fe  Fe67  1  0.46703273  0.80075540  0.11626657  1
  Fe  Fe68  1  0.46716193  0.80711717  0.45295579  1
  Fe  Fe69  1  0.96177651  0.80985183  0.45428167  1
  Fe  Fe70  1  0.96342346  0.80811861  0.78675588  1
  Fe  Fe71  1  0.96894204  0.30351910  0.45101329  1
  Fe  Fe72  1  0.19003472  0.03467226  0.37981779  1
  Fe  Fe73  1  0.69695423  0.03470817  0.04445398  1
  Fe  Fe74  1  0.19790976  0.03350934  0.04533649  1
  Fe  Fe75  1  0.19160563  0.53501942  0.04586233  1
  Fe  Fe76  1  0.69008390  0.53505716  0.71060109  1
  Fe  Fe77  1  0.19189343  0.03229615  0.71425628  1
  Fe  Fe78  1  0.69324978  0.03211707  0.71231849  1
  Fe  Fe79  1  0.69266618  0.53341011  0.38040617  1
  Fe  Fe80  1  0.69279647  0.03552804  0.37914608  1
  Fe  Fe81  1  0.19658173  0.53549966  0.71877837  1
  Fe  Fe82  1  0.53544042  0.68894680  0.87613183  1
  Fe  Fe83  1  0.53297613  0.19211860  0.21155672  1
  Fe  Fe84  1  0.53362055  0.19769451  0.54865307  1
  Fe  Fe85  1  0.03395096  0.69080115  0.54664166  1
  Fe  Fe86  1  0.03411278  0.69383466  0.88412568  1
  Fe  Fe87  1  0.53073022  0.20296567  0.87803804  1
  Fe  Fe88  1  0.53608302  0.69012397  0.54512838  1
  Fe  Fe89  1  0.03974934  0.19330475  0.55203015  1
  Fe  Fe90  1  0.03057997  0.19629973  0.87304981  1
  Fe  Fe91  1  0.03308567  0.69506204  0.21542501  1
  Fe  Fe92  1  0.81239615  0.96361723  0.62185916  1
  Fe  Fe93  1  0.81119735  0.46340627  0.62238624  1
  Fe  Fe94  1  0.80926361  0.46189964  0.28484261  1
  Fe  Fe95  1  0.80499138  0.96598132  0.28243972  1
  Fe  Fe96  1  0.30559942  0.96472246  0.28532740  1
  Fe  Fe97  1  0.31142206  0.46807707  0.95290981  1
  Fe  Fe98  1  0.31625827  0.46242771  0.62442017  1
  Fe  Fe99  1  0.30535585  0.96233200  0.61836865  1
  Fe  Fe100  1  0.30143858  0.46989050  0.29179523  1
  Fe  Fe101  1  0.80265058  0.46837986  0.95739949  1
  S  S102  1  0.35862881  0.14447794  0.08348885  1
  S  S103  1  0.35859708  0.13997446  0.41627605  1
  S  S104  1  0.36034247  0.13653366  0.75042859  1
  S  S105  1  0.35738200  0.64084765  0.08493510  1
  S  S106  1  0.36130021  0.64279583  0.41498154  1
  S  S107  1  0.35813572  0.64195087  0.74712873  1
  S  S108  1  0.86057223  0.13991440  0.08337580  1
  S  S109  1  0.86082074  0.13855319  0.41689789  1
  S  S110  1  0.85631484  0.13901175  0.74993138  1
  S  S111  1  0.85907679  0.64467862  0.08353110  1
  S  S112  1  0.85910403  0.64071749  0.41728531  1
  S  S113  1  0.86042760  0.63993144  0.74930616  1
  S  S114  1  0.13967276  0.36022112  0.25412784  1
  S  S115  1  0.14151955  0.36201929  0.58480689  1
  S  S116  1  0.14531822  0.36153004  0.91480751  1
  S  S117  1  0.14000633  0.85725343  0.25112527  1
  S  S118  1  0.13885123  0.85758538  0.58208369  1
  S  S119  1  0.13638253  0.86157654  0.91535668  1
  S  S120  1  0.63916509  0.35837360  0.25257728  1
  S  S121  1  0.64398274  0.35821830  0.58166732  1
  S  S122  1  0.64628114  0.35909792  0.92066254  1
  S  S123  1  0.64052167  0.86075893  0.24704494  1
  S  S124  1  0.64129087  0.85983291  0.58202440  1
  S  S125  1  0.63810507  0.86205399  0.91595334  1
  S  S126  1  0.06752969  0.17118148  0.03767338  1
  S  S127  1  0.06299173  0.16548429  0.37792340  1
  S  S128  1  0.07328662  0.16809322  0.71080227  1
  S  S129  1  0.06451663  0.66612697  0.04184062  1
  S  S130  1  0.05896413  0.66944990  0.37598969  1
  S  S131  1  0.06782083  0.67003896  0.71104974  1
  S  S132  1  0.56718828  0.17146877  0.04150717  1
  S  S133  1  0.56633729  0.16846544  0.37471584  1
  S  S134  1  0.56992089  0.16718670  0.70596530  1
  S  S135  1  0.56052807  0.66607081  0.03539285  1
  S  S136  1  0.56714294  0.67030285  0.37727850  1
  S  S137  1  0.57105118  0.67527991  0.70987671  1
  S  S138  1  0.33101775  0.43726125  0.12710058  1
  S  S139  1  0.32785514  0.42875058  0.45643912  1
  S  S140  1  0.33408390  0.44033028  0.79418854  1
  S  S141  1  0.33276508  0.93317780  0.12701170  1
  S  S142  1  0.32631746  0.92916534  0.45562133  1
  S  S143  1  0.33223395  0.93373176  0.78908774  1
  S  S144  1  0.84348314  0.43070357  0.12996194  1
  S  S145  1  0.83316925  0.43206476  0.45846485  1
  S  S146  1  0.82944295  0.43755345  0.79158962  1
  S  S147  1  0.83045277  0.93492630  0.12327281  1
  S  S148  1  0.82727298  0.93250833  0.45492977  1
  S  S149  1  0.82938168  0.93205199  0.78967913  1
  S  S150  1  0.42928048  0.33117533  0.29064126  1
  S  S151  1  0.43555008  0.32933730  0.62107969  1
  S  S152  1  0.43505061  0.33425287  0.96224905  1
  S  S153  1  0.43354702  0.83797702  0.29330204  1
  S  S154  1  0.43228038  0.82659465  0.62191995  1
  S  S155  1  0.43891495  0.83002600  0.95410704  1
  S  S156  1  0.93441024  0.33055571  0.29385066  1
  S  S157  1  0.93915926  0.33259892  0.62377368  1
  S  S158  1  0.93126822  0.32462407  0.96296400  1
  S  S159  1  0.92959260  0.83114538  0.29028585  1
  S  S160  1  0.93085369  0.82511019  0.62142766  1
  S  S161  1  0.93913349  0.83722770  0.95918683  1
  S  S162  1  0.16835778  0.05910839  0.20749874  1
  S  S163  1  0.17170606  0.06532699  0.54068878  1
  S  S164  1  0.16689253  0.07153203  0.87682348  1
  S  S165  1  0.16676851  0.56840825  0.20542410  1
  S  S166  1  0.16471458  0.56289429  0.54391449  1
  S  S167  1  0.16747245  0.56825515  0.87493261  1
  S  S168  1  0.66774889  0.06835218  0.20778471  1
  S  S169  1  0.67225387  0.07011688  0.54126931  1
  S  S170  1  0.66054932  0.06971696  0.87294047  1
  S  S171  1  0.66858688  0.55636860  0.21359298  1
  S  S172  1  0.67542529  0.56832631  0.54506947  1
  S  S173  1  0.67401302  0.56902383  0.87492970  1
  O  O174  1  0.36806883  0.22621048  0.08131265  1
  O  O175  1  0.36903503  0.21843635  0.40859435  1
  O  O176  1  0.36373158  0.21133228  0.73773354  1
  O  O177  1  0.36656807  0.72224565  0.08276692  1
  O  O178  1  0.37571171  0.71977886  0.40211553  1
  O  O179  1  0.36871904  0.72133146  0.73959968  1
  O  O180  1  0.87440882  0.22523132  0.08616115  1
  O  O181  1  0.87026512  0.21744296  0.40869902  1
  O  O182  1  0.86324523  0.21488307  0.73916774  1
  O  O183  1  0.87220104  0.72164506  0.07136474  1
  O  O184  1  0.86605052  0.72048618  0.40988198  1
  O  O185  1  0.87194057  0.71740333  0.73820024  1
  O  O186  1  0.28085504  0.13312027  0.09264151  1
  O  O187  1  0.27885996  0.13019180  0.42283748  1
  O  O188  1  0.28360346  0.12130137  0.76176012  1
  O  O189  1  0.27613693  0.63006812  0.08920276  1
  O  O190  1  0.28423191  0.64011669  0.42439997  1
  O  O191  1  0.27925946  0.63711690  0.75781899  1
  O  O192  1  0.77784896  0.13356469  0.08383971  1
  O  O193  1  0.78085376  0.13048817  0.42347121  1
  O  O194  1  0.77762946  0.12687814  0.76042691  1
  O  O195  1  0.78275835  0.63856295  0.09312142  1
  O  O196  1  0.78010136  0.63134723  0.42575559  1
  O  O197  1  0.78030798  0.63548623  0.75568224  1
  O  O198  1  0.13557055  0.28422464  0.26477447  1
  O  O199  1  0.13283808  0.28389259  0.59331257  1
  O  O200  1  0.13353624  0.28204103  0.92003358  1
  O  O201  1  0.12938998  0.77944584  0.26226477  1
  O  O202  1  0.13068243  0.77659889  0.58747979  1
  O  O203  1  0.12458724  0.78251681  0.92304320  1
  O  O204  1  0.62715274  0.28064129  0.26303213  1
  O  O205  1  0.63669165  0.27813062  0.58836855  1
  O  O206  1  0.63562243  0.27569507  0.92129971  1
  O  O207  1  0.63496081  0.78359733  0.25549692  1
  O  O208  1  0.63484299  0.77941736  0.58825233  1
  O  O209  1  0.62904577  0.78223048  0.92391967  1
  O  O210  1  0.21524751  0.37676398  0.24177254  1
  O  O211  1  0.21991095  0.37293113  0.57715005  1
  O  O212  1  0.22636015  0.37183710  0.91098605  1
  O  O213  1  0.21977900  0.86396805  0.24445649  1
  O  O214  1  0.21618685  0.86509378  0.56957716  1
  O  O215  1  0.20844838  0.86879188  0.89816990  1
  O  O216  1  0.72010150  0.36575140  0.24993011  1
  O  O217  1  0.72453365  0.36850122  0.57552547  1
  O  O218  1  0.72985514  0.36715997  0.91965654  1
  O  O219  1  0.71833862  0.87379086  0.23653915  1
  O  O220  1  0.71948784  0.87017790  0.57212015  1
  O  O221  1  0.71083546  0.87112390  0.90041515  1
  O  O222  1  0.41891306  0.13402416  0.15147119  1
  O  O223  1  0.41737091  0.13012906  0.48413463  1
  O  O224  1  0.42200572  0.13259398  0.81963848  1
  O  O225  1  0.41454612  0.62716928  0.14924688  1
  O  O226  1  0.42150013  0.63575876  0.48289701  1
  O  O227  1  0.41720026  0.63159739  0.81294227  1
  O  O228  1  0.91421409  0.12538992  0.14967227  1
  O  O229  1  0.91880988  0.12955009  0.48497512  1
  O  O230  1  0.91589424  0.13224194  0.81796250  1
  O  O231  1  0.92050261  0.63691831  0.15149448  1
  O  O232  1  0.91773157  0.63276491  0.48570345  1
  O  O233  1  0.91755785  0.63265116  0.81834117  1
  O  O234  1  0.36790326  0.08904727  0.01590217  1
  O  O235  1  0.36706109  0.08026904  0.34860289  1
  O  O236  1  0.37134021  0.07300502  0.68489921  1
  O  O237  1  0.36420608  0.58574416  0.01347431  1
  O  O238  1  0.36647230  0.58120549  0.34686985  1
  O  O239  1  0.36065877  0.58403261  0.67658471  1
  O  O240  1  0.87121155  0.08905807  0.01438667  1
  O  O241  1  0.86903398  0.07893267  0.34910569  1
  O  O242  1  0.86193322  0.07702171  0.68179082  1
  O  O243  1  0.86803784  0.58303413  0.01665096  1
  O  O244  1  0.86803155  0.58269571  0.34970383  1
  O  O245  1  0.86896890  0.57907522  0.68254463  1
  O  O246  1  0.07756801  0.36141674  0.18090889  1
  O  O247  1  0.08167672  0.36999487  0.51638269  1
  O  O248  1  0.08836614  0.37448678  0.84940967  1
  O  O249  1  0.08256024  0.86223858  0.18112826  1
  O  O250  1  0.07812728  0.86727265  0.51601670  1
  O  O251  1  0.07001486  0.87394378  0.85239894  1
  O  O252  1  0.58267820  0.36437853  0.18273652  1
  O  O253  1  0.58671350  0.36395999  0.51235514  1
  O  O254  1  0.59339279  0.36952963  0.85228516  1
  O  O255  1  0.57982100  0.86950172  0.17979169  1
  O  O256  1  0.58138098  0.86832180  0.51480623  1
  O  O257  1  0.57190974  0.87321379  0.85272722  1
  O  O258  1  0.12466234  0.42192749  0.31558158  1
  O  O259  1  0.13048452  0.42180499  0.65165605  1
  O  O260  1  0.13694649  0.41887640  0.98530324  1
  O  O261  1  0.13097867  0.91758101  0.31765682  1
  O  O262  1  0.13511635  0.91387766  0.65257229  1
  O  O263  1  0.13472129  0.92023214  0.98661971  1
  O  O264  1  0.62751376  0.41930332  0.31836183  1
  O  O265  1  0.63581646  0.41606576  0.64942036  1
  O  O266  1  0.63627170  0.41377748  0.98807527  1
  O  O267  1  0.63189919  0.92170119  0.31493231  1
  O  O268  1  0.63397532  0.91621838  0.65133856  1
  O  O269  1  0.63438659  0.91999164  0.98713135  1
  O  O270  1  0.02913544  0.19972767  0.09721132  1
  O  O271  1  0.03285625  0.19914541  0.44442867  1
  O  O272  1  0.03270832  0.19058190  0.76723773  1
  O  O273  1  0.03025324  0.69821932  0.10429817  1
  O  O274  1  0.02444645  0.70605136  0.43789770  1
  O  O275  1  0.03191855  0.69979987  0.77195137  1
  O  O276  1  0.53007712  0.19974955  0.10282914  1
  O  O277  1  0.52971069  0.19627058  0.43535838  1
  O  O278  1  0.53401674  0.19031875  0.76563667  1
  O  O279  1  0.52582742  0.70040075  0.09610928  1
  O  O280  1  0.53734646  0.70462196  0.44330858  1
  O  O281  1  0.53207179  0.70393631  0.76919575  1
  O  O282  1  0.30451289  0.47394566  0.06574022  1
  O  O283  1  0.30304481  0.46595161  0.39753511  1
  O  O284  1  0.29853809  0.47495968  0.73055368  1
  O  O285  1  0.30423060  0.97138484  0.06903679  1
  O  O286  1  0.29728906  0.96830895  0.39641180  1
  O  O287  1  0.29504190  0.96106655  0.72153704  1
  O  O288  1  0.83470025  0.47096462  0.07357116  1
  O  O289  1  0.80238084  0.46835745  0.39782121  1
  O  O290  1  0.79512299  0.47550412  0.73127270  1
  O  O291  1  0.80035782  0.97174860  0.06503229  1
  O  O292  1  0.79698653  0.96970171  0.39424607  1
  O  O293  1  0.79492221  0.96206787  0.72346851  1
  O  O294  1  0.46809920  0.30106064  0.23080462  1
  O  O295  1  0.47236709  0.29927202  0.55730584  1
  O  O296  1  0.47308359  0.30637185  0.90402255  1
  O  O297  1  0.46854273  0.82254173  0.23293282  1
  O  O298  1  0.47022342  0.79830866  0.56174973  1
  O  O299  1  0.47096279  0.78940854  0.89115639  1
  O  O300  1  0.96832309  0.30324774  0.23251038  1
  O  O301  1  0.96889323  0.29864943  0.55769715  1
  O  O302  1  0.97369949  0.30132279  0.90750930  1
  O  O303  1  0.96663023  0.80291187  0.22957006  1
  O  O304  1  0.96869393  0.79394875  0.56097776  1
  O  O305  1  0.96514931  0.79184495  0.89302415  1
  O  O306  1  0.20121485  0.02194807  0.26937365  1
  O  O307  1  0.20136860  0.02921967  0.60196299  1
  O  O308  1  0.18715561  0.03605653  0.93750331  1
  O  O309  1  0.19602630  0.53599924  0.26719011  1
  O  O310  1  0.19675775  0.53458686  0.61010015  1
  O  O311  1  0.19897829  0.53370658  0.93665126  1
  O  O312  1  0.69918550  0.03270195  0.26986544  1
  O  O313  1  0.69805178  0.03212193  0.60081473  1
  O  O314  1  0.67928750  0.03392219  0.93279747  1
  O  O315  1  0.71015375  0.52517794  0.27885625  1
  O  O316  1  0.70557019  0.53007497  0.60493475  1
  O  O317  1  0.70292105  0.53105216  0.93301123  1
  O  O318  1  0.08694557  0.09007521  0.03627241  1
  O  O319  1  0.08069260  0.08294295  0.37504222  1
  O  O320  1  0.09244633  0.08648813  0.69805075  1
  O  O321  1  0.07854970  0.58305829  0.03574130  1
  O  O322  1  0.06950231  0.58827088  0.37251973  1
  O  O323  1  0.08598692  0.58817866  0.70581759  1
  O  O324  1  0.58584811  0.08961212  0.03613694  1
  O  O325  1  0.58298076  0.08540932  0.36666245  1
  O  O326  1  0.58895779  0.08444499  0.69521300  1
  O  O327  1  0.57292941  0.58470141  0.03111121  1
  O  O328  1  0.59187425  0.59181248  0.37942909  1
  O  O329  1  0.59416494  0.59707843  0.70828185  1
  O  O330  1  0.41478684  0.42195858  0.13747109  1
  O  O331  1  0.40998732  0.41097724  0.46663520  1
  O  O332  1  0.41508412  0.43034436  0.80076223  1
  O  O333  1  0.41314887  0.91093985  0.12651173  1
  O  O334  1  0.40748180  0.91098167  0.45910761  1
  O  O335  1  0.41290026  0.91377936  0.78746967  1
  O  O336  1  0.92548928  0.40556456  0.14690965  1
  O  O337  1  0.91534064  0.41486464  0.46338974  1
  O  O338  1  0.90992265  0.42434170  0.79224001  1
  O  O339  1  0.91307828  0.91677713  0.12850781  1
  O  O340  1  0.90833150  0.91446352  0.45668177  1
  O  O341  1  0.90956358  0.91099726  0.78948340  1
  O  O342  1  0.40937227  0.41109994  0.29201704  1
  O  O343  1  0.41464231  0.40900713  0.62268122  1
  O  O344  1  0.41809787  0.41719849  0.96927327  1
  O  O345  1  0.41614066  0.92261212  0.31218819  1
  O  O346  1  0.41164052  0.90714744  0.62620096  1
  O  O347  1  0.43264735  0.91130596  0.95440483  1
  O  O348  1  0.91669479  0.41377015  0.30386797  1
  O  O349  1  0.91954920  0.41454518  0.62505265  1
  O  O350  1  0.91382078  0.40747397  0.96836550  1
  O  O351  1  0.91308031  0.91387328  0.29763329  1
  O  O352  1  0.90960402  0.90343093  0.62090160  1
  O  O353  1  0.94024905  0.91943288  0.96311859  1
  O  O354  1  0.08517154  0.06535228  0.19816677  1
  O  O355  1  0.09072863  0.08527934  0.53616058  1
  O  O356  1  0.08427218  0.09016474  0.86349441  1
  O  O357  1  0.08270900  0.58479450  0.19904500  1
  O  O358  1  0.08200065  0.58304874  0.54112118  1
  O  O359  1  0.08565782  0.58619813  0.87121399  1
  O  O360  1  0.58453967  0.08151495  0.20177813  1
  O  O361  1  0.59177958  0.09252249  0.53424512  1
  O  O362  1  0.57749154  0.08925815  0.85863215  1
  O  O363  1  0.58852476  0.56651392  0.21605855  1
  O  O364  1  0.59704041  0.59025108  0.54325142  1
  O  O365  1  0.59324215  0.58867004  0.87223480  1
  O  O366  1  0.13685000  0.22430172  0.05254541  1
  O  O367  1  0.13493022  0.21488772  0.39151379  1
  O  O368  1  0.14371131  0.22278761  0.73077446  1
  O  O369  1  0.13616413  0.71567794  0.05597392  1
  O  O370  1  0.13306452  0.71785350  0.39178621  1
  O  O371  1  0.13877991  0.72260742  0.72683996  1
  O  O372  1  0.63678816  0.22501693  0.05806783  1
  O  O373  1  0.63882673  0.21972566  0.39263422  1
  O  O374  1  0.64096771  0.22051886  0.72242060  1
  O  O375  1  0.63435268  0.71582949  0.05098038  1
  O  O376  1  0.63665910  0.72401384  0.38938187  1
  O  O377  1  0.64029560  0.73160777  0.72711315  1
  O  O378  1  0.27971295  0.36524779  0.10777934  1
  O  O379  1  0.27557248  0.35583543  0.43754165  1
  O  O380  1  0.28337003  0.36867439  0.77879100  1
  O  O381  1  0.27941754  0.86549995  0.11619439  1
  O  O382  1  0.27391426  0.85732606  0.43737340  1
  O  O383  1  0.28257421  0.86278609  0.77903584  1
  O  O384  1  0.78418152  0.36423180  0.10700613  1
  O  O385  1  0.78173194  0.36002462  0.44210469  1
  O  O386  1  0.77879742  0.36526355  0.77496550  1
  O  O387  1  0.77994280  0.86367009  0.11052250  1
  O  O388  1  0.77546713  0.86070157  0.43805780  1
  O  O389  1  0.77837348  0.86031298  0.77625949  1
  O  O390  1  0.36043425  0.27716435  0.27566478  1
  O  O391  1  0.36418797  0.27555162  0.60021718  1
  O  O392  1  0.36240886  0.28279511  0.94441910  1
  O  O393  1  0.36177384  0.78462979  0.27274531  1
  O  O394  1  0.36219836  0.77239398  0.60523730  1
  O  O395  1  0.36435601  0.78563097  0.94153741  1
  O  O396  1  0.86468522  0.27940576  0.28155529  1
  O  O397  1  0.86785947  0.28255782  0.61168139  1
  O  O398  1  0.85999513  0.27153428  0.94288055  1
  O  O399  1  0.85835611  0.77914757  0.27394706  1
  O  O400  1  0.86053866  0.77090325  0.60530985  1
  O  O401  1  0.86235449  0.79788436  0.94923035  1
  O  O402  1  0.21630073  0.13373298  0.22848363  1
  O  O403  1  0.22460966  0.13376163  0.55298814  1
  O  O404  1  0.22128963  0.14211715  0.89558076  1
  O  O405  1  0.21499589  0.64100108  0.21737384  1
  O  O406  1  0.21467526  0.63461705  0.55573895  1
  O  O407  1  0.21843575  0.63721829  0.88526078  1
  O  O408  1  0.71724709  0.14130237  0.22544605  1
  O  O409  1  0.72813866  0.13915683  0.55809476  1
  O  O410  1  0.71620212  0.13953955  0.89208510  1
  O  O411  1  0.71511581  0.63260843  0.23021058  1
  O  O412  1  0.73082029  0.63834525  0.56223886  1
  O  O413  1  0.72627889  0.64134403  0.89126739  1
  O  O414  1  0.49153857  0.33617868  0.03679162  1
  O  O415  1  0.48949515  0.33520677  0.36384110  1
  O  O416  1  0.49425443  0.33029443  0.69017284  1
  O  O417  1  0.49588615  0.83022770  0.02757446  1
  O  O418  1  0.49277643  0.83229192  0.36313758  1
  O  O419  1  0.49210306  0.83046940  0.69458305  1
  O  O420  1  0.98624105  0.32727825  0.03880768  1
  O  O421  1  0.99682447  0.33363754  0.36611650  1
  O  O422  1  1.00181687  0.34032224  0.69344256  1
  O  O423  1  0.99758452  0.83013545  0.02939136  1
  O  O424  1  0.98928601  0.83362156  0.36319718  1
  O  O425  1  0.98995583  0.82889970  0.69407663  1
  O  O426  1  0.17649614  0.00409342  0.13669988  1
  O  O427  1  0.16546951  0.00302427  0.46767096  1
  O  O428  1  0.17100564  0.01169824  0.80662639  1
  O  O429  1  0.16290567  0.50793900  0.13242951  1
  O  O430  1  0.15697830  0.50046319  0.47411259  1
  O  O431  1  0.15983136  0.50560873  0.80160880  1
  O  O432  1  0.66967974  0.01023298  0.13658102  1
  O  O433  1  0.66835323  0.00998326  0.46803975  1
  O  O434  1  0.66265364  0.01011595  0.80141339  1
  O  O435  1  0.67005209  0.50021430  0.14362669  1
  O  O436  1  0.67310194  0.50914173  0.47252272  1
  O  O437  1  0.66936080  0.51199235  0.80020176  1
  O  O438  1  0.00018604  0.16047834  0.30901840  1
  O  O439  1  0.01507047  0.17119655  0.63807597  1
  O  O440  1  0.00835896  0.16387235  0.96305630  1
  O  O441  1  0.00192287  0.67052296  0.30302686  1
  O  O442  1  0.00826281  0.66677823  0.63827616  1
  O  O443  1  0.00419276  0.66546030  0.97027422  1
  O  O444  1  0.50788222  0.16823371  0.30253886  1
  O  O445  1  0.51046963  0.16696506  0.63362836  1
  O  O446  1  0.50727469  0.16824389  0.96877089  1
  O  O447  1  0.50406204  0.66083494  0.30782446  1
  O  O448  1  0.51216207  0.67040615  0.63644202  1
  O  O449  1  0.50357472  0.66645029  0.96177390  1
  O  O450  1  0.32929618  0.49556484  0.19881569  1
  O  O451  1  0.32457898  0.48585988  0.52832490  1
  O  O452  1  0.32858949  0.50061768  0.86458081  1
  O  O453  1  0.34546188  0.99268701  0.20368505  1
  O  O454  1  0.32870965  0.98681101  0.52862070  1
  O  O455  1  0.34107744  0.99737278  0.85805783  1
  O  O456  1  0.84160494  0.49042467  0.20146871  1
  O  O457  1  0.83569927  0.49087678  0.53130223  1
  O  O458  1  0.83247021  0.49356575  0.86634906  1
  O  O459  1  0.83774734  0.99416898  0.19915691  1
  O  O460  1  0.83049571  0.99033777  0.52781982  1
  O  O461  1  0.83527914  0.99376277  0.85886211  1
