# generated using pymatgen
data_Na31Fe20(SO4)36
_symmetry_space_group_name_H-M   'P 1'
_cell_length_a   18.08332752
_cell_length_b   18.07516037
_cell_length_c   19.72489040
_cell_angle_alpha   107.55523006
_cell_angle_beta   107.58926210
_cell_angle_gamma   90.72624039
_symmetry_Int_Tables_number   1
_chemical_formula_structural   Na31Fe20(SO4)36
_chemical_formula_sum   'Na62 Fe40 S72 O288'
_cell_volume   5821.24124348
_cell_formula_units_Z   2
loop_
 _symmetry_equiv_pos_site_id
 _symmetry_equiv_pos_as_xyz
  1  'x, y, z'
loop_
 _atom_site_type_symbol
 _atom_site_label
 _atom_site_symmetry_multiplicity
 _atom_site_fract_x
 _atom_site_fract_y
 _atom_site_fract_z
 _atom_site_occupancy
  Na  Na0  1  0.13436799  0.37062763  0.08565209  1
  Na  Na1  1  0.12611677  0.35118675  0.40030983  1
  Na  Na2  1  0.15000450  0.37608690  0.76835132  1
  Na  Na3  1  0.12723278  0.86636780  0.08610262  1
  Na  Na4  1  0.15701881  0.84920171  0.41435815  1
  Na  Na5  1  0.13792553  0.86433499  0.75389781  1
  Na  Na6  1  0.62509504  0.36831413  0.08224579  1
  Na  Na7  1  0.63059439  0.36400499  0.41518934  1
  Na  Na8  1  0.63452367  0.36579564  0.75747494  1
  Na  Na9  1  0.63228070  0.87352531  0.08268617  1
  Na  Na10  1  0.63589162  0.86357587  0.41637350  1
  Na  Na11  1  0.63979972  0.86310178  0.74794079  1
  Na  Na12  1  0.36732442  0.13315190  0.24732653  1
  Na  Na13  1  0.37422579  0.14134028  0.59491608  1
  Na  Na14  1  0.37289724  0.13832386  0.92494535  1
  Na  Na15  1  0.32091955  0.64007850  0.21568513  1
  Na  Na16  1  0.35754537  0.63419195  0.57412352  1
  Na  Na17  1  0.36171681  0.63220816  0.91951320  1
  Na  Na18  1  0.86080448  0.13174219  0.24123169  1
  Na  Na19  1  0.87429875  0.13111311  0.58661045  1
  Na  Na20  1  0.86862399  0.13922721  0.91997811  1
  Na  Na21  1  0.87173363  0.62614601  0.24788592  1
  Na  Na22  1  0.86597873  0.64323186  0.59352310  1
  Na  Na23  1  0.87216307  0.62239194  0.91934715  1
  Na  Na24  1  0.48793277  0.00621208  0.75964284  1
  Na  Na25  1  0.97914512  0.52502067  0.77371384  1
  Na  Na26  1  0.47756236  0.50777470  0.42937911  1
  Na  Na27  1  1.01511374  -0.01036347  0.41854752  1
  Na  Na28  1  0.42587316  0.48157346  0.05128643  1
  Na  Na29  1  0.48993114  0.00853767  0.40955537  1
  Na  Na30  1  0.99788546  0.51055310  0.39765963  1
  Na  Na31  1  0.49646920  0.50137748  0.73404359  1
  Na  Na32  1  1.00188122  0.01013695  0.74326192  1
  Na  Na33  1  -0.01557450  1.03798775  0.18426486  1
  Na  Na34  1  0.50989417  0.98663201  0.58426413  1
  Na  Na35  1  -0.00392758  0.98638712  0.94032151  1
  Na  Na36  1  0.50070125  0.45267904  0.89650484  1
  Na  Na37  1  0.52974539  0.98541319  0.95734933  1
  Na  Na38  1  0.08258140  0.50965142  0.96980344  1
  Na  Na39  1  0.50314688  1.00625813  0.22042864  1
  Na  Na40  1  0.51389714  0.47283444  0.24478504  1
  Na  Na41  1  0.01029449  0.48580882  0.58542203  1
  Na  Na42  1  0.26512873  0.26154175  0.66372325  1
  Na  Na43  1  0.27451803  0.27859569  -0.00106317  1
  Na  Na44  1  0.25556140  0.75700595  0.65578784  1
  Na  Na45  1  0.75372292  0.25144224  0.66624424  1
  Na  Na46  1  0.24959254  0.24974920  0.32373663  1
  Na  Na47  1  0.22109313  0.71973983  0.01506983  1
  Na  Na48  1  0.75272406  0.74937716  -0.00698260  1
  Na  Na49  1  0.75101179  0.25172023  0.00274604  1
  Na  Na50  1  0.75165567  0.75158424  0.33376351  1
  Na  Na51  1  0.75318597  0.25180186  0.32720055  1
  Na  Na52  1  0.74489226  0.24645458  0.16294854  1
  Na  Na53  1  0.23410875  0.73904780  0.84442624  1
  Na  Na54  1  0.75930739  0.26047363  0.83507482  1
  Na  Na55  1  0.75728736  0.75595194  0.82254803  1
  Na  Na56  1  0.75801759  0.75652720  0.16280381  1
  Na  Na57  1  0.25008570  0.24861841  0.49388113  1
  Na  Na58  1  0.27967115  0.27241196  0.82807666  1
  Na  Na59  1  0.75261095  0.25419892  0.49749671  1
  Na  Na60  1  0.25729699  0.25913408  0.15783233  1
  Na  Na61  1  0.74261682  0.74140148  0.51328797  1
  Fe  Fe62  1  0.46643163  0.80611556  0.78304528  1
  Fe  Fe63  1  0.97097626  0.30224869  0.12317174  1
  Fe  Fe64  1  0.96785794  0.31171018  0.79514200  1
  Fe  Fe65  1  0.46093487  0.80401560  0.44322933  1
  Fe  Fe66  1  0.96703289  0.80227734  0.79184048  1
  Fe  Fe67  1  0.46588723  0.80359757  0.11492992  1
  Fe  Fe68  1  0.96619507  0.81149453  0.45586195  1
  Fe  Fe69  1  0.96613949  0.30002763  0.45003436  1
  Fe  Fe70  1  0.96150973  0.81141678  0.12477257  1
  Fe  Fe71  1  0.46160899  0.31005329  0.45414928  1
  Fe  Fe72  1  0.70385698  0.52634781  0.04394244  1
  Fe  Fe73  1  0.69442435  0.53526115  0.38238430  1
  Fe  Fe74  1  0.19594210  0.03350879  0.71573097  1
  Fe  Fe75  1  0.69700399  0.03464196  0.71513082  1
  Fe  Fe76  1  0.68848088  0.03641060  0.37894085  1
  Fe  Fe77  1  0.19274600  0.03176941  0.37779770  1
  Fe  Fe78  1  0.19287870  0.03378267  0.05063180  1
  Fe  Fe79  1  0.19000579  0.53850363  0.71624157  1
  Fe  Fe80  1  0.18663097  0.54092483  0.37891466  1
  Fe  Fe81  1  0.69113698  0.53417210  0.71416444  1
  Fe  Fe82  1  0.52851815  0.20058570  0.20184818  1
  Fe  Fe83  1  0.03636856  0.69493852  0.54692477  1
  Fe  Fe84  1  0.04266211  0.67724129  0.20820035  1
  Fe  Fe85  1  0.53513476  0.69344785  0.54749342  1
  Fe  Fe86  1  0.03729206  0.18944026  0.54822316  1
  Fe  Fe87  1  0.53466338  0.19942519  0.87938763  1
  Fe  Fe88  1  0.03913707  0.18972554  0.88447446  1
  Fe  Fe89  1  0.53445366  0.68662700  0.20720655  1
  Fe  Fe90  1  0.53356349  0.69060744  0.87815674  1
  Fe  Fe91  1  0.53345998  0.19659732  0.54958926  1
  Fe  Fe92  1  0.30554885  0.95253916  0.27878023  1
  Fe  Fe93  1  0.80723106  0.46340687  0.28579631  1
  Fe  Fe94  1  0.80746634  0.46546646  0.62196533  1
  Fe  Fe95  1  0.30018934  0.46901449  0.28095870  1
  Fe  Fe96  1  0.80794468  0.96228986  0.61934920  1
  Fe  Fe97  1  0.79836196  0.97439049  0.95858931  1
  Fe  Fe98  1  0.30939270  0.96359524  0.95380331  1
  Fe  Fe99  1  0.30432961  0.46618446  0.61696867  1
  Fe  Fe100  1  0.30851510  0.96251964  0.61241734  1
  Fe  Fe101  1  0.80087571  0.97060954  0.28620066  1
  S  S102  1  0.35681514  0.13769653  0.08283275  1
  S  S103  1  0.36152737  0.13722505  0.41561167  1
  S  S104  1  0.36329813  0.13425993  0.74950933  1
  S  S105  1  0.36184790  0.64300623  0.07950064  1
  S  S106  1  0.36090156  0.63921832  0.41905236  1
  S  S107  1  0.35668604  0.64418091  0.74642257  1
  S  S108  1  0.85976361  0.14328484  0.08146544  1
  S  S109  1  0.85742135  0.14094880  0.42030658  1
  S  S110  1  0.86408824  0.13822436  0.74980409  1
  S  S111  1  0.85760702  0.64442606  0.08901210  1
  S  S112  1  0.86037599  0.64183806  0.41923307  1
  S  S113  1  0.85587942  0.63985531  0.74955221  1
  S  S114  1  0.13752538  0.36097956  0.25364113  1
  S  S115  1  0.13855960  0.35699695  0.58083250  1
  S  S116  1  0.14477670  0.34766612  0.91357306  1
  S  S117  1  0.13591613  0.85935187  0.25432441  1
  S  S118  1  0.14130857  0.86278960  0.58261812  1
  S  S119  1  0.14075957  0.86112263  0.91790206  1
  S  S120  1  0.64330312  0.36088608  0.25511431  1
  S  S121  1  0.64006538  0.35954659  0.58305847  1
  S  S122  1  0.64339314  0.35759509  0.91588810  1
  S  S123  1  0.63687752  0.86048882  0.24919140  1
  S  S124  1  0.63760916  0.86006387  0.58033145  1
  S  S125  1  0.63930242  0.85605234  0.91164181  1
  S  S126  1  0.06874413  0.16843422  0.04392100  1
  S  S127  1  0.06191070  0.15919530  0.37630331  1
  S  S128  1  0.07334073  0.16923792  0.71114001  1
  S  S129  1  0.05961315  0.67864575  0.05354299  1
  S  S130  1  0.06659737  0.67448257  0.38051015  1
  S  S131  1  0.06419613  0.67214727  0.70605796  1
  S  S132  1  0.57024531  0.17713346  0.04244414  1
  S  S133  1  0.56365457  0.16963571  0.37418020  1
  S  S134  1  0.57259999  0.16803733  0.71004238  1
  S  S135  1  0.57516151  0.66980508  0.04158692  1
  S  S136  1  0.57022060  0.67016865  0.37473233  1
  S  S137  1  0.56507833  0.66948374  0.70779109  1
  S  S138  1  0.33202537  0.43582174  0.13002105  1
  S  S139  1  0.32311727  0.43079670  0.45401213  1
  S  S140  1  0.33214974  0.44512048  0.78334731  1
  S  S141  1  0.32930189  0.92742755  0.12187850  1
  S  S142  1  0.34025428  0.93734260  0.46032961  1
  S  S143  1  0.33243867  0.93127987  0.79076730  1
  S  S144  1  0.83111840  0.42422411  0.12805499  1
  S  S145  1  0.83199554  0.43134236  0.45937312  1
  S  S146  1  0.82856346  0.43190310  0.78906751  1
  S  S147  1  0.82427918  0.93366988  0.12414632  1
  S  S148  1  0.82697563  0.93379360  0.45743101  1
  S  S149  1  0.83094848  0.93326251  0.79257990  1
  S  S150  1  0.43163276  0.33297833  0.29411327  1
  S  S151  1  0.43387016  0.33258242  0.62138788  1
  S  S152  1  0.43607851  0.32721671  0.95002139  1
  S  S153  1  0.43571869  0.82966351  0.28998111  1
  S  S154  1  0.43528873  0.83170331  0.62353664  1
  S  S155  1  0.43326534  0.82836693  0.95282654  1
  S  S156  1  0.92849120  0.32504572  0.28920244  1
  S  S157  1  0.93488247  0.32943873  0.62635692  1
  S  S158  1  0.93788910  0.32718920  0.95920167  1
  S  S159  1  0.92558251  0.83738831  0.29664208  1
  S  S160  1  0.93397500  0.83231807  0.62622095  1
  S  S161  1  0.92401167  0.83508349  0.95962411  1
  S  S162  1  0.18022936  0.06574339  0.21577825  1
  S  S163  1  0.17831221  0.06990480  0.54561539  1
  S  S164  1  0.17338079  0.06646612  0.87670884  1
  S  S165  1  0.15897877  0.56182486  0.21149085  1
  S  S166  1  0.16319574  0.56437770  0.54044122  1
  S  S167  1  0.16392623  0.56640555  0.87351304  1
  S  S168  1  0.66587821  0.07044896  0.20963725  1
  S  S169  1  0.66768452  0.06795437  0.54213605  1
  S  S170  1  0.66907222  0.07006908  0.87237039  1
  S  S171  1  0.67437089  0.56624417  0.21140647  1
  S  S172  1  0.67024615  0.56658799  0.54145697  1
  S  S173  1  0.66355586  0.56591101  0.87163215  1
  O  O174  1  0.35986868  0.21425251  0.07323690  1
  O  O175  1  0.36797426  0.21558168  0.40537104  1
  O  O176  1  0.36735701  0.20923771  0.73624460  1
  O  O177  1  0.37496326  0.72180804  0.06891851  1
  O  O178  1  0.37158670  0.71816401  0.41328737  1
  O  O179  1  0.36828445  0.72249517  0.73701602  1
  O  O180  1  0.87885073  0.22253490  0.07219080  1
  O  O181  1  0.86492921  0.22243343  0.41628546  1
  O  O182  1  0.87403765  0.21730329  0.74206782  1
  O  O183  1  0.85808336  0.72793206  0.08743741  1
  O  O184  1  0.86835318  0.72095734  0.41168756  1
  O  O185  1  0.86814767  0.71887520  0.74283785  1
  O  O186  1  0.28110236  0.12369521  0.09714831  1
  O  O187  1  0.28215326  0.12718320  0.42264100  1
  O  O188  1  0.28816480  0.12249230  0.76393598  1
  O  O189  1  0.28464003  0.63840867  0.08783959  1
  O  O190  1  0.28588202  0.62844830  0.43267601  1
  O  O191  1  0.27653815  0.63741157  0.75182391  1
  O  O192  1  0.78027835  0.14323231  0.08477244  1
  O  O193  1  0.77940660  0.13133033  0.43055419  1
  O  O194  1  0.78483537  0.13069743  0.75782393  1
  O  O195  1  0.78018356  0.62888332  0.10076594  1
  O  O196  1  0.78012214  0.63104583  0.42469822  1
  O  O197  1  0.77293620  0.63066417  0.74906324  1
  O  O198  1  0.13153246  0.28750292  0.26927932  1
  O  O199  1  0.13195614  0.27834073  0.59022532  1
  O  O200  1  0.13530279  0.26543840  0.91673273  1
  O  O201  1  0.11850236  0.78350238  0.26350299  1
  O  O202  1  0.13174699  0.78334775  0.58999032  1
  O  O203  1  0.13773095  0.78513732  0.92830652  1
  O  O204  1  0.62869164  0.28231244  0.26290431  1
  O  O205  1  0.63168240  0.27971443  0.59080420  1
  O  O206  1  0.63034566  0.27638774  0.92411111  1
  O  O207  1  0.62899860  0.78115266  0.25667194  1
  O  O208  1  0.62965176  0.78086421  0.58688909  1
  O  O209  1  0.63222175  0.77350038  0.91251311  1
  O  O210  1  0.21503846  0.37138342  0.24202465  1
  O  O211  1  0.21782641  0.36619968  0.57339697  1
  O  O212  1  0.21942355  0.35666899  0.90053611  1
  O  O213  1  0.21435101  0.86411177  0.24503857  1
  O  O214  1  0.22086232  0.87231645  0.57613667  1
  O  O215  1  0.21762770  0.87587891  0.90543389  1
  O  O216  1  0.72670026  0.36480631  0.25601463  1
  O  O217  1  0.71930267  0.36755926  0.57433361  1
  O  O218  1  0.72127825  0.36324329  0.90966412  1
  O  O219  1  0.71537334  0.87085560  0.24064351  1
  O  O220  1  0.71560646  0.87056563  0.57054414  1
  O  O221  1  0.71812934  0.86970885  0.90467773  1
  O  O222  1  0.41974727  0.13146571  0.15039379  1
  O  O223  1  0.42010308  0.13291511  0.48619944  1
  O  O224  1  0.42758331  0.12850763  0.81703892  1
  O  O225  1  0.42132189  0.63885315  0.15117075  1
  O  O226  1  0.42443148  0.62963054  0.48584499  1
  O  O227  1  0.41380819  0.63743046  0.81581033  1
  O  O228  1  0.91576991  0.13296564  0.14816294  1
  O  O229  1  0.91786292  0.13089405  0.48617287  1
  O  O230  1  0.92309510  0.12681501  0.81574769  1
  O  O231  1  0.91893026  0.64012949  0.15761181  1
  O  O232  1  0.91770290  0.63467658  0.48825448  1
  O  O233  1  0.90921665  0.62910157  0.81687888  1
  O  O234  1  0.36381584  0.07659132  0.01500442  1
  O  O235  1  0.37427247  0.07699071  0.35102495  1
  O  O236  1  0.37256760  0.07093209  0.68369600  1
  O  O237  1  0.37397025  0.58326680  0.01591443  1
  O  O238  1  0.36869702  0.57956665  0.35168856  1
  O  O239  1  0.36596752  0.58411064  0.67928906  1
  O  O240  1  0.86583102  0.08405307  0.01174463  1
  O  O241  1  0.86254414  0.08573066  0.34982533  1
  O  O242  1  0.86984460  0.07866617  0.68065198  1
  O  O243  1  0.86279744  0.59127077  0.01998469  1
  O  O244  1  0.87078519  0.58216926  0.35257173  1
  O  O245  1  0.86653390  0.58057883  0.68128013  1
  O  O246  1  0.07701741  0.36145075  0.18168178  1
  O  O247  1  0.07991689  0.36248726  0.51072136  1
  O  O248  1  0.08145131  0.35832822  0.84736362  1
  O  O249  1  0.07764122  0.87512394  0.18993416  1
  O  O250  1  0.08328082  0.87130970  0.51461230  1
  O  O251  1  0.07904617  0.86670010  0.84932089  1
  O  O252  1  0.59077880  0.37336602  0.18857108  1
  O  O253  1  0.58155078  0.36613117  0.51463205  1
  O  O254  1  0.58284878  0.36625724  0.85072356  1
  O  O255  1  0.57703306  0.87003924  0.18216465  1
  O  O256  1  0.57683447  0.86988011  0.51385500  1
  O  O257  1  0.58030071  0.86594956  0.84345080  1
  O  O258  1  0.12678177  0.42557936  0.31671088  1
  O  O259  1  0.12636468  0.41661157  0.64588176  1
  O  O260  1  0.13779530  0.40146204  0.98277583  1
  O  O261  1  0.13483683  0.92013017  0.32614337  1
  O  O262  1  0.13373409  0.92051305  0.65175675  1
  O  O263  1  0.13055753  0.92328732  0.98415027  1
  O  O264  1  0.63468389  0.42063426  0.32372065  1
  O  O265  1  0.63306520  0.41773317  0.65117224  1
  O  O266  1  0.63612165  0.41554485  0.98604485  1
  O  O267  1  0.62964074  0.91897207  0.31792789  1
  O  O268  1  0.63081180  0.91919333  0.64902901  1
  O  O269  1  0.62900679  0.90943540  0.97940786  1
  O  O270  1  0.03253666  0.20276616  0.10279547  1
  O  O271  1  0.02831003  0.19534827  0.44051172  1
  O  O272  1  0.03273485  0.19615200  0.76834023  1
  O  O273  1  0.02202016  0.71552587  0.11559394  1
  O  O274  1  0.02609869  0.70491891  0.44011627  1
  O  O275  1  0.02744223  0.69907472  0.76486543  1
  O  O276  1  0.52947215  0.20541985  0.09872717  1
  O  O277  1  0.52973539  0.19875075  0.43703798  1
  O  O278  1  0.53967926  0.18932300  0.77234125  1
  O  O279  1  0.53903915  0.70092827  0.10328094  1
  O  O280  1  0.53282053  0.70031824  0.43508431  1
  O  O281  1  0.52558816  0.69827556  0.76695527  1
  O  O282  1  0.30452631  0.46312622  0.06554394  1
  O  O283  1  0.29337326  0.46568146  0.39276877  1
  O  O284  1  0.28824573  0.47506058  0.71766197  1
  O  O285  1  0.29835289  0.96416163  0.06128608  1
  O  O286  1  0.30544612  0.96860422  0.39681912  1
  O  O287  1  0.30134410  0.96473929  0.72801786  1
  O  O288  1  0.80365224  0.46226109  0.07036828  1
  O  O289  1  0.80449600  0.47081433  0.40091379  1
  O  O290  1  0.79610530  0.46608985  0.72446988  1
  O  O291  1  0.80059094  0.97029922  0.06520141  1
  O  O292  1  0.79533986  0.97085930  0.39706930  1
  O  O293  1  0.80023412  0.96797157  0.72893975  1
  O  O294  1  0.46904978  0.30419935  0.23606532  1
  O  O295  1  0.46553473  0.29770316  0.55571079  1
  O  O296  1  0.47368135  0.28853978  0.89062292  1
  O  O297  1  0.47083480  0.80073774  0.22855965  1
  O  O298  1  0.46964916  0.80072837  0.56149206  1
  O  O299  1  0.47239826  0.79881296  0.89330612  1
  O  O300  1  0.96134261  0.30524974  0.22693426  1
  O  O301  1  0.97049886  0.29958123  0.56465062  1
  O  O302  1  0.97484174  0.28783063  0.89841513  1
  O  O303  1  0.95754734  0.81249921  0.23443656  1
  O  O304  1  0.97190660  0.80505738  0.56590400  1
  O  O305  1  0.96164171  0.81563553  0.90037761  1
  O  O306  1  0.21369779  0.02507785  0.27456042  1
  O  O307  1  0.20831047  0.03596520  0.60842695  1
  O  O308  1  0.20040480  0.03207882  0.93904679  1
  O  O309  1  0.20208176  0.53553179  0.27984566  1
  O  O310  1  0.19225656  0.52685368  0.60056397  1
  O  O311  1  0.19052620  0.52721888  0.92945028  1
  O  O312  1  0.69774156  0.03785660  0.27592529  1
  O  O313  1  0.69902592  0.03124842  0.60239948  1
  O  O314  1  0.69373702  0.03183371  0.93018004  1
  O  O315  1  0.70330173  0.52718316  0.27188393  1
  O  O316  1  0.69788108  0.52926467  0.60179505  1
  O  O317  1  0.68597293  0.53293339  0.93321693  1
  O  O318  1  0.08804592  0.08800354  0.04453666  1
  O  O319  1  0.08657440  0.08183808  0.38264678  1
  O  O320  1  0.09154032  0.08761600  0.70744159  1
  O  O321  1  0.08780898  0.60797574  0.06901413  1
  O  O322  1  0.08010182  0.59218526  0.37822118  1
  O  O323  1  0.08118492  0.58892863  0.69649910  1
  O  O324  1  0.58982743  0.09813649  0.03631193  1
  O  O325  1  0.57758475  0.08540354  0.36623012  1
  O  O326  1  0.58890929  0.08398455  0.69417676  1
  O  O327  1  0.59785120  0.59139333  0.04010452  1
  O  O328  1  0.58636330  0.58766820  0.36951044  1
  O  O329  1  0.58363426  0.58853581  0.70420564  1
  O  O330  1  0.41452027  0.42024721  0.14261110  1
  O  O331  1  0.40542778  0.41508464  0.46037897  1
  O  O332  1  0.41135104  0.43523719  0.77816395  1
  O  O333  1  0.41007814  0.90824410  0.12369205  1
  O  O334  1  0.42275831  0.92097802  0.46143644  1
  O  O335  1  0.41516954  0.91550840  0.79536557  1
  O  O336  1  0.90820904  0.39525364  0.12771779  1
  O  O337  1  0.91318660  0.41083651  0.46468090  1
  O  O338  1  0.90873868  0.41146009  0.78732690  1
  O  O339  1  0.90690171  0.91486626  0.13607339  1
  O  O340  1  0.90796502  0.91647750  0.46203020  1
  O  O341  1  0.91351707  0.91786552  0.79895224  1
  O  O342  1  0.41456516  0.41567496  0.30173084  1
  O  O343  1  0.40870144  0.41034623  0.61812636  1
  O  O344  1  0.40724989  0.39744793  0.93207388  1
  O  O345  1  0.41695458  0.91210414  0.29444499  1
  O  O346  1  0.42048435  0.91514368  0.62876166  1
  O  O347  1  0.41686838  0.91020982  0.95675337  1
  O  O348  1  0.91040197  0.40798149  0.30757794  1
  O  O349  1  0.91852652  0.41210479  0.63171128  1
  O  O350  1  0.93168171  0.40714740  0.96174168  1
  O  O351  1  0.90495015  0.91966864  0.30783094  1
  O  O352  1  0.91558444  0.91449720  0.63250686  1
  O  O353  1  0.90125658  0.91642697  0.96849905  1
  O  O354  1  0.10554221  0.08959572  0.22098235  1
  O  O355  1  0.09588002  0.08553255  0.53755652  1
  O  O356  1  0.09013056  0.08263242  0.86748103  1
  O  O357  1  0.07779316  0.57227074  0.21476339  1
  O  O358  1  0.07997535  0.58010080  0.53427525  1
  O  O359  1  0.08421583  0.58764205  0.86722346  1
  O  O360  1  0.58952621  0.09923563  0.21409071  1
  O  O361  1  0.58530149  0.08442542  0.53747660  1
  O  O362  1  0.58794952  0.09406811  0.86692508  1
  O  O363  1  0.59278144  0.58257344  0.20709670  1
  O  O364  1  0.58892732  0.58642334  0.53452787  1
  O  O365  1  0.57952090  0.58386267  0.85751860  1
  O  O366  1  0.13921873  0.21869830  0.05467803  1
  O  O367  1  0.13144863  0.21219510  0.38892301  1
  O  O368  1  0.14431475  0.22125762  0.72696160  1
  O  O369  1  0.12401801  0.73657593  0.06457714  1
  O  O370  1  0.14008098  0.72209378  0.40105200  1
  O  O371  1  0.13680293  0.72294284  0.72241758  1
  O  O372  1  0.63929176  0.23314949  0.05980460  1
  O  O373  1  0.63764224  0.21851006  0.39193163  1
  O  O374  1  0.64407921  0.21993624  0.72636705  1
  O  O375  1  0.64255970  0.72642773  0.05533096  1
  O  O376  1  0.64381778  0.72123476  0.39468945  1
  O  O377  1  0.63508122  0.72293212  0.72526744  1
  O  O378  1  0.28139051  0.36423456  0.12014840  1
  O  O379  1  0.27353236  0.35756394  0.43858791  1
  O  O380  1  0.28689802  0.36882843  0.76793745  1
  O  O381  1  0.27639318  0.85952818  0.10991950  1
  O  O382  1  0.29405565  0.86781485  0.45440748  1
  O  O383  1  0.28273539  0.85897211  0.77600942  1
  O  O384  1  0.77400770  0.35832445  0.11741111  1
  O  O385  1  0.77756896  0.36085836  0.44124695  1
  O  O386  1  0.77699803  0.35891074  0.77088266  1
  O  O387  1  0.77078417  0.86275443  0.10674896  1
  O  O388  1  0.77520927  0.86203908  0.44113252  1
  O  O389  1  0.77958800  0.86235019  0.77638833  1
  O  O390  1  0.35950033  0.28167825  0.27842852  1
  O  O391  1  0.36474520  0.27810564  0.60816988  1
  O  O392  1  0.36921775  0.27102408  0.93971768  1
  O  O393  1  0.36753238  0.77923664  0.28026074  1
  O  O394  1  0.36419181  0.78293021  0.61120623  1
  O  O395  1  0.36157335  0.77725683  0.93452505  1
  O  O396  1  0.85775706  0.27114453  0.27171553  1
  O  O397  1  0.86146290  0.27855878  0.60799994  1
  O  O398  1  0.86368310  0.27776961  0.94084414  1
  O  O399  1  0.85651281  0.78329209  0.28374587  1
  O  O400  1  0.86263393  0.78001267  0.60731484  1
  O  O401  1  0.85459893  0.77843403  0.94002346  1
  O  O402  1  0.23668085  0.13346405  0.23072036  1
  O  O403  1  0.22921524  0.14187939  0.56090143  1
  O  O404  1  0.22588078  0.13580283  0.89111904  1
  O  O405  1  0.19918066  0.63762038  0.22284606  1
  O  O406  1  0.21402850  0.63632605  0.55836882  1
  O  O407  1  0.21943827  0.63678894  0.88942207  1
  O  O408  1  0.72250373  0.13746304  0.22270692  1
  O  O409  1  0.71870738  0.13955418  0.55776660  1
  O  O410  1  0.72368196  0.13866493  0.88629967  1
  O  O411  1  0.72635034  0.63893611  0.23253570  1
  O  O412  1  0.72382104  0.63572688  0.55634601  1
  O  O413  1  0.71618030  0.63598101  0.88566174  1
  O  O414  1  0.49301121  0.34874947  0.02529846  1
  O  O415  1  0.48946264  0.33599433  0.36922122  1
  O  O416  1  0.49713577  0.34186303  0.69051715  1
  O  O417  1  0.49178903  0.83013295  0.02536847  1
  O  O418  1  0.49860180  0.83721569  0.36323716  1
  O  O419  1  0.49634386  0.83591889  0.69606577  1
  O  O420  1  0.99267402  0.32095502  0.03253614  1
  O  O421  1  0.98927648  0.31922073  0.35822954  1
  O  O422  1  0.99233574  0.32873111  0.69779118  1
  O  O423  1  0.98232918  0.83587100  0.03191589  1
  O  O424  1  0.98875237  0.84071223  0.36829494  1
  O  O425  1  0.99169188  0.83433222  0.69922001  1
  O  O426  1  0.17329651  0.00644342  0.14157979  1
  O  O427  1  0.17947502  0.00887454  0.47555647  1
  O  O428  1  0.17050270  0.00461378  0.80453330  1
  O  O429  1  0.15842366  0.49954449  0.14459016  1
  O  O430  1  0.16092117  0.50668439  0.46712863  1
  O  O431  1  0.16071904  0.50986651  0.79617937  1
  O  O432  1  0.65493383  0.00687452  0.14076997  1
  O  O433  1  0.66363717  0.00938918  0.46845050  1
  O  O434  1  0.66099183  0.01004857  0.79723773  1
  O  O435  1  0.67597412  0.50970451  0.13988901  1
  O  O436  1  0.66757244  0.50564290  0.46913925  1
  O  O437  1  0.66312306  0.50489422  0.79965411  1
  O  O438  1  -0.00013919  0.14762173  0.30548897  1
  O  O439  1  0.01516788  0.16520949  0.63653686  1
  O  O440  1  0.00942578  0.15685077  0.96785475  1
  O  O441  1  0.00955115  0.67488993  0.30854496  1
  O  O442  1  0.00649821  0.67114547  0.63224408  1
  O  O443  1  -0.00082011  0.66270999  0.98092534  1
  O  O444  1  0.50547518  0.17099433  0.30327141  1
  O  O445  1  0.51168568  0.17230966  0.64047361  1
  O  O446  1  0.51314683  0.17674636  0.96647202  1
  O  O447  1  0.51408931  0.67034415  0.30265722  1
  O  O448  1  0.50657877  0.66738084  0.63493034  1
  O  O449  1  0.51340592  0.66516936  0.96929348  1
  O  O450  1  0.32915419  0.49894775  0.20073908  1
  O  O451  1  0.32232182  0.49002379  0.52550414  1
  O  O452  1  0.33246697  0.50266433  0.85292337  1
  O  O453  1  0.33835541  0.98893743  0.19606609  1
  O  O454  1  0.34885369  1.00079007  0.53319166  1
  O  O455  1  0.33440270  0.99093694  0.86260293  1
  O  O456  1  0.84261064  0.48483688  0.20382189  1
  O  O457  1  0.83551908  0.48933343  0.53303299  1
  O  O458  1  0.83165684  0.49043045  0.85840961  1
  O  O459  1  0.82420749  0.99280160  0.19684892  1
  O  O460  1  0.82766816  0.99213696  0.52998303  1
  O  O461  1  0.83104608  0.99432661  0.86320062  1
