# generated using pymatgen
data_Na31Fe20(SO4)36
_symmetry_space_group_name_H-M   'P 1'
_cell_length_a   18.06668412
_cell_length_b   18.06871041
_cell_length_c   19.68110160
_cell_angle_alpha   107.57055385
_cell_angle_beta   107.58106381
_cell_angle_gamma   90.71241332
_symmetry_Int_Tables_number   1
_chemical_formula_structural   Na31Fe20(SO4)36
_chemical_formula_sum   'Na62 Fe40 S72 O288'
_cell_volume   5800.82229813
_cell_formula_units_Z   2
loop_
 _symmetry_equiv_pos_site_id
 _symmetry_equiv_pos_as_xyz
  1  'x, y, z'
loop_
 _atom_site_type_symbol
 _atom_site_label
 _atom_site_symmetry_multiplicity
 _atom_site_fract_x
 _atom_site_fract_y
 _atom_site_fract_z
 _atom_site_occupancy
  Na  Na0  1  0.13776614  0.37343601  0.09146702  1
  Na  Na1  1  0.13048333  0.36213857  0.41469082  1
  Na  Na2  1  0.13939214  0.36532731  0.76064984  1
  Na  Na3  1  0.16151122  0.87576062  0.10550173  1
  Na  Na4  1  0.13253801  0.85996492  0.40924722  1
  Na  Na5  1  0.14919111  0.86710094  0.75044600  1
  Na  Na6  1  0.63203914  0.36928067  0.08725950  1
  Na  Na7  1  0.62689699  0.34355403  0.39356366  1
  Na  Na8  1  0.62312640  0.36685212  0.73669239  1
  Na  Na9  1  0.62660724  0.86230039  0.07942241  1
  Na  Na10  1  0.62872151  0.86806035  0.41691062  1
  Na  Na11  1  0.63341303  0.86454706  0.75422523  1
  Na  Na12  1  0.35787769  0.13594322  0.23942231  1
  Na  Na13  1  0.37572866  0.12904680  0.58386118  1
  Na  Na14  1  0.35961875  0.13254915  0.90629849  1
  Na  Na15  1  0.37380103  0.63125590  0.25549874  1
  Na  Na16  1  0.37453203  0.65722253  0.61173586  1
  Na  Na17  1  0.35483109  0.63015904  0.91220832  1
  Na  Na18  1  0.86363741  0.13681783  0.25475898  1
  Na  Na19  1  0.86467137  0.13445253  0.58351260  1
  Na  Na20  1  0.87009793  0.13475711  0.92198683  1
  Na  Na21  1  0.87104216  0.63229490  0.24936924  1
  Na  Na22  1  0.86902368  0.63783747  0.58660944  1
  Na  Na23  1  0.85988761  0.63672630  0.90889046  1
  Na  Na24  1  0.99170181  0.01170678  0.41079238  1
  Na  Na25  1  0.48860488  -0.00213290  0.75488275  1
  Na  Na26  1  0.99531915  0.50464844  0.09697929  1
  Na  Na27  1  0.98586467  0.51043665  0.74551359  1
  Na  Na28  1  0.48126249  0.04258790  0.12274876  1
  Na  Na29  1  0.45097623  0.49966767  0.07858963  1
  Na  Na30  1  0.99738791  0.50527973  0.39989362  1
  Na  Na31  1  1.00765882  -0.00089652  0.75338659  1
  Na  Na32  1  0.49701682  0.52574861  0.41436204  1
  Na  Na33  1  0.05072192  0.99265081  0.59422998  1
  Na  Na34  1  0.48364812  0.50842455  0.90555282  1
  Na  Na35  1  0.01936642  0.99296689  0.22577902  1
  Na  Na36  1  0.01784195  0.49194020  0.91922851  1
  Na  Na37  1  0.05761862  0.99210116  0.96154968  1
  Na  Na38  1  0.01158025  0.49257771  0.57916841  1
  Na  Na39  1  0.44571660  1.01576463  0.30573712  1
  Na  Na40  1  0.50644298  0.95372509  0.91847170  1
  Na  Na41  1  0.50952707  0.97341489  0.53383824  1
  Na  Na42  1  0.24847418  0.24394838  0.33224032  1
  Na  Na43  1  0.75818034  0.75969087  -0.01638833  1
  Na  Na44  1  0.73477135  0.24149297  0.66852010  1
  Na  Na45  1  0.25185491  0.24400585  0.66989198  1
  Na  Na46  1  0.23891197  0.24231202  0.00168232  1
  Na  Na47  1  0.74965587  0.74928421  0.33803294  1
  Na  Na48  1  0.25037344  0.74663908  0.00859699  1
  Na  Na49  1  0.73984766  0.24451824  0.01008670  1
  Na  Na50  1  0.74106906  0.74437020  0.68257217  1
  Na  Na51  1  0.27627684  0.77593605  0.32012067  1
  Na  Na52  1  0.74176426  0.24257736  0.83843068  1
  Na  Na53  1  0.24050914  0.24285138  0.16640195  1
  Na  Na54  1  0.74999379  0.74860876  0.16194051  1
  Na  Na55  1  0.25261333  0.25151399  0.49918658  1
  Na  Na56  1  0.27096004  0.75999704  0.81447248  1
  Na  Na57  1  0.26643904  0.75855960  0.49991633  1
  Na  Na58  1  0.73300756  0.24161861  0.49613456  1
  Na  Na59  1  0.74804564  0.74434625  0.50684274  1
  Na  Na60  1  0.25042089  0.25216626  0.83825325  1
  Na  Na61  1  0.72568499  0.23590488  0.18760909  1
  Fe  Fe62  1  0.96810911  0.80284254  0.11427529  1
  Fe  Fe63  1  0.46907913  0.30000234  0.12432417  1
  Fe  Fe64  1  0.46904182  0.30463912  0.78604832  1
  Fe  Fe65  1  0.95913833  0.31428962  0.11968151  1
  Fe  Fe66  1  0.46820323  0.29680429  0.45871015  1
  Fe  Fe67  1  0.95797040  0.30676150  0.44819873  1
  Fe  Fe68  1  0.96927690  0.80778102  0.78800288  1
  Fe  Fe69  1  0.97073749  0.80510474  0.45293715  1
  Fe  Fe70  1  0.46087577  0.81881795  0.12799569  1
  Fe  Fe71  1  0.96254737  0.30967941  0.78492053  1
  Fe  Fe72  1  0.68907680  0.53672331  0.04119243  1
  Fe  Fe73  1  0.69659943  0.03385754  0.71295487  1
  Fe  Fe74  1  0.19361013  0.53262137  0.38528962  1
  Fe  Fe75  1  0.19422913  0.03389339  0.37228102  1
  Fe  Fe76  1  0.19425992  0.53021723  0.71845806  1
  Fe  Fe77  1  0.69374617  0.03277870  0.05172060  1
  Fe  Fe78  1  0.68463206  0.53993387  0.70800421  1
  Fe  Fe79  1  0.69162869  0.53538954  0.37640300  1
  Fe  Fe80  1  0.68035163  0.03757988  0.37589812  1
  Fe  Fe81  1  0.20319678  0.53108329  0.05005199  1
  Fe  Fe82  1  0.03212202  0.19371025  0.54879260  1
  Fe  Fe83  1  0.03849137  0.69323114  0.88396217  1
  Fe  Fe84  1  0.03511986  0.19036691  0.88168569  1
  Fe  Fe85  1  0.53818572  0.18926444  0.87970355  1
  Fe  Fe86  1  0.52720269  0.71218003  0.54700580  1
  Fe  Fe87  1  0.04078171  0.68914210  0.54812119  1
  Fe  Fe88  1  0.03888311  0.69262684  0.21553150  1
  Fe  Fe89  1  0.53278032  0.69399493  0.21225271  1
  Fe  Fe90  1  0.03033084  0.19402046  0.20978296  1
  Fe  Fe91  1  0.52836244  0.69904833  0.87261646  1
  Fe  Fe92  1  0.80779902  0.96307950  0.28684800  1
  Fe  Fe93  1  0.80256023  0.46857307  0.61135929  1
  Fe  Fe94  1  0.81542157  0.96306422  0.95520461  1
  Fe  Fe95  1  0.30039926  0.96752014  0.62400100  1
  Fe  Fe96  1  0.30776097  0.46304170  0.29199238  1
  Fe  Fe97  1  0.80375862  0.46777243  0.94633781  1
  Fe  Fe98  1  0.29967036  0.97215579  0.95351687  1
  Fe  Fe99  1  0.80373290  0.46548730  0.28056365  1
  Fe  Fe100  1  0.81612316  0.96442714  0.62112231  1
  Fe  Fe101  1  0.31047198  0.46006953  0.62350695  1
  S  S102  1  0.35073470  0.14757054  0.07259728  1
  S  S103  1  0.35268707  0.14042915  0.41461083  1
  S  S104  1  0.36055538  0.14050690  0.74941466  1
  S  S105  1  0.36247114  0.64031760  0.08112814  1
  S  S106  1  0.35707078  0.63969797  0.42107678  1
  S  S107  1  0.35817089  0.63313517  0.75326062  1
  S  S108  1  0.85557073  0.14214760  0.08428530  1
  S  S109  1  0.85871316  0.13856716  0.41688760  1
  S  S110  1  0.86111477  0.14290843  0.74994233  1
  S  S111  1  0.86192635  0.63832044  0.07944731  1
  S  S112  1  0.86358590  0.63868289  0.41611028  1
  S  S113  1  0.86192449  0.63897827  0.74904773  1
  S  S114  1  0.13530296  0.36379318  0.25095338  1
  S  S115  1  0.13496677  0.35872494  0.58275651  1
  S  S116  1  0.13647359  0.36019833  0.91912417  1
  S  S117  1  0.13642304  0.86202961  0.25116593  1
  S  S118  1  0.14285633  0.85311057  0.58112247  1
  S  S119  1  0.14687807  0.85200698  0.91452352  1
  S  S120  1  0.63991800  0.36192884  0.24881276  1
  S  S121  1  0.64116727  0.36227002  0.57762552  1
  S  S122  1  0.64319545  0.35972629  0.91507450  1
  S  S123  1  0.64479974  0.85695009  0.25015728  1
  S  S124  1  0.65199758  0.86202071  0.58797455  1
  S  S125  1  0.64530191  0.86182277  0.91992413  1
  S  S126  1  0.06199593  0.18275398  0.04739181  1
  S  S127  1  0.06387993  0.16957695  0.37398413  1
  S  S128  1  0.06122175  0.17143376  0.71105913  1
  S  S129  1  0.06928769  0.66693140  0.04177921  1
  S  S130  1  0.06875220  0.66658978  0.37671776  1
  S  S131  1  0.06776215  0.66595783  0.70943136  1
  S  S132  1  0.56691747  0.16556978  0.03982385  1
  S  S133  1  0.55554331  0.16368372  0.37398320  1
  S  S134  1  0.57060586  0.16701101  0.71114615  1
  S  S135  1  0.56714761  0.67055293  0.03878468  1
  S  S136  1  0.57091108  0.67143816  0.37779025  1
  S  S137  1  0.57121964  0.67794826  0.70971943  1
  S  S138  1  0.32994565  0.42592096  0.12817332  1
  S  S139  1  0.32507209  0.42062157  0.45773081  1
  S  S140  1  0.32725370  0.42630665  0.79046404  1
  S  S141  1  0.33697022  0.94215743  0.12221904  1
  S  S142  1  0.31679115  0.93486796  0.45566850  1
  S  S143  1  0.32951597  0.93767146  0.79120019  1
  S  S144  1  0.82755397  0.43695454  0.12011295  1
  S  S145  1  0.83301645  0.43568161  0.45547702  1
  S  S146  1  0.82998754  0.43429434  0.78638968  1
  S  S147  1  0.83239745  0.93025218  0.12450632  1
  S  S148  1  0.84361210  0.93235055  0.46157385  1
  S  S149  1  0.84083531  0.93607503  0.79421546  1
  S  S150  1  0.42550537  0.32821961  0.29563917  1
  S  S151  1  0.43148556  0.32560597  0.62246611  1
  S  S152  1  0.44229969  0.33077622  0.95631200  1
  S  S153  1  0.43696982  0.82603446  0.28870627  1
  S  S154  1  0.43773316  0.84377539  0.62944529  1
  S  S155  1  0.42601368  0.82833552  0.95830445  1
  S  S156  1  0.92776997  0.32987028  0.28789036  1
  S  S157  1  0.92958116  0.33382637  0.62182115  1
  S  S158  1  0.93031874  0.33744772  0.95818493  1
  S  S159  1  0.93139733  0.82623596  0.28860735  1
  S  S160  1  0.93990956  0.82850969  0.62513399  1
  S  S161  1  0.93886509  0.82891124  0.95775962  1
  S  S162  1  0.15942552  0.06901937  0.20406857  1
  S  S163  1  0.16594429  0.06797890  0.53690446  1
  S  S164  1  0.16249104  0.06082295  0.87381795  1
  S  S165  1  0.17557896  0.57082020  0.21397310  1
  S  S166  1  0.16665931  0.56194652  0.54264294  1
  S  S167  1  0.16193376  0.56225427  0.87637727  1
  S  S168  1  0.67416748  0.06243036  0.21288924  1
  S  S169  1  0.67764305  0.06252350  0.54472086  1
  S  S170  1  0.67698847  0.06551217  0.87881574  1
  S  S171  1  0.67280083  0.57281837  0.20632280  1
  S  S172  1  0.67277877  0.57663283  0.54204027  1
  S  S173  1  0.66778205  0.56979160  0.87358264  1
  O  O174  1  0.37254012  0.22177296  0.05929605  1
  O  O175  1  0.36522175  0.22704779  0.42138577  1
  O  O176  1  0.37696586  0.21710980  0.73821548  1
  O  O177  1  0.37267047  0.72162129  0.07843232  1
  O  O178  1  0.35652593  0.71520995  0.40895573  1
  O  O179  1  0.36314417  0.71043464  0.74577426  1
  O  O180  1  0.86357749  0.22035276  0.07398869  1
  O  O181  1  0.86857022  0.21611894  0.40710924  1
  O  O182  1  0.86793392  0.22079400  0.73860509  1
  O  O183  1  0.87122477  0.71739617  0.07151763  1
  O  O184  1  0.87301772  0.71679660  0.40627104  1
  O  O185  1  0.87200074  0.71724808  0.73972630  1
  O  O186  1  0.26968899  0.14847255  0.07254265  1
  O  O187  1  0.26740797  0.13440104  0.41547665  1
  O  O188  1  0.28742371  0.14163906  0.76660350  1
  O  O189  1  0.28173221  0.62912204  0.08443609  1
  O  O190  1  0.28051016  0.62150262  0.43209563  1
  O  O191  1  0.28189014  0.61962539  0.76817101  1
  O  O192  1  0.77555177  0.13247481  0.09068591  1
  O  O193  1  0.77996402  0.12779657  0.42375445  1
  O  O194  1  0.78092908  0.13343405  0.75550259  1
  O  O195  1  0.78376156  0.63041054  0.08904084  1
  O  O196  1  0.78389431  0.63057480  0.42273981  1
  O  O197  1  0.78340132  0.62848693  0.75564898  1
  O  O198  1  0.12594967  0.28453667  0.25879321  1
  O  O199  1  0.12712762  0.28051357  0.59318652  1
  O  O200  1  0.12287681  0.28079583  0.92658926  1
  O  O201  1  0.12309982  0.78708369  0.26653036  1
  O  O202  1  0.13510384  0.77178136  0.58281256  1
  O  O203  1  0.14034948  0.76827731  0.91158149  1
  O  O204  1  0.63681619  0.28572269  0.25902142  1
  O  O205  1  0.64155839  0.28633225  0.58945461  1
  O  O206  1  0.63815738  0.27987180  0.92232645  1
  O  O207  1  0.63675177  0.77746942  0.25747028  1
  O  O208  1  0.63709981  0.78095038  0.58959349  1
  O  O209  1  0.63075960  0.78255941  0.92546772  1
  O  O210  1  0.21350090  0.37119969  0.24080909  1
  O  O211  1  0.21267905  0.36734475  0.57304972  1
  O  O212  1  0.21113231  0.36572684  0.90647505  1
  O  O213  1  0.21297389  0.86857470  0.24328745  1
  O  O214  1  0.22301624  0.86794044  0.57666067  1
  O  O215  1  0.22526378  0.86772222  0.90504929  1
  O  O216  1  0.71568395  0.37605800  0.23344938  1
  O  O217  1  0.71581536  0.37793228  0.56187842  1
  O  O218  1  0.72167115  0.37073565  0.90558705  1
  O  O219  1  0.72407469  0.86522358  0.24087951  1
  O  O220  1  0.73361378  0.86668714  0.58304127  1
  O  O221  1  0.72817902  0.86936439  0.92036835  1
  O  O222  1  0.40384709  0.13949862  0.14193636  1
  O  O223  1  0.40416457  0.12276854  0.47842905  1
  O  O224  1  0.42497300  0.12520603  0.81066699  1
  O  O225  1  0.41911539  0.62924491  0.15040198  1
  O  O226  1  0.41984648  0.63760970  0.49024751  1
  O  O227  1  0.42090362  0.62399190  0.81926690  1
  O  O228  1  0.91279294  0.13718487  0.15434326  1
  O  O229  1  0.91786303  0.13218377  0.48654696  1
  O  O230  1  0.91761565  0.13890149  0.82112816  1
  O  O231  1  0.92251729  0.62859730  0.14632580  1
  O  O232  1  0.92168042  0.63199135  0.48530940  1
  O  O233  1  0.92154822  0.63098113  0.81727674  1
  O  O234  1  0.35917007  0.08277551  0.00541470  1
  O  O235  1  0.35623518  0.09311050  0.34154878  1
  O  O236  1  0.35692050  0.07960698  0.67682871  1
  O  O237  1  0.37475900  0.58402129  0.01493371  1
  O  O238  1  0.36900118  0.57720834  0.35568110  1
  O  O239  1  0.36085381  0.57358937  0.68283776  1
  O  O240  1  0.86544158  0.08236375  0.01770606  1
  O  O241  1  0.87149376  0.07792827  0.35143546  1
  O  O242  1  0.87408404  0.08291215  0.68530829  1
  O  O243  1  0.86877409  0.57958124  0.01056316  1
  O  O244  1  0.87300472  0.57792233  0.34922702  1
  O  O245  1  0.87272208  0.57876263  0.68178461  1
  O  O246  1  0.07570127  0.37445432  0.18475276  1
  O  O247  1  0.07433471  0.36507920  0.51411371  1
  O  O248  1  0.07301366  0.37244953  0.85416284  1
  O  O249  1  0.07481899  0.86800541  0.18237294  1
  O  O250  1  0.08606296  0.86192889  0.51035554  1
  O  O251  1  0.08608759  0.86431146  0.84876133  1
  O  O252  1  0.57703587  0.36854934  0.18200882  1
  O  O253  1  0.57630750  0.36372184  0.50899593  1
  O  O254  1  0.58347430  0.36796626  0.84775529  1
  O  O255  1  0.58582717  0.86553514  0.18302859  1
  O  O256  1  0.59707382  0.87854764  0.52437435  1
  O  O257  1  0.59080970  0.87609341  0.85477846  1
  O  O258  1  0.12992092  0.42178293  0.32089258  1
  O  O259  1  0.12511447  0.41876713  0.64959462  1
  O  O260  1  0.13109493  0.41873584  0.98943062  1
  O  O261  1  0.12440654  0.92606671  0.31645043  1
  O  O262  1  0.12869491  0.90872993  0.64604505  1
  O  O263  1  0.14038549  0.90241165  0.98540445  1
  O  O264  1  0.63566314  0.42344588  0.31775976  1
  O  O265  1  0.63457440  0.42363646  0.64506884  1
  O  O266  1  0.63626539  0.41697248  0.98441721  1
  O  O267  1  0.64143720  0.91518225  0.32048974  1
  O  O268  1  0.64916177  0.91705118  0.66076963  1
  O  O269  1  0.63567364  0.91946441  0.98997431  1
  O  O270  1  0.02184090  0.21603103  0.10634583  1
  O  O271  1  0.02891697  0.19617605  0.43650354  1
  O  O272  1  0.02760250  0.20876622  0.77388234  1
  O  O273  1  0.03535516  0.70078399  0.10486308  1
  O  O274  1  0.02913433  0.69676369  0.43591097  1
  O  O275  1  0.02900884  0.69656447  0.76836748  1
  O  O276  1  0.53078162  0.19458480  0.09919571  1
  O  O277  1  0.52213786  0.20020154  0.43678191  1
  O  O278  1  0.53959744  0.20160684  0.77682471  1
  O  O279  1  0.53358719  0.69784261  0.10128896  1
  O  O280  1  0.53373936  0.69589132  0.43688406  1
  O  O281  1  0.53352751  0.69730364  0.76883987  1
  O  O282  1  0.30207694  0.46662276  0.07132589  1
  O  O283  1  0.29787667  0.45920980  0.39761180  1
  O  O284  1  0.29086170  0.45498316  0.72352112  1
  O  O285  1  0.31394439  0.97352870  0.05654248  1
  O  O286  1  0.28435938  0.97682565  0.39897435  1
  O  O287  1  0.29842986  0.97275050  0.73003406  1
  O  O288  1  0.79769907  0.47341563  0.05923766  1
  O  O289  1  0.80065559  0.46957145  0.39297349  1
  O  O290  1  0.80038435  0.46642902  0.72290537  1
  O  O291  1  0.80427838  0.97065071  0.06646662  1
  O  O292  1  0.81203352  0.96494514  0.39895007  1
  O  O293  1  0.81198504  0.97542826  0.73513686  1
  O  O294  1  0.46023150  0.30801224  0.23513471  1
  O  O295  1  0.47056144  0.30487457  0.56364303  1
  O  O296  1  0.47820157  0.29192300  0.89481397  1
  O  O297  1  0.47598630  0.79350834  0.22566506  1
  O  O298  1  0.47221484  0.81750288  0.56708972  1
  O  O299  1  0.46761866  0.80432642  0.90211432  1
  O  O300  1  0.96472051  0.30052143  0.22729042  1
  O  O301  1  0.96481103  0.30089209  0.56021332  1
  O  O302  1  0.96239140  0.30393212  0.89524283  1
  O  O303  1  0.96257727  0.79441179  0.22446856  1
  O  O304  1  0.97515902  0.79794362  0.56325071  1
  O  O305  1  0.97495451  0.79625734  0.89562020  1
  O  O306  1  0.18119346  0.03806383  0.26992982  1
  O  O307  1  0.19253689  0.02641410  0.59263889  1
  O  O308  1  0.19679320  0.02401089  0.93415241  1
  O  O309  1  0.20071580  0.53213418  0.27377093  1
  O  O310  1  0.19425790  0.52829389  0.60559616  1
  O  O311  1  0.17978707  0.52608833  0.93605761  1
  O  O312  1  0.70757935  0.02563135  0.27504075  1
  O  O313  1  0.71581583  0.02646814  0.60643238  1
  O  O314  1  0.70539991  0.02984974  0.94042742  1
  O  O315  1  0.70312772  0.53764234  0.26849409  1
  O  O316  1  0.70222189  0.54017351  0.60362378  1
  O  O317  1  0.69869846  0.52951901  0.93317288  1
  O  O318  1  0.08223986  0.10623822  0.04982471  1
  O  O319  1  0.08176469  0.08666428  0.36522011  1
  O  O320  1  0.06788160  0.08937125  0.70600900  1
  O  O321  1  0.08619815  0.58571683  0.04085962  1
  O  O322  1  0.08499203  0.58519246  0.37435144  1
  O  O323  1  0.08193844  0.58253579  0.70473163  1
  O  O324  1  0.58668686  0.08381540  0.03524049  1
  O  O325  1  0.57960253  0.08563517  0.38194586  1
  O  O326  1  0.59798685  0.09017741  0.71733134  1
  O  O327  1  0.58331772  0.58668612  0.02860278  1
  O  O328  1  0.59003122  0.58900443  0.36990343  1
  O  O329  1  0.58891710  0.59522410  0.69398187  1
  O  O330  1  0.40915963  0.40438515  0.12770390  1
  O  O331  1  0.40304504  0.39412939  0.45962289  1
  O  O332  1  0.40710525  0.40500263  0.79041624  1
  O  O333  1  0.42206598  0.92830584  0.13606942  1
  O  O334  1  0.39475232  0.91805062  0.45498733  1
  O  O335  1  0.41442804  0.93659091  0.80776267  1
  O  O336  1  0.90915586  0.41926505  0.12319616  1
  O  O337  1  0.91648105  0.42074850  0.45973611  1
  O  O338  1  0.91437998  0.42055767  0.79506765  1
  O  O339  1  0.91265907  0.90918413  0.12723383  1
  O  O340  1  0.92733167  0.91757545  0.46728637  1
  O  O341  1  0.92276896  0.91814417  0.79695777  1
  O  O342  1  0.41310010  0.41315575  0.31679553  1
  O  O343  1  0.40938381  0.40573632  0.63313648  1
  O  O344  1  0.43900503  0.41331080  0.96035946  1
  O  O345  1  0.40008965  0.89339363  0.27423673  1
  O  O346  1  0.40591553  0.92201460  0.62874607  1
  O  O347  1  0.40168549  0.90883807  0.95940338  1
  O  O348  1  0.90930501  0.41126102  0.29224330  1
  O  O349  1  0.91468904  0.41638800  0.62468460  1
  O  O350  1  0.91468056  0.42022845  0.96135754  1
  O  O351  1  0.91614479  0.90911632  0.29607717  1
  O  O352  1  0.92438571  0.91133054  0.63156193  1
  O  O353  1  0.92222248  0.90989976  0.96013074  1
  O  O354  1  0.07776991  0.09248008  0.19861146  1
  O  O355  1  0.08259664  0.08474860  0.53340474  1
  O  O356  1  0.08358285  0.08397772  0.88165735  1
  O  O357  1  0.09276984  0.58891956  0.20513498  1
  O  O358  1  0.08189501  0.57684937  0.53432201  1
  O  O359  1  0.07763926  0.58126462  0.86244869  1
  O  O360  1  0.59665211  0.08170640  0.21294858  1
  O  O361  1  0.59803686  0.07293695  0.54400654  1
  O  O362  1  0.59439256  0.08181552  0.87008957  1
  O  O363  1  0.59245940  0.59223220  0.20119924  1
  O  O364  1  0.59342897  0.59909591  0.53656138  1
  O  O365  1  0.58911885  0.59066073  0.87402814  1
  O  O366  1  0.13086274  0.23837003  0.06356423  1
  O  O367  1  0.13472674  0.22227130  0.39101303  1
  O  O368  1  0.13606891  0.21769420  0.72629721  1
  O  O369  1  0.13784541  0.71761577  0.05112226  1
  O  O370  1  0.14011845  0.71772914  0.39409401  1
  O  O371  1  0.13964140  0.71513551  0.72506799  1
  O  O372  1  0.63878418  0.21833790  0.05610812  1
  O  O373  1  0.62624262  0.21403381  0.38540669  1
  O  O374  1  0.63901776  0.22237712  0.72330609  1
  O  O375  1  0.64022646  0.72079826  0.05554866  1
  O  O376  1  0.64351336  0.72408043  0.39611665  1
  O  O377  1  0.64326946  0.73124252  0.73150861  1
  O  O378  1  0.27491259  0.35627715  0.11163984  1
  O  O379  1  0.26645134  0.35326113  0.43999403  1
  O  O380  1  0.27550299  0.35573620  0.77881037  1
  O  O381  1  0.28821011  0.86800809  0.10205354  1
  O  O382  1  0.26382257  0.86226196  0.43514846  1
  O  O383  1  0.28538780  0.86149527  0.77207601  1
  O  O384  1  0.77653271  0.36583951  0.10498123  1
  O  O385  1  0.78567944  0.36459490  0.44477874  1
  O  O386  1  0.78190981  0.36181396  0.77365287  1
  O  O387  1  0.77833630  0.85967530  0.10631680  1
  O  O388  1  0.79536869  0.85968645  0.44883785  1
  O  O389  1  0.78937526  0.86509418  0.77753651  1
  O  O390  1  0.35079841  0.27852374  0.27538296  1
  O  O391  1  0.36180347  0.26902536  0.60250706  1
  O  O392  1  0.36545083  0.28664164  0.93698640  1
  O  O393  1  0.37862398  0.76243224  0.27821306  1
  O  O394  1  0.37207869  0.78630822  0.61660750  1
  O  O395  1  0.35671057  0.77254787  0.93990332  1
  O  O396  1  0.85831342  0.27755686  0.27368808  1
  O  O397  1  0.85736582  0.28485525  0.60783733  1
  O  O398  1  0.85902914  0.28827067  0.94733324  1
  O  O399  1  0.85961521  0.77642424  0.27559841  1
  O  O400  1  0.86828957  0.77777106  0.60933040  1
  O  O401  1  0.86814921  0.77760428  0.94305509  1
  O  O402  1  0.21364812  0.13955248  0.22133411  1
  O  O403  1  0.21631133  0.14090217  0.55571346  1
  O  O404  1  0.21313025  0.13221737  0.88681347  1
  O  O405  1  0.22844837  0.64082855  0.23168512  1
  O  O406  1  0.21564692  0.63217073  0.55453061  1
  O  O407  1  0.21569361  0.63221929  0.89506860  1
  O  O408  1  0.72949054  0.13010243  0.22675753  1
  O  O409  1  0.72672661  0.13692965  0.56171601  1
  O  O410  1  0.72822113  0.13889756  0.89734888  1
  O  O411  1  0.72746767  0.64253870  0.22209542  1
  O  O412  1  0.72996786  0.64545567  0.55981466  1
  O  O413  1  0.72364472  0.63838367  0.89147012  1
  O  O414  1  0.49580074  0.32610274  0.02921484  1
  O  O415  1  0.48282435  0.31701614  0.36509627  1
  O  O416  1  0.49077019  0.32345812  0.69356489  1
  O  O417  1  0.48310532  0.83530848  0.03386980  1
  O  O418  1  0.49999068  0.84579459  0.36051948  1
  O  O419  1  0.49929735  0.86040673  0.70257178  1
  O  O420  1  0.99112115  0.34354200  0.03132767  1
  O  O421  1  0.98870707  0.33446040  0.36118553  1
  O  O422  1  0.98938781  0.33826053  0.69507562  1
  O  O423  1  0.99950867  0.83088759  0.02924540  1
  O  O424  1  0.99274690  0.82662488  0.35937155  1
  O  O425  1  0.99919462  0.83003576  0.69752585  1
  O  O426  1  0.15639245  0.00718290  0.13615441  1
  O  O427  1  0.15949776  0.01418739  0.45971799  1
  O  O428  1  0.14651722  0.00242216  0.79949015  1
  O  O429  1  0.17348746  0.51105584  0.14108829  1
  O  O430  1  0.16261920  0.49951120  0.47058843  1
  O  O431  1  0.16229144  0.50265350  0.80419332  1
  O  O432  1  0.67151501  0.00133171  0.14013976  1
  O  O433  1  0.68158399  0.00632303  0.47239434  1
  O  O434  1  0.68012482  0.00760782  0.80800180  1
  O  O435  1  0.67048943  0.51242186  0.13419288  1
  O  O436  1  0.67084690  0.51540676  0.47060377  1
  O  O437  1  0.66374252  0.51129493  0.79989899  1
  O  O438  1  0.00367446  0.16999631  0.30321926  1
  O  O439  1  0.00377293  0.17553784  0.63909906  1
  O  O440  1  0.00337939  0.17898775  0.97332775  1
  O  O441  1  0.01040910  0.66410444  0.30321742  1
  O  O442  1  0.00936784  0.66214373  0.63509729  1
  O  O443  1  0.00607272  0.66017579  0.96910340  1
  O  O444  1  0.49485376  0.14788471  0.30108419  1
  O  O445  1  0.50886375  0.15481021  0.64069065  1
  O  O446  1  0.51004184  0.16070256  0.96448941  1
  O  O447  1  0.51431937  0.67075404  0.30481434  1
  O  O448  1  0.51348295  0.68497335  0.63946275  1
  O  O449  1  0.50820051  0.67149797  0.96733328  1
  O  O450  1  0.33686936  0.48291764  0.20411773  1
  O  O451  1  0.32992032  0.48068504  0.52993322  1
  O  O452  1  0.33452165  0.48998259  0.85943683  1
  O  O453  1  0.33106462  1.00234728  0.18839977  1
  O  O454  1  0.31676063  0.98932716  0.53072695  1
  O  O455  1  0.31643157  0.99229901  0.86225514  1
  O  O456  1  0.83151104  0.49574578  0.19338804  1
  O  O457  1  0.83834783  0.49827701  0.52801725  1
  O  O458  1  0.83020707  0.49522171  0.85747762  1
  O  O459  1  0.83783000  0.98821037  0.19894662  1
  O  O460  1  0.84579061  0.99225678  0.53383844  1
  O  O461  1  0.84417044  0.99389835  0.86817669  1
