# generated using pymatgen
data_Na31Fe20(SO4)36
_symmetry_space_group_name_H-M   'P 1'
_cell_length_a   18.07411303
_cell_length_b   18.06509239
_cell_length_c   19.71020877
_cell_angle_alpha   107.54655609
_cell_angle_beta   107.55858613
_cell_angle_gamma   90.76680984
_symmetry_Int_Tables_number   1
_chemical_formula_structural   Na31Fe20(SO4)36
_chemical_formula_sum   'Na62 Fe40 S72 O288'
_cell_volume   5811.60766427
_cell_formula_units_Z   2
loop_
 _symmetry_equiv_pos_site_id
 _symmetry_equiv_pos_as_xyz
  1  'x, y, z'
loop_
 _atom_site_type_symbol
 _atom_site_label
 _atom_site_symmetry_multiplicity
 _atom_site_fract_x
 _atom_site_fract_y
 _atom_site_fract_z
 _atom_site_occupancy
  Na  Na0  1  0.14242417  0.37259075  0.09769129  1
  Na  Na1  1  0.13094395  0.35961692  0.40622550  1
  Na  Na2  1  0.13653305  0.35762022  0.74976743  1
  Na  Na3  1  0.14820585  0.86806696  0.10516642  1
  Na  Na4  1  0.13758681  0.86123665  0.41472899  1
  Na  Na5  1  0.13159959  0.84365533  0.72601544  1
  Na  Na6  1  0.63942962  0.37020693  0.08706863  1
  Na  Na7  1  0.63238906  0.35917160  0.41465390  1
  Na  Na8  1  0.63374831  0.35722325  0.74640112  1
  Na  Na9  1  0.63350398  0.86667802  0.08310153  1
  Na  Na10  1  0.63005473  0.87726333  0.41523609  1
  Na  Na11  1  0.62833062  0.87111650  0.75119148  1
  Na  Na12  1  0.36723743  0.12186825  0.24884019  1
  Na  Na13  1  0.38025831  0.13106818  0.59173122  1
  Na  Na14  1  0.36539937  0.13582152  0.91486409  1
  Na  Na15  1  0.36590967  0.62652145  0.24978904  1
  Na  Na16  1  0.35607954  0.63454678  0.58008444  1
  Na  Na17  1  0.36216658  0.63558236  0.91651029  1
  Na  Na18  1  0.87422868  0.14357712  0.25716327  1
  Na  Na19  1  0.85489933  0.13516235  0.56846282  1
  Na  Na20  1  0.86534181  0.13447691  0.91364789  1
  Na  Na21  1  0.85798591  0.62814745  0.23742613  1
  Na  Na22  1  0.86625838  0.63854287  0.58340860  1
  Na  Na23  1  0.86128111  0.64033501  0.92316602  1
  Na  Na24  1  0.98526317  0.02288225  0.74894001  1
  Na  Na25  1  0.99435107  0.05005382  0.08865406  1
  Na  Na26  1  0.49574594  0.50643987  0.09936716  1
  Na  Na27  1  0.97537787  0.50842439  0.08386861  1
  Na  Na28  1  1.00477247  0.48615275  0.75382276  1
  Na  Na29  1  0.47121065  0.00593110  0.38738194  1
  Na  Na30  1  0.50525464  0.48056087  0.75874561  1
  Na  Na31  1  0.99240184  0.54306742  0.42622192  1
  Na  Na32  1  0.98918460  0.01177008  0.41268972  1
  Na  Na33  1  0.02337449  0.48383412  0.25465468  1
  Na  Na34  1  0.50797415  0.99798158  0.90996264  1
  Na  Na35  1  0.50751495  0.49655096  0.56980122  1
  Na  Na36  1  0.52462590  0.46852675  0.92734498  1
  Na  Na37  1  0.01497814  0.98184945  0.58109755  1
  Na  Na38  1  0.01423664  1.00065978  0.24572162  1
  Na  Na39  1  0.02107310  0.98636693  0.91596358  1
  Na  Na40  1  0.00501234  0.45603846  0.91174938  1
  Na  Na41  1  0.00203974  0.50135522  0.58283230  1
  Na  Na42  1  0.26977856  0.26096122  0.66263767  1
  Na  Na43  1  0.24401515  0.74566906  0.00946178  1
  Na  Na44  1  0.74049170  0.22758712  0.35542371  1
  Na  Na45  1  0.24726804  0.24904200  0.32567525  1
  Na  Na46  1  0.74984973  0.25327936  -0.00260017  1
  Na  Na47  1  0.74548579  0.74891882  0.67012714  1
  Na  Na48  1  0.76365875  0.26003682  0.65282956  1
  Na  Na49  1  0.26187512  0.76703435  0.31653139  1
  Na  Na50  1  0.25158995  0.25260864  -0.00210046  1
  Na  Na51  1  0.74985739  0.75120528  0.32980434  1
  Na  Na52  1  0.26097349  0.26460723  0.16899518  1
  Na  Na53  1  0.25850420  0.25585207  0.49575858  1
  Na  Na54  1  0.74786323  0.24612445  0.17354026  1
  Na  Na55  1  0.25311909  0.75594857  0.82350384  1
  Na  Na56  1  0.74102546  0.74359724  0.84535013  1
  Na  Na57  1  0.75165126  0.75426688  0.49633397  1
  Na  Na58  1  0.26352401  0.25683418  0.82825585  1
  Na  Na59  1  0.76086037  0.25701101  0.82524489  1
  Na  Na60  1  0.74282737  0.74614322  0.15451860  1
  Na  Na61  1  0.23542818  0.73946409  0.51380918  1
  Fe  Fe62  1  0.46257853  0.30674176  0.44745844  1
  Fe  Fe63  1  0.46422380  0.31344317  0.12793111  1
  Fe  Fe64  1  0.46217407  0.81261671  0.45287539  1
  Fe  Fe65  1  0.46296904  0.80536137  0.78386279  1
  Fe  Fe66  1  0.46393035  0.81262925  0.12299298  1
  Fe  Fe67  1  0.97084199  0.30106511  0.12624169  1
  Fe  Fe68  1  0.96136293  0.80657533  0.11617378  1
  Fe  Fe69  1  0.96902677  0.79847751  0.45430780  1
  Fe  Fe70  1  0.96888708  0.30650964  0.45197514  1
  Fe  Fe71  1  0.96770340  0.80475621  0.78453747  1
  Fe  Fe72  1  0.19284283  0.53687277  0.71596354  1
  Fe  Fe73  1  0.68549265  0.03399228  0.70905023  1
  Fe  Fe74  1  0.68425967  0.53554894  0.37666306  1
  Fe  Fe75  1  0.69216466  0.03605333  0.04551156  1
  Fe  Fe76  1  0.19725635  0.03438006  0.05271277  1
  Fe  Fe77  1  0.69156107  0.53595529  0.71435417  1
  Fe  Fe78  1  0.20150948  0.53265087  0.38187565  1
  Fe  Fe79  1  0.19355772  0.53477052  0.05203875  1
  Fe  Fe80  1  0.19866250  0.03258787  0.37749640  1
  Fe  Fe81  1  0.19486037  0.03232172  0.71480900  1
  Fe  Fe82  1  0.03071707  0.20096371  0.87671379  1
  Fe  Fe83  1  0.03842669  0.19433421  0.55046209  1
  Fe  Fe84  1  0.53886432  0.18992438  0.54466921  1
  Fe  Fe85  1  0.53097901  0.69187526  0.54177849  1
  Fe  Fe86  1  0.03373101  0.69205587  0.88361892  1
  Fe  Fe87  1  0.53436509  0.18821395  0.21473742  1
  Fe  Fe88  1  0.03330399  0.69275458  0.21374798  1
  Fe  Fe89  1  0.53542112  0.69418145  0.21387151  1
  Fe  Fe90  1  0.53472368  0.69213696  0.88556211  1
  Fe  Fe91  1  0.53220790  0.19725173  0.87353877  1
  Fe  Fe92  1  0.79821039  0.46820942  0.95382154  1
  Fe  Fe93  1  0.31017804  0.46567423  0.62178006  1
  Fe  Fe94  1  0.31005405  0.46621702  0.95601579  1
  Fe  Fe95  1  0.80778598  0.96442728  0.95245328  1
  Fe  Fe96  1  0.80857572  0.46382059  0.61852386  1
  Fe  Fe97  1  0.31210983  0.96355999  0.62061335  1
  Fe  Fe98  1  0.31209670  0.96518141  0.95499904  1
  Fe  Fe99  1  0.80090829  0.96824088  0.28646412  1
  Fe  Fe100  1  0.80289298  0.96712467  0.61498142  1
  Fe  Fe101  1  0.80588031  0.46714469  0.28662147  1
  S  S102  1  0.35949197  0.14176350  0.08226690  1
  S  S103  1  0.35974188  0.14404857  0.42027349  1
  S  S104  1  0.35847235  0.13804235  0.75299609  1
  S  S105  1  0.35780847  0.64076850  0.08526374  1
  S  S106  1  0.35659560  0.64624888  0.41918780  1
  S  S107  1  0.35990544  0.64107794  0.75159299  1
  S  S108  1  0.85662910  0.14099992  0.08079392  1
  S  S109  1  0.86749695  0.13717359  0.41602680  1
  S  S110  1  0.85628685  0.13852295  0.74980594  1
  S  S111  1  0.86082188  0.63963066  0.08119487  1
  S  S112  1  0.85405548  0.64022528  0.41659787  1
  S  S113  1  0.85804066  0.64197063  0.74943846  1
  S  S114  1  0.14109764  0.35987525  0.25244124  1
  S  S115  1  0.14260468  0.36021361  0.58793312  1
  S  S116  1  0.14323441  0.36097628  0.91601067  1
  S  S117  1  0.13183799  0.86101959  0.25284412  1
  S  S118  1  0.14063609  0.86147571  0.58043001  1
  S  S119  1  0.14134353  0.85893497  0.91602881  1
  S  S120  1  0.64295787  0.35792891  0.25200550  1
  S  S121  1  0.63949500  0.36240661  0.58292561  1
  S  S122  1  0.64341703  0.35736022  0.91431731  1
  S  S123  1  0.64206392  0.85687851  0.24561890  1
  S  S124  1  0.64022829  0.85753266  0.58225464  1
  S  S125  1  0.63811195  0.86030181  0.91579776  1
  S  S126  1  0.07011613  0.17308408  0.03908832  1
  S  S127  1  0.07047983  0.16795216  0.37846857  1
  S  S128  1  0.06933615  0.16498145  0.70920794  1
  S  S129  1  0.06685508  0.66626532  0.03947083  1
  S  S130  1  0.06451029  0.66638761  0.37457676  1
  S  S131  1  0.06113541  0.66189697  0.71116776  1
  S  S132  1  0.56832361  0.17348596  0.04038510  1
  S  S133  1  0.56111969  0.16684679  0.37725141  1
  S  S134  1  0.57070134  0.17066832  0.70950675  1
  S  S135  1  0.55393274  0.66345290  0.04114912  1
  S  S136  1  0.56767843  0.67712164  0.37829406  1
  S  S137  1  0.56569270  0.67049589  0.70769231  1
  S  S138  1  0.32963976  0.43565779  0.12461428  1
  S  S139  1  0.32920793  0.43279658  0.45966049  1
  S  S140  1  0.33284853  0.43883695  0.79402100  1
  S  S141  1  0.32859396  0.93298641  0.11892943  1
  S  S142  1  0.32860903  0.93444587  0.45744169  1
  S  S143  1  0.32794562  0.92922889  0.79185771  1
  S  S144  1  0.83663133  0.43032994  0.12697378  1
  S  S145  1  0.83078558  0.43251015  0.45694790  1
  S  S146  1  0.82940494  0.43934356  0.78991519  1
  S  S147  1  0.83008152  0.93284950  0.12386039  1
  S  S148  1  0.83783050  0.92976481  0.45802469  1
  S  S149  1  0.83363349  0.93112824  0.79184992  1
  S  S150  1  0.43113385  0.32312550  0.28573967  1
  S  S151  1  0.43821569  0.33390288  0.62433205  1
  S  S152  1  0.43670292  0.33207906  0.96308778  1
  S  S153  1  0.43323588  0.82543622  0.28846819  1
  S  S154  1  0.43204197  0.82710195  0.62298133  1
  S  S155  1  0.43303453  0.82912540  0.95483938  1
  S  S156  1  0.93156074  0.33887614  0.29631233  1
  S  S157  1  0.93905347  0.33437994  0.62453391  1
  S  S158  1  0.93307559  0.33047458  0.96124801  1
  S  S159  1  0.92550478  0.82598418  0.28941536  1
  S  S160  1  0.93164709  0.83454336  0.62547365  1
  S  S161  1  0.93593184  0.83509284  0.95786049  1
  S  S162  1  0.16524253  0.06574170  0.20879805  1
  S  S163  1  0.17173440  0.06964952  0.54338288  1
  S  S164  1  0.16714664  0.06508576  0.87491415  1
  S  S165  1  0.16147833  0.57042492  0.20874328  1
  S  S166  1  0.16864540  0.55845970  0.54327070  1
  S  S167  1  0.16698027  0.56555783  0.87739513  1
  S  S168  1  0.67754755  0.07261010  0.20897646  1
  S  S169  1  0.67154060  0.06613453  0.54319007  1
  S  S170  1  0.67053135  0.06753304  0.87648100  1
  S  S171  1  0.66840390  0.56522360  0.20933224  1
  S  S172  1  0.67184332  0.56885261  0.54407545  1
  S  S173  1  0.66674231  0.56578923  0.87185064  1
  O  O174  1  0.36972961  0.22260464  0.07739985  1
  O  O175  1  0.36228291  0.22565773  0.41488553  1
  O  O176  1  0.36054652  0.21581281  0.74511160  1
  O  O177  1  0.36616354  0.72047413  0.07921695  1
  O  O178  1  0.36388424  0.72922172  0.41852271  1
  O  O179  1  0.36788493  0.72080590  0.74595803  1
  O  O180  1  0.86983172  0.21925700  0.07227583  1
  O  O181  1  0.88116852  0.21369045  0.40311517  1
  O  O182  1  0.85983663  0.21665490  0.74354507  1
  O  O183  1  0.87493906  0.71576463  0.06865099  1
  O  O184  1  0.86475635  0.72129718  0.41291439  1
  O  O185  1  0.87008396  0.71968725  0.73896691  1
  O  O186  1  0.27971885  0.13420954  0.08995197  1
  O  O187  1  0.28083639  0.13136229  0.42816801  1
  O  O188  1  0.28227136  0.12286279  0.76700866  1
  O  O189  1  0.27971328  0.62931982  0.09354779  1
  O  O190  1  0.27968755  0.63463031  0.43308823  1
  O  O191  1  0.28134997  0.63095716  0.76126694  1
  O  O192  1  0.77409996  0.13463796  0.08145823  1
  O  O193  1  0.79150243  0.13207179  0.42568905  1
  O  O194  1  0.78125515  0.12178236  0.76321717  1
  O  O195  1  0.78681506  0.63381361  0.09462020  1
  O  O196  1  0.77292994  0.63184904  0.42101744  1
  O  O197  1  0.77671439  0.63646501  0.75349312  1
  O  O198  1  0.12835769  0.28643627  0.26627273  1
  O  O199  1  0.13227157  0.28410169  0.60169169  1
  O  O200  1  0.13312080  0.28041702  0.92070667  1
  O  O201  1  0.11718067  0.78579447  0.26779572  1
  O  O202  1  0.13370246  0.78602568  0.59095569  1
  O  O203  1  0.13113995  0.78021683  0.92426240  1
  O  O204  1  0.63745856  0.27838406  0.25944489  1
  O  O205  1  0.63004159  0.28450993  0.59276472  1
  O  O206  1  0.63358981  0.27378133  0.91329410  1
  O  O207  1  0.63684096  0.77298491  0.24561860  1
  O  O208  1  0.63180685  0.77658958  0.58733647  1
  O  O209  1  0.62917237  0.78042766  0.92064129  1
  O  O210  1  0.21549534  0.36837521  0.23888519  1
  O  O211  1  0.22380546  0.36574965  0.58379385  1
  O  O212  1  0.22367643  0.36885983  0.90940670  1
  O  O213  1  0.20717998  0.86310350  0.24135372  1
  O  O214  1  0.21848267  0.87573801  0.57110906  1
  O  O215  1  0.22054545  0.86811746  0.90932258  1
  O  O216  1  0.71980325  0.37017248  0.23996780  1
  O  O217  1  0.72019028  0.37173129  0.57924787  1
  O  O218  1  0.72550671  0.36546314  0.90914159  1
  O  O219  1  0.72033397  0.86843555  0.23429358  1
  O  O220  1  0.71971304  0.86753685  0.57438439  1
  O  O221  1  0.71638379  0.87043427  0.90611344  1
  O  O222  1  0.41778230  0.13021120  0.14780490  1
  O  O223  1  0.41879422  0.13945819  0.49033118  1
  O  O224  1  0.42078523  0.13191108  0.82015961  1
  O  O225  1  0.41892965  0.62874223  0.15013120  1
  O  O226  1  0.41791987  0.63713718  0.48672089  1
  O  O227  1  0.41953605  0.63115352  0.81825882  1
  O  O228  1  0.91078547  0.13114315  0.14846629  1
  O  O229  1  0.92941387  0.12863675  0.48362017  1
  O  O230  1  0.92000852  0.12974372  0.81613512  1
  O  O231  1  0.92469560  0.62955647  0.14676050  1
  O  O232  1  0.91056845  0.62761306  0.48186523  1
  O  O233  1  0.91308941  0.63658192  0.82042232  1
  O  O234  1  0.36386085  0.08566680  0.01115252  1
  O  O235  1  0.37164145  0.08849154  0.35460432  1
  O  O236  1  0.36450569  0.07867858  0.68435705  1
  O  O237  1  0.36408576  0.58368498  0.01468939  1
  O  O238  1  0.35999167  0.59197612  0.34986958  1
  O  O239  1  0.36697843  0.58369573  0.68250062  1
  O  O240  1  0.86670825  0.08092532  0.01288563  1
  O  O241  1  0.87677881  0.07490614  0.34919051  1
  O  O242  1  0.86565619  0.07941026  0.68135697  1
  O  O243  1  0.86689126  0.57745174  0.01298659  1
  O  O244  1  0.86205153  0.58462948  0.34600154  1
  O  O245  1  0.86785101  0.58067781  0.68381320  1
  O  O246  1  0.07748102  0.36878056  0.18508928  1
  O  O247  1  0.08699264  0.36477036  0.51685870  1
  O  O248  1  0.08556964  0.37346408  0.85117078  1
  O  O249  1  0.06904563  0.86865718  0.18530645  1
  O  O250  1  0.08014304  0.86910629  0.51161512  1
  O  O251  1  0.08288364  0.86601137  0.84639419  1
  O  O252  1  0.58150280  0.36570683  0.18561756  1
  O  O253  1  0.58256057  0.37072201  0.51393312  1
  O  O254  1  0.58781549  0.37294995  0.84983420  1
  O  O255  1  0.58201478  0.86500647  0.17798916  1
  O  O256  1  0.58148504  0.86750382  0.51606167  1
  O  O257  1  0.57760296  0.87131277  0.84943054  1
  O  O258  1  0.13320884  0.42524801  0.31866757  1
  O  O259  1  0.13140487  0.42262398  0.65231082  1
  O  O260  1  0.13625384  0.41731558  0.98691292  1
  O  O261  1  0.12432142  0.92478204  0.31920015  1
  O  O262  1  0.12963278  0.92430565  0.64649767  1
  O  O263  1  0.13024439  0.91924270  0.98195718  1
  O  O264  1  0.63829671  0.41573179  0.32208312  1
  O  O265  1  0.62772352  0.42282007  0.64885101  1
  O  O266  1  0.63777080  0.40976957  0.98523858  1
  O  O267  1  0.63733724  0.90984975  0.31510918  1
  O  O268  1  0.63589614  0.91341970  0.65321888  1
  O  O269  1  0.63132332  0.91870583  0.98469179  1
  O  O270  1  0.03248942  0.19770106  0.09807447  1
  O  O271  1  0.04325216  0.20199804  0.44643583  1
  O  O272  1  0.03309863  0.18718026  0.76893789  1
  O  O273  1  0.03645903  0.70106711  0.10375436  1
  O  O274  1  0.02495597  0.69359006  0.43221877  1
  O  O275  1  0.02983245  0.69611330  0.77666250  1
  O  O276  1  0.53203651  0.19906406  0.10134867  1
  O  O277  1  0.52479854  0.20794689  0.43860364  1
  O  O278  1  0.53129837  0.19419357  0.76677872  1
  O  O279  1  0.52069720  0.70519249  0.10283892  1
  O  O280  1  0.52771158  0.70790016  0.43689843  1
  O  O281  1  0.52988243  0.69913469  0.76899044  1
  O  O282  1  0.29773721  0.46840764  0.05903921  1
  O  O283  1  0.30079869  0.46890791  0.40074662  1
  O  O284  1  0.29727548  0.47326540  0.73163408  1
  O  O285  1  0.29859915  0.97066990  0.05571019  1
  O  O286  1  0.29885773  0.97254322  0.39952339  1
  O  O287  1  0.29802227  0.96252632  0.72879649  1
  O  O288  1  0.81670696  0.46496076  0.06606592  1
  O  O289  1  0.80294738  0.47037791  0.39699272  1
  O  O290  1  0.79391166  0.47569722  0.72859684  1
  O  O291  1  0.80060769  0.97028195  0.06268142  1
  O  O292  1  0.81316939  0.96249825  0.39624651  1
  O  O293  1  0.80375688  0.96357330  0.72900675  1
  O  O294  1  0.47411203  0.28769837  0.22835050  1
  O  O295  1  0.46949740  0.30458959  0.55971148  1
  O  O296  1  0.47385864  0.30373682  0.90460733  1
  O  O297  1  0.47462384  0.79384432  0.22989113  1
  O  O298  1  0.47305946  0.80077150  0.56493384  1
  O  O299  1  0.47006606  0.79617351  0.89396455  1
  O  O300  1  0.96110084  0.31038698  0.23261038  1
  O  O301  1  0.96858878  0.30010234  0.55812953  1
  O  O302  1  0.97189572  0.30493764  0.90303297  1
  O  O303  1  0.95682338  0.79480940  0.22506322  1
  O  O304  1  0.96667426  0.81184030  0.56510768  1
  O  O305  1  0.97180603  0.80430687  0.89615626  1
  O  O306  1  0.19907382  0.03284562  0.27006931  1
  O  O307  1  0.20241017  0.03632910  0.60629507  1
  O  O308  1  0.19650860  0.02932112  0.93615949  1
  O  O309  1  0.18420222  0.53848716  0.27116022  1
  O  O310  1  0.20717388  0.52488049  0.60646325  1
  O  O311  1  0.19719392  0.53100626  0.93931579  1
  O  O312  1  0.70603798  0.03492742  0.26714016  1
  O  O313  1  0.70100263  0.03024463  0.60750296  1
  O  O314  1  0.69997631  0.02716918  0.93537770  1
  O  O315  1  0.69899637  0.53123002  0.27361572  1
  O  O316  1  0.70296491  0.53163674  0.60460308  1
  O  O317  1  0.69738256  0.53104627  0.93179545  1
  O  O318  1  0.08803082  0.08980940  0.03141507  1
  O  O319  1  0.08817981  0.08530666  0.37501786  1
  O  O320  1  0.08436637  0.08024171  0.69619484  1
  O  O321  1  0.08002142  0.58288903  0.03357955  1
  O  O322  1  0.08509540  0.58525024  0.37265505  1
  O  O323  1  0.08120750  0.58039488  0.71090351  1
  O  O324  1  0.58697129  0.09105033  0.03043182  1
  O  O325  1  0.57068090  0.08811229  0.38003415  1
  O  O326  1  0.58869382  0.08867485  0.69945125  1
  O  O327  1  0.55570936  0.58103484  0.03780000  1
  O  O328  1  0.59160411  0.60020346  0.38208103  1
  O  O329  1  0.58380908  0.58827927  0.70112738  1
  O  O330  1  0.41043110  0.41620285  0.12502960  1
  O  O331  1  0.41011117  0.41120826  0.46433670  1
  O  O332  1  0.41529328  0.43105444  0.80169169  1
  O  O333  1  0.40567532  0.90732257  0.11561336  1
  O  O334  1  0.40908181  0.91484085  0.45825182  1
  O  O335  1  0.40956227  0.91082628  0.79791089  1
  O  O336  1  0.92064737  0.41400771  0.14219732  1
  O  O337  1  0.91347232  0.41520776  0.46451736  1
  O  O338  1  0.91168972  0.43196630  0.79491840  1
  O  O339  1  0.91249700  0.91598008  0.12841263  1
  O  O340  1  0.92088944  0.91047640  0.46755399  1
  O  O341  1  0.91733263  0.91609241  0.79974679  1
  O  O342  1  0.40578455  0.39520632  0.27590666  1
  O  O343  1  0.41580176  0.41565060  0.62806121  1
  O  O344  1  0.41901275  0.41501655  0.96803934  1
  O  O345  1  0.40938189  0.90079943  0.28469789  1
  O  O346  1  0.41179714  0.90692370  0.62798098  1
  O  O347  1  0.41622389  0.90976472  0.95486736  1
  O  O348  1  0.91876618  0.42409495  0.30886600  1
  O  O349  1  0.91719349  0.41559820  0.62427682  1
  O  O350  1  0.91242386  0.41208971  0.96451976  1
  O  O351  1  0.91095822  0.90898035  0.29676611  1
  O  O352  1  0.91479643  0.91853512  0.63879334  1
  O  O353  1  0.92199729  0.91865374  0.96432649  1
  O  O354  1  0.08269703  0.07671182  0.20215793  1
  O  O355  1  0.08750444  0.08255897  0.53631551  1
  O  O356  1  0.08448119  0.08167319  0.86883128  1
  O  O357  1  0.07539463  0.58200333  0.19273044  1
  O  O358  1  0.08646942  0.56356580  0.54045678  1
  O  O359  1  0.08419847  0.58173943  0.87115826  1
  O  O360  1  0.59930484  0.09701579  0.20755312  1
  O  O361  1  0.59114387  0.08714582  0.53996185  1
  O  O362  1  0.59071043  0.08727361  0.87493251  1
  O  O363  1  0.59012715  0.59145063  0.21069350  1
  O  O364  1  0.59158612  0.58818179  0.54329116  1
  O  O365  1  0.58518935  0.58558456  0.86930535  1
  O  O366  1  0.14172912  0.22512738  0.05599272  1
  O  O367  1  0.14223766  0.21739405  0.39045061  1
  O  O368  1  0.14256402  0.21560543  0.72831109  1
  O  O369  1  0.13765832  0.71366774  0.04833128  1
  O  O370  1  0.13496482  0.71955670  0.39144318  1
  O  O371  1  0.13205347  0.71197831  0.72403405  1
  O  O372  1  0.63978538  0.22707120  0.05885934  1
  O  O373  1  0.63355593  0.21614984  0.39176983  1
  O  O374  1  0.64315127  0.22355722  0.72922234  1
  O  O375  1  0.62974197  0.70580741  0.05470805  1
  O  O376  1  0.63638321  0.73312993  0.39366531  1
  O  O377  1  0.63725569  0.72336657  0.72514504  1
  O  O378  1  0.27828327  0.36226489  0.10607032  1
  O  O379  1  0.27595431  0.36258650  0.44636092  1
  O  O380  1  0.28505258  0.36362943  0.77612425  1
  O  O381  1  0.27188783  0.86452175  0.10005059  1
  O  O382  1  0.27610807  0.86316181  0.44150142  1
  O  O383  1  0.27530673  0.86056474  0.77966073  1
  O  O384  1  0.78424413  0.35853773  0.10915145  1
  O  O385  1  0.77865010  0.36191759  0.44055671  1
  O  O386  1  0.78219210  0.36375697  0.77039503  1
  O  O387  1  0.77852177  0.86194241  0.10723861  1
  O  O388  1  0.78491215  0.85980128  0.44471153  1
  O  O389  1  0.78420590  0.85905898  0.77896237  1
  O  O390  1  0.36571112  0.26360371  0.27258524  1
  O  O391  1  0.36755417  0.28100087  0.61026744  1
  O  O392  1  0.36342502  0.28135997  0.94613664  1
  O  O393  1  0.36841013  0.76668076  0.27480561  1
  O  O394  1  0.36289887  0.77189231  0.60493681  1
  O  O395  1  0.36043143  0.77827776  0.93816761  1
  O  O396  1  0.85909564  0.29084979  0.28423154  1
  O  O397  1  0.87068072  0.28340757  0.61542348  1
  O  O398  1  0.86200588  0.27665492  0.94294631  1
  O  O399  1  0.85332194  0.77573347  0.27499461  1
  O  O400  1  0.85962485  0.78272426  0.60853449  1
  O  O401  1  0.86275948  0.78605755  0.94029744  1
  O  O402  1  0.21314126  0.13832255  0.21982378  1
  O  O403  1  0.21952696  0.14351495  0.55908780  1
  O  O404  1  0.21804994  0.13730634  0.89102985  1
  O  O405  1  0.20889148  0.64342122  0.22336338  1
  O  O406  1  0.21301094  0.63359112  0.55861837  1
  O  O407  1  0.21727684  0.63755726  0.89193898  1
  O  O408  1  0.73350577  0.14172188  0.22392250  1
  O  O409  1  0.72537001  0.13723725  0.56318600  1
  O  O410  1  0.72527688  0.13743556  0.89479836  1
  O  O411  1  0.72407008  0.63338727  0.22375966  1
  O  O412  1  0.72446302  0.64023005  0.56058990  1
  O  O413  1  0.71773158  0.63482736  0.88083869  1
  O  O414  1  0.49298246  0.33616066  0.03807461  1
  O  O415  1  0.49020198  0.33313286  0.36129949  1
  O  O416  1  0.49911606  0.34181384  0.69519643  1
  O  O417  1  0.49104287  0.83144928  0.02711037  1
  O  O418  1  0.49322636  0.83456406  0.36399910  1
  O  O419  1  0.49060302  0.82935582  0.69664184  1
  O  O420  1  0.98972769  0.33552975  0.03608633  1
  O  O421  1  0.99330041  0.33570431  0.36628474  1
  O  O422  1  1.00360878  0.34547765  0.69410765  1
  O  O423  1  0.99418517  0.83393984  0.02929407  1
  O  O424  1  0.98658889  0.82498214  0.35972362  1
  O  O425  1  0.99124798  0.83088969  0.69631631  1
  O  O426  1  0.16493828  0.00655754  0.13472155  1
  O  O427  1  0.17218530  0.01044338  0.47228654  1
  O  O428  1  0.16529787  0.00584844  0.80240190  1
  O  O429  1  0.16553903  0.50976668  0.13837041  1
  O  O430  1  0.17134592  0.50177807  0.47088174  1
  O  O431  1  0.16482398  0.50564825  0.80507026  1
  O  O432  1  0.66963082  0.01379780  0.13359663  1
  O  O433  1  0.67103274  0.00619811  0.47481325  1
  O  O434  1  0.66782136  0.00942907  0.80329927  1
  O  O435  1  0.65842965  0.50338411  0.13883754  1
  O  O436  1  0.66839691  0.51050207  0.47124169  1
  O  O437  1  0.65650626  0.50473025  0.79642912  1
  O  O438  1  0.00699787  0.16424338  0.31082772  1
  O  O439  1  0.01141292  0.16904951  0.63819247  1
  O  O440  1  0.01151072  0.17091041  0.96559564  1
  O  O441  1  0.00662125  0.65931226  0.29920589  1
  O  O442  1  -0.00089753  0.65435700  0.64121931  1
  O  O443  1  0.00347083  0.66502156  0.96860366  1
  O  O444  1  0.50384874  0.16573047  0.30348509  1
  O  O445  1  0.51453710  0.17402723  0.63712789  1
  O  O446  1  0.50979692  0.17328753  0.96805224  1
  O  O447  1  0.50960240  0.66877581  0.30408407  1
  O  O448  1  0.50706529  0.66781076  0.63499996  1
  O  O449  1  0.49825552  0.66696937  0.96801989  1
  O  O450  1  0.33044996  0.49491486  0.19282611  1
  O  O451  1  0.33663804  0.49246013  0.53456516  1
  O  O452  1  0.32691227  0.49499848  0.86535198  1
  O  O453  1  0.33437959  0.99274663  0.18880444  1
  O  O454  1  0.33504827  0.99152828  0.53298790  1
  O  O455  1  0.33235809  0.99222635  0.86375111  1
  O  O456  1  0.83130724  0.48988127  0.19698068  1
  O  O457  1  0.83298472  0.49268354  0.52979165  1
  O  O458  1  0.82516130  0.49394002  0.86230336  1
  O  O459  1  0.83437250  0.99239783  0.19687433  1
  O  O460  1  0.84040478  0.99085459  0.53054883  1
  O  O461  1  0.83421902  0.99149179  0.86352249  1
