# generated using pymatgen
data_Na31Fe20(SO4)36
_symmetry_space_group_name_H-M   'P 1'
_cell_length_a   18.07662124
_cell_length_b   18.07377747
_cell_length_c   19.70660832
_cell_angle_alpha   107.55380026
_cell_angle_beta   107.57337206
_cell_angle_gamma   90.76124999
_symmetry_Int_Tables_number   1
_chemical_formula_structural   Na31Fe20(SO4)36
_chemical_formula_sum   'Na62 Fe40 S72 O288'
_cell_volume   5813.41936899
_cell_formula_units_Z   2
loop_
 _symmetry_equiv_pos_site_id
 _symmetry_equiv_pos_as_xyz
  1  'x, y, z'
loop_
 _atom_site_type_symbol
 _atom_site_label
 _atom_site_symmetry_multiplicity
 _atom_site_fract_x
 _atom_site_fract_y
 _atom_site_fract_z
 _atom_site_occupancy
  Na  Na0  1  0.13309826  0.36077568  0.07542826  1
  Na  Na1  1  0.14625402  0.36711113  0.43417706  1
  Na  Na2  1  0.14023618  0.36658366  0.75605313  1
  Na  Na3  1  0.13076926  0.88382713  0.08443135  1
  Na  Na4  1  0.14475584  0.87323945  0.42215329  1
  Na  Na5  1  0.12623340  0.86378773  0.73859888  1
  Na  Na6  1  0.63652930  0.36559135  0.08673406  1
  Na  Na7  1  0.62783849  0.36284229  0.41314994  1
  Na  Na8  1  0.63032731  0.36653657  0.75199458  1
  Na  Na9  1  0.62890349  0.86609380  0.07654972  1
  Na  Na10  1  0.63536576  0.86796047  0.42057281  1
  Na  Na11  1  0.63565170  0.86330710  0.74960507  1
  Na  Na12  1  0.36647816  0.14306596  0.25950215  1
  Na  Na13  1  0.35632941  0.13264842  0.56744307  1
  Na  Na14  1  0.36668166  0.13021319  0.91644211  1
  Na  Na15  1  0.36303007  0.63095309  0.25076990  1
  Na  Na16  1  0.36319433  0.62373655  0.57953676  1
  Na  Na17  1  0.36313770  0.62289383  0.91390736  1
  Na  Na18  1  0.86290918  0.13890456  0.24576879  1
  Na  Na19  1  0.87492712  0.12889432  0.58364296  1
  Na  Na20  1  0.87810088  0.13438138  0.92069662  1
  Na  Na21  1  0.86170322  0.63665803  0.24810289  1
  Na  Na22  1  0.87027914  0.64674612  0.59160538  1
  Na  Na23  1  0.86011205  0.63958905  0.91674184  1
  Na  Na24  1  0.98766451  0.54524841  0.42124537  1
  Na  Na25  1  1.01128887  -0.00248772  0.42595465  1
  Na  Na26  1  0.99730857  0.03824251  0.75399507  1
  Na  Na27  1  0.48264529  0.00104938  0.43084898  1
  Na  Na28  1  0.42756401  0.48969925  0.71009817  1
  Na  Na29  1  0.49259871  0.02634003  0.73763843  1
  Na  Na30  1  0.99393691  0.50767873  0.74308437  1
  Na  Na31  1  0.99011488  0.51070508  0.08325844  1
  Na  Na32  1  0.44866075  0.50481520  0.07022198  1
  Na  Na33  1  0.50909758  0.48340573  0.26111523  1
  Na  Na34  1  0.02236018  0.50193345  0.57731841  1
  Na  Na35  1  0.01611932  0.48262453  0.25211375  1
  Na  Na36  1  0.04864271  1.00886316  0.94669365  1
  Na  Na37  1  0.02208873  0.48158767  0.91456833  1
  Na  Na38  1  0.49539488  1.01642338  0.23189275  1
  Na  Na39  1  0.49357523  0.44396813  0.89115785  1
  Na  Na40  1  0.49165253  0.43092139  0.53906759  1
  Na  Na41  1  0.03697987  0.99507232  0.25157220  1
  Na  Na42  1  0.25452980  0.75601039  -0.00293743  1
  Na  Na43  1  0.74270318  0.24295511  0.01198103  1
  Na  Na44  1  0.74675909  0.74768521  0.33458986  1
  Na  Na45  1  0.23931556  0.74370071  0.66750516  1
  Na  Na46  1  0.23180214  0.23165013  0.00220109  1
  Na  Na47  1  0.24893732  0.74810060  0.33425251  1
  Na  Na48  1  0.75589449  0.25706182  0.32285357  1
  Na  Na49  1  0.27432547  0.27416929  0.64976189  1
  Na  Na50  1  0.25310876  0.23300499  0.37149907  1
  Na  Na51  1  0.75121699  0.24733996  0.67322284  1
  Na  Na52  1  0.26621355  0.26719723  0.82857916  1
  Na  Na53  1  0.75724668  0.76103686  0.15177346  1
  Na  Na54  1  0.74925759  0.24362924  0.84195184  1
  Na  Na55  1  0.23896762  0.23412907  0.17700550  1
  Na  Na56  1  0.24105566  0.74599765  0.50623144  1
  Na  Na57  1  0.73996035  0.74052853  0.51350597  1
  Na  Na58  1  0.74941779  0.75176367  0.83078034  1
  Na  Na59  1  0.24997901  0.75561157  0.16378871  1
  Na  Na60  1  0.74915012  0.24479964  0.50050233  1
  Na  Na61  1  0.24794315  0.75378775  0.83155529  1
  Fe  Fe62  1  0.46463050  0.80864736  0.45882501  1
  Fe  Fe63  1  0.97103119  0.29960079  0.78955043  1
  Fe  Fe64  1  0.46390646  0.30475966  0.11630012  1
  Fe  Fe65  1  0.96966357  0.80445573  0.45767105  1
  Fe  Fe66  1  0.46479064  0.81343766  0.79318582  1
  Fe  Fe67  1  0.96432719  0.30749901  0.11788391  1
  Fe  Fe68  1  0.96295863  0.80707886  0.11504623  1
  Fe  Fe69  1  0.96458926  0.30915932  0.45161605  1
  Fe  Fe70  1  0.96523272  0.80838806  0.78436955  1
  Fe  Fe71  1  0.46458541  0.80774893  0.12297724  1
  Fe  Fe72  1  0.18950469  0.03752122  0.71327798  1
  Fe  Fe73  1  0.69534117  0.03141383  0.37738371  1
  Fe  Fe74  1  0.19340894  0.53576558  0.38422755  1
  Fe  Fe75  1  0.20082216  0.52891784  0.04446314  1
  Fe  Fe76  1  0.69330708  0.03222687  0.71057710  1
  Fe  Fe77  1  0.69419753  0.53508213  0.38409093  1
  Fe  Fe78  1  0.68869521  0.53605019  0.04492220  1
  Fe  Fe79  1  0.19864072  0.53348826  0.71278623  1
  Fe  Fe80  1  0.68871498  0.53559463  0.71347549  1
  Fe  Fe81  1  0.68973516  0.03773643  0.04467856  1
  Fe  Fe82  1  0.03674546  0.18889220  0.21504802  1
  Fe  Fe83  1  0.53435450  0.19289227  0.21019689  1
  Fe  Fe84  1  0.53319365  0.19852812  0.87612944  1
  Fe  Fe85  1  0.03784306  0.19322800  0.54753824  1
  Fe  Fe86  1  0.53547135  0.69035987  0.55062715  1
  Fe  Fe87  1  0.53335436  0.69151405  0.21430113  1
  Fe  Fe88  1  0.03330358  0.69168286  0.87960198  1
  Fe  Fe89  1  0.03430838  0.69188324  0.21130129  1
  Fe  Fe90  1  0.53499363  0.69255241  0.88196231  1
  Fe  Fe91  1  0.53682194  0.19772592  0.54229720  1
  Fe  Fe92  1  0.80876305  0.96463951  0.28370495  1
  Fe  Fe93  1  0.80721799  0.46615899  0.28484218  1
  Fe  Fe94  1  0.80821415  0.96305444  0.61929163  1
  Fe  Fe95  1  0.30334119  0.96919013  0.61949761  1
  Fe  Fe96  1  0.30274407  0.96767805  0.95917583  1
  Fe  Fe97  1  0.80718564  0.46714174  0.62013114  1
  Fe  Fe98  1  0.80548768  0.46938365  0.95040062  1
  Fe  Fe99  1  0.31564617  0.45801244  0.29154131  1
  Fe  Fe100  1  0.29822385  0.96949246  0.29115476  1
  Fe  Fe101  1  0.81043021  0.96504870  0.95395794  1
  S  S102  1  0.35995625  0.13981512  0.08430571  1
  S  S103  1  0.37255565  0.13204299  0.41571643  1
  S  S104  1  0.35831701  0.14054161  0.75007817  1
  S  S105  1  0.35731560  0.64430740  0.08778650  1
  S  S106  1  0.36051961  0.64153212  0.41709189  1
  S  S107  1  0.35811894  0.64811905  0.75373127  1
  S  S108  1  0.85915851  0.14064177  0.08335104  1
  S  S109  1  0.86024366  0.13997533  0.41530569  1
  S  S110  1  0.85813125  0.13801788  0.74931480  1
  S  S111  1  0.85795802  0.64125349  0.08350585  1
  S  S112  1  0.85432606  0.64303880  0.41563400  1
  S  S113  1  0.85995151  0.64026927  0.74950426  1
  S  S114  1  0.13813963  0.36160363  0.25191581  1
  S  S115  1  0.13577851  0.36400201  0.58714733  1
  S  S116  1  0.14189528  0.35874050  0.91725950  1
  S  S117  1  0.13731661  0.85637043  0.24778349  1
  S  S118  1  0.14055962  0.86207873  0.58025120  1
  S  S119  1  0.13868909  0.85472082  0.91645712  1
  S  S120  1  0.64092611  0.36219643  0.25135877  1
  S  S121  1  0.65012190  0.35746502  0.58490763  1
  S  S122  1  0.64622211  0.36039230  0.91655606  1
  S  S123  1  0.64143794  0.85675610  0.24917280  1
  S  S124  1  0.63956011  0.85862884  0.58251647  1
  S  S125  1  0.64142625  0.86009445  0.91749518  1
  S  S126  1  0.06570916  0.17616984  0.05284196  1
  S  S127  1  0.05842862  0.16812928  0.37613016  1
  S  S128  1  0.06793504  0.17279758  0.70967653  1
  S  S129  1  0.06482373  0.66535854  0.04075826  1
  S  S130  1  0.06475166  0.66922800  0.37167519  1
  S  S131  1  0.06533839  0.66460851  0.70720815  1
  S  S132  1  0.57123968  0.17431030  0.04112455  1
  S  S133  1  0.57519796  0.16491171  0.37325035  1
  S  S134  1  0.57454466  0.17021951  0.70679592  1
  S  S135  1  0.56438515  0.66955895  0.04438270  1
  S  S136  1  0.56753011  0.67083403  0.37728160  1
  S  S137  1  0.56495040  0.67041713  0.71179080  1
  S  S138  1  0.33062952  0.43207779  0.12754875  1
  S  S139  1  0.32702832  0.43331277  0.44671348  1
  S  S140  1  0.32715364  0.43678738  0.78835248  1
  S  S141  1  0.32764893  0.92949334  0.12902180  1
  S  S142  1  0.33073821  0.92701764  0.45806278  1
  S  S143  1  0.32331170  0.92966695  0.79057910  1
  S  S144  1  0.83255119  0.43758509  0.12482913  1
  S  S145  1  0.83091968  0.43545794  0.45852228  1
  S  S146  1  0.83489311  0.43621881  0.79193102  1
  S  S147  1  0.83124976  0.93341237  0.12502380  1
  S  S148  1  0.83074761  0.93026256  0.45408912  1
  S  S149  1  0.82926742  0.93131056  0.79204212  1
  S  S150  1  0.43746465  0.32716816  0.28667877  1
  S  S151  1  0.44311530  0.32451172  0.61765978  1
  S  S152  1  0.43901670  0.32877171  0.95880572  1
  S  S153  1  0.42978133  0.82840033  0.29264850  1
  S  S154  1  0.42948854  0.82984359  0.62699336  1
  S  S155  1  0.42714246  0.82576083  0.95811809  1
  S  S156  1  0.93495470  0.33947588  0.29617562  1
  S  S157  1  0.93076134  0.32898825  0.62568161  1
  S  S158  1  0.93104229  0.33816810  0.96021399  1
  S  S159  1  0.93285947  0.82795687  0.28991528  1
  S  S160  1  0.93103158  0.83525450  0.62465879  1
  S  S161  1  0.93231751  0.82925117  0.95401296  1
  S  S162  1  0.17398540  0.06925776  0.21603165  1
  S  S163  1  0.16908795  0.06951726  0.54366795  1
  S  S164  1  0.16716422  0.05901600  0.87362975  1
  S  S165  1  0.16880977  0.56559657  0.20770026  1
  S  S166  1  0.16672402  0.56836374  0.54302634  1
  S  S167  1  0.16685639  0.57029184  0.87450707  1
  S  S168  1  0.67202085  0.06660669  0.20917699  1
  S  S169  1  0.67444616  0.06939122  0.54119676  1
  S  S170  1  0.67222062  0.07037782  0.87453349  1
  S  S171  1  0.66630447  0.56568504  0.20823642  1
  S  S172  1  0.67245852  0.56726994  0.54408996  1
  S  S173  1  0.66952698  0.56973655  0.87497371  1
  O  O174  1  0.37210526  0.21666210  0.07127813  1
  O  O175  1  0.38403773  0.20200679  0.39619995  1
  O  O176  1  0.36205216  0.21746776  0.74150695  1
  O  O177  1  0.36392246  0.72717410  0.08777178  1
  O  O178  1  0.37173043  0.71960995  0.40667851  1
  O  O179  1  0.36488756  0.73079643  0.75328073  1
  O  O180  1  0.86787914  0.21958870  0.07435944  1
  O  O181  1  0.86676330  0.21986751  0.40800555  1
  O  O182  1  0.86941986  0.21794274  0.74325749  1
  O  O183  1  0.86727876  0.72171611  0.08034055  1
  O  O184  1  0.86695627  0.72155481  0.40769848  1
  O  O185  1  0.87151113  0.71788278  0.74109446  1
  O  O186  1  0.28408307  0.13534463  0.09551258  1
  O  O187  1  0.29993442  0.12546088  0.43192367  1
  O  O188  1  0.28304751  0.12579169  0.76412868  1
  O  O189  1  0.27892154  0.63172661  0.09659109  1
  O  O190  1  0.28052950  0.63633561  0.42448676  1
  O  O191  1  0.27759344  0.63588572  0.75975518  1
  O  O192  1  0.77983258  0.13050293  0.08998985  1
  O  O193  1  0.78201824  0.12907752  0.42459856  1
  O  O194  1  0.77634066  0.13074365  0.75271837  1
  O  O195  1  0.78000560  0.63055854  0.09310730  1
  O  O196  1  0.77154852  0.63593281  0.41679062  1
  O  O197  1  0.78011605  0.63062617  0.75514276  1
  O  O198  1  0.12818077  0.28357976  0.26067702  1
  O  O199  1  0.12194798  0.28805999  0.59976359  1
  O  O200  1  0.12980994  0.28598701  0.93214682  1
  O  O201  1  0.13163548  0.77407945  0.25049357  1
  O  O202  1  0.13619574  0.78514422  0.58962033  1
  O  O203  1  0.12901253  0.77527887  0.92530932  1
  O  O204  1  0.63092058  0.28319195  0.25860536  1
  O  O205  1  0.63983033  0.27587453  0.58965586  1
  O  O206  1  0.63933235  0.27929891  0.92079885  1
  O  O207  1  0.63052748  0.77675590  0.25516831  1
  O  O208  1  0.63073939  0.77831321  0.58682063  1
  O  O209  1  0.63008031  0.78204972  0.92597932  1
  O  O210  1  0.21598152  0.36975601  0.24191442  1
  O  O211  1  0.21126808  0.36909901  0.57638852  1
  O  O212  1  0.21597165  0.36918386  0.90428629  1
  O  O213  1  0.21776139  0.86905971  0.24304860  1
  O  O214  1  0.21898732  0.87567169  0.56980706  1
  O  O215  1  0.22116749  0.86275911  0.91603808  1
  O  O216  1  0.72081882  0.37236723  0.24641595  1
  O  O217  1  0.73177707  0.36505571  0.58167891  1
  O  O218  1  0.72608359  0.37142011  0.90941105  1
  O  O219  1  0.72111684  0.86540611  0.24235233  1
  O  O220  1  0.71732821  0.86976945  0.57195084  1
  O  O221  1  0.72030877  0.86939760  0.90885594  1
  O  O222  1  0.42258440  0.13254130  0.15214449  1
  O  O223  1  0.43892360  0.12568861  0.48378530  1
  O  O224  1  0.42235784  0.13137918  0.81569221  1
  O  O225  1  0.41720183  0.63367201  0.15535387  1
  O  O226  1  0.41840500  0.63663732  0.48670000  1
  O  O227  1  0.41613209  0.63742763  0.82132197  1
  O  O228  1  0.91775231  0.13531257  0.15249456  1
  O  O229  1  0.92051736  0.13163951  0.48217791  1
  O  O230  1  0.91416174  0.12603744  0.81459381  1
  O  O231  1  0.91845982  0.62860991  0.14893218  1
  O  O232  1  0.90866074  0.63210110  0.48253315  1
  O  O233  1  0.91725192  0.63151466  0.81867938  1
  O  O234  1  0.36622023  0.07863392  0.01647872  1
  O  O235  1  0.38053215  0.06231632  0.35234636  1
  O  O236  1  0.36643546  0.07901861  0.68168107  1
  O  O237  1  0.36641950  0.59062861  0.01982597  1
  O  O238  1  0.36745006  0.58125972  0.34984904  1
  O  O239  1  0.36699594  0.59468495  0.68530098  1
  O  O240  1  0.86694179  0.08129956  0.01543498  1
  O  O241  1  0.86654491  0.08198168  0.34609285  1
  O  O242  1  0.86424845  0.08018126  0.67873528  1
  O  O243  1  0.86534038  0.58490758  0.01369248  1
  O  O244  1  0.86280456  0.58356074  0.34659591  1
  O  O245  1  0.87101520  0.57945293  0.68331549  1
  O  O246  1  0.07817767  0.37239100  0.18457769  1
  O  O247  1  0.07291602  0.37384799  0.52062026  1
  O  O248  1  0.07736050  0.36785756  0.85016519  1
  O  O249  1  0.08012042  0.86295236  0.17728735  1
  O  O250  1  0.08144906  0.86656620  0.50989728  1
  O  O251  1  0.08541892  0.85710199  0.84272785  1
  O  O252  1  0.58263825  0.37244124  0.18434656  1
  O  O253  1  0.59522060  0.36731190  0.51776690  1
  O  O254  1  0.58741975  0.37203773  0.85261907  1
  O  O255  1  0.58299044  0.86600535  0.18162030  1
  O  O256  1  0.57953551  0.86845592  0.51569320  1
  O  O257  1  0.58233800  0.86720028  0.84879399  1
  O  O258  1  0.12834826  0.42175100  0.31895958  1
  O  O259  1  0.12716015  0.42690625  0.65459137  1
  O  O260  1  0.13276736  0.42468796  0.98371017  1
  O  O261  1  0.12360537  0.91105628  0.31312061  1
  O  O262  1  0.13112193  0.92263139  0.64621231  1
  O  O263  1  0.12362196  0.91370316  0.97838319  1
  O  O264  1  0.63157150  0.42130507  0.31968748  1
  O  O265  1  0.64228623  0.41391550  0.65427991  1
  O  O266  1  0.64132793  0.41640158  0.98844055  1
  O  O267  1  0.63432694  0.91432043  0.31818472  1
  O  O268  1  0.63424408  0.91582420  0.65234289  1
  O  O269  1  0.63567100  0.92078668  0.98540733  1
  O  O270  1  0.02911535  0.21266011  0.11565813  1
  O  O271  1  0.02696643  0.20943339  0.44006732  1
  O  O272  1  0.02857382  0.19834411  0.76761597  1
  O  O273  1  0.02630450  0.69689501  0.10038129  1
  O  O274  1  0.02705697  0.69699525  0.42985542  1
  O  O275  1  0.03273249  0.69454064  0.77153144  1
  O  O276  1  0.53487459  0.20373561  0.10270565  1
  O  O277  1  0.54936384  0.19173511  0.43995372  1
  O  O278  1  0.53458216  0.19062432  0.76370740  1
  O  O279  1  0.52422040  0.69781138  0.10357436  1
  O  O280  1  0.53178781  0.69833803  0.43851012  1
  O  O281  1  0.52581534  0.69971089  0.77115533  1
  O  O282  1  0.30534932  0.47180322  0.07006722  1
  O  O283  1  0.28790681  0.47351923  0.38674712  1
  O  O284  1  0.29354659  0.47758361  0.72996318  1
  O  O285  1  0.30759495  0.96432475  0.06893066  1
  O  O286  1  0.30200412  0.95357542  0.39200009  1
  O  O287  1  0.29446050  0.96599449  0.72934679  1
  O  O288  1  0.80366144  0.47454096  0.06445319  1
  O  O289  1  0.80097272  0.47286062  0.39789322  1
  O  O290  1  0.80248140  0.47180068  0.73079248  1
  O  O291  1  0.80353864  0.96957984  0.06383348  1
  O  O292  1  0.80052386  0.96888223  0.39388192  1
  O  O293  1  0.79821509  0.96728209  0.72999186  1
  O  O294  1  0.47076964  0.29573017  0.22129909  1
  O  O295  1  0.48178631  0.28909421  0.55654730  1
  O  O296  1  0.47949128  0.29905765  0.90194509  1
  O  O297  1  0.47065492  0.80105220  0.23457396  1
  O  O298  1  0.46799673  0.80013001  0.56708429  1
  O  O299  1  0.46960716  0.79950297  0.90109847  1
  O  O300  1  0.96527645  0.30763231  0.23181617  1
  O  O301  1  0.96225229  0.29888086  0.56174063  1
  O  O302  1  0.96138070  0.31149798  0.89705050  1
  O  O303  1  0.96927512  0.79878251  0.22859135  1
  O  O304  1  0.96658622  0.81616532  0.56453626  1
  O  O305  1  0.96999792  0.79939839  0.89341387  1
  O  O306  1  0.20360027  0.03159335  0.27687024  1
  O  O307  1  0.20194818  0.03776605  0.60897483  1
  O  O308  1  0.20062660  0.01926588  0.93033614  1
  O  O309  1  0.19627795  0.53207138  0.27008982  1
  O  O310  1  0.19417178  0.53783551  0.60736247  1
  O  O311  1  0.19192912  0.53951269  0.93761768  1
  O  O312  1  0.70098681  0.02556813  0.26760840  1
  O  O313  1  0.69972349  0.03043893  0.60036249  1
  O  O314  1  0.69819231  0.03185003  0.93417167  1
  O  O315  1  0.69709277  0.52909862  0.26907840  1
  O  O316  1  0.70211280  0.52914079  0.60478823  1
  O  O317  1  0.70120300  0.53434368  0.93774020  1
  O  O318  1  0.08705987  0.10062351  0.05967070  1
  O  O319  1  0.05822994  0.08525787  0.37094766  1
  O  O320  1  0.08451707  0.09057304  0.70355184  1
  O  O321  1  0.08018422  0.58329623  0.03748319  1
  O  O322  1  0.08365361  0.58675328  0.36751345  1
  O  O323  1  0.09126679  0.58466280  0.70742276  1
  O  O324  1  0.59284503  0.09523244  0.03948363  1
  O  O325  1  0.59016757  0.08046067  0.36002911  1
  O  O326  1  0.59119241  0.08663012  0.69472188  1
  O  O327  1  0.58341014  0.58857999  0.04084773  1
  O  O328  1  0.58836370  0.58987127  0.37058755  1
  O  O329  1  0.58548294  0.59017800  0.70879889  1
  O  O330  1  0.41427926  0.41653445  0.13454588  1
  O  O331  1  0.39829741  0.40884928  0.43042841  1
  O  O332  1  0.40281320  0.41509764  0.77843742  1
  O  O333  1  0.41031544  0.90851123  0.14314126  1
  O  O334  1  0.41484360  0.91305506  0.46918915  1
  O  O335  1  0.40336905  0.90929728  0.79309390  1
  O  O336  1  0.91580346  0.42185656  0.13143129  1
  O  O337  1  0.91323561  0.41946210  0.46410506  1
  O  O338  1  0.91715443  0.42083060  0.79642860  1
  O  O339  1  0.91221227  0.91235263  0.13129068  1
  O  O340  1  0.91004237  0.90992075  0.45449831  1
  O  O341  1  0.91023473  0.91294577  0.79567393  1
  O  O342  1  0.41904130  0.40833054  0.28665305  1
  O  O343  1  0.41706880  0.39721486  0.60333733  1
  O  O344  1  0.42327316  0.40901560  0.96095372  1
  O  O345  1  0.40688127  0.90793003  0.29664277  1
  O  O346  1  0.41044173  0.91087901  0.63200810  1
  O  O347  1  0.40052246  0.90207613  0.95815230  1
  O  O348  1  0.91986270  0.42341358  0.30152627  1
  O  O349  1  0.91261596  0.41124373  0.63051524  1
  O  O350  1  0.91386437  0.42216789  0.96915045  1
  O  O351  1  0.91672642  0.91070803  0.29719340  1
  O  O352  1  0.91452109  0.91922469  0.64304186  1
  O  O353  1  0.91456679  0.91010219  0.95863620  1
  O  O354  1  0.09426651  0.09107641  0.21968316  1
  O  O355  1  0.08834520  0.09069411  0.54266044  1
  O  O356  1  0.08658891  0.07242821  0.87312790  1
  O  O357  1  0.08492471  0.58151338  0.19917631  1
  O  O358  1  0.08422872  0.58193559  0.53102087  1
  O  O359  1  0.08106534  0.58243011  0.86122291  1
  O  O360  1  0.59170441  0.08650813  0.20685001  1
  O  O361  1  0.59469807  0.09361827  0.53557979  1
  O  O362  1  0.59259675  0.09397279  0.86798433  1
  O  O363  1  0.58361962  0.58071688  0.20278721  1
  O  O364  1  0.59364269  0.58903707  0.54311799  1
  O  O365  1  0.58891126  0.58754336  0.87242231  1
  O  O366  1  0.13615786  0.23096731  0.06912591  1
  O  O367  1  0.13468292  0.20929139  0.39060440  1
  O  O368  1  0.13985753  0.22429894  0.72790420  1
  O  O369  1  0.13657627  0.71603239  0.05726680  1
  O  O370  1  0.13639323  0.72026603  0.38629368  1
  O  O371  1  0.13384151  0.71906762  0.72017987  1
  O  O372  1  0.63991642  0.22925722  0.05637538  1
  O  O373  1  0.64607450  0.21541285  0.38468881  1
  O  O374  1  0.64735925  0.22367194  0.72967856  1
  O  O375  1  0.63445168  0.72362068  0.06334082  1
  O  O376  1  0.63714497  0.72560274  0.39332121  1
  O  O377  1  0.63448212  0.72461030  0.72862507  1
  O  O378  1  0.27993536  0.35971619  0.10931133  1
  O  O379  1  0.27129514  0.36626712  0.43397076  1
  O  O380  1  0.27272773  0.36554905  0.76926506  1
  O  O381  1  0.27219138  0.85925107  0.11058839  1
  O  O382  1  0.28261042  0.85390954  0.44583069  1
  O  O383  1  0.26874777  0.85927619  0.77384739  1
  O  O384  1  0.78237922  0.36621412  0.10935503  1
  O  O385  1  0.77972128  0.36321722  0.44073869  1
  O  O386  1  0.78527750  0.36415879  0.77796805  1
  O  O387  1  0.77632834  0.86552251  0.11095870  1
  O  O388  1  0.77583508  0.86077236  0.43740281  1
  O  O389  1  0.77682365  0.86196195  0.77869429  1
  O  O390  1  0.36486984  0.27724311  0.26965775  1
  O  O391  1  0.37690140  0.26828840  0.60535666  1
  O  O392  1  0.36777967  0.27630389  0.94184729  1
  O  O393  1  0.36058839  0.77207130  0.27404076  1
  O  O394  1  0.35900996  0.77608426  0.60966273  1
  O  O395  1  0.36066740  0.76615416  0.94068516  1
  O  O396  1  0.86346680  0.29186178  0.28601885  1
  O  O397  1  0.86050798  0.27694545  0.61262365  1
  O  O398  1  0.86078749  0.28744703  0.94937546  1
  O  O399  1  0.85988943  0.77665755  0.27098081  1
  O  O400  1  0.85933566  0.78250023  0.60458025  1
  O  O401  1  0.86192886  0.77611065  0.93699452  1
  O  O402  1  0.22673036  0.14222483  0.23699032  1
  O  O403  1  0.22074156  0.13893489  0.55607173  1
  O  O404  1  0.21744761  0.13184851  0.89012171  1
  O  O405  1  0.21890399  0.63845348  0.22406077  1
  O  O406  1  0.21828675  0.64018332  0.55736239  1
  O  O407  1  0.21513067  0.64369943  0.88943482  1
  O  O408  1  0.72573334  0.13702555  0.22849362  1
  O  O409  1  0.73121465  0.13760149  0.55860938  1
  O  O410  1  0.72967932  0.13862316  0.89268460  1
  O  O411  1  0.71663901  0.63841373  0.22514990  1
  O  O412  1  0.72787030  0.63469298  0.55800989  1
  O  O413  1  0.72144557  0.63906146  0.88752315  1
  O  O414  1  0.49541369  0.33328493  0.03506260  1
  O  O415  1  0.49830254  0.32929981  0.35492949  1
  O  O416  1  0.50219243  0.34191382  0.69158523  1
  O  O417  1  0.48588376  0.83230443  0.03272548  1
  O  O418  1  0.48860136  0.83311372  0.36650873  1
  O  O419  1  0.48893842  0.83233010  0.69956283  1
  O  O420  1  0.99263752  0.34164345  0.03242286  1
  O  O421  1  0.99677886  0.34248103  0.36753442  1
  O  O422  1  0.99161676  0.33348119  0.69786735  1
  O  O423  1  0.99131063  0.82997501  0.02644631  1
  O  O424  1  0.99085579  0.82774581  0.36184221  1
  O  O425  1  0.98985979  0.82759278  0.69415175  1
  O  O426  1  0.16731290  0.01349800  0.14353554  1
  O  O427  1  0.15926837  0.00609219  0.47344690  1
  O  O428  1  0.16210076  0.00437671  0.79659291  1
  O  O429  1  0.16879389  0.50694907  0.13587406  1
  O  O430  1  0.17191360  0.50793676  0.47330084  1
  O  O431  1  0.17064486  0.51108205  0.80385129  1
  O  O432  1  0.66904780  0.00907992  0.13593481  1
  O  O433  1  0.66939376  0.00920269  0.46814105  1
  O  O434  1  0.66770729  0.01033336  0.80138567  1
  O  O435  1  0.66680219  0.50794855  0.13600971  1
  O  O436  1  0.66670636  0.50639380  0.47090477  1
  O  O437  1  0.66703645  0.50757737  0.80362236  1
  O  O438  1  0.00136152  0.17473357  0.30490213  1
  O  O439  1  0.01006761  0.17202422  0.63616240  1
  O  O440  1  0.00705011  0.17084549  0.98133172  1
  O  O441  1  0.00660644  0.66260574  0.29642335  1
  O  O442  1  0.00299744  0.65324487  0.63661745  1
  O  O443  1  0.00638056  0.66262458  0.96746368  1
  O  O444  1  0.51174675  0.16503290  0.30369595  1
  O  O445  1  0.52088495  0.17456952  0.63357932  1
  O  O446  1  0.51126408  0.16929949  0.96826916  1
  O  O447  1  0.50751241  0.66767081  0.30461214  1
  O  O448  1  0.50638535  0.66644544  0.63813638  1
  O  O449  1  0.50686511  0.66692836  0.97109995  1
  O  O450  1  0.33220957  0.48912086  0.20188010  1
  O  O451  1  0.34211956  0.49300395  0.51995138  1
  O  O452  1  0.33814044  0.49131694  0.86342501  1
  O  O453  1  0.32764439  0.98876064  0.20151169  1
  O  O454  1  0.32780871  0.98898711  0.52659645  1
  O  O455  1  0.32693999  0.98795058  0.86341527  1
  O  O456  1  0.83444211  0.49676352  0.19775934  1
  O  O457  1  0.83247435  0.49389995  0.53098835  1
  O  O458  1  0.83643787  0.49627768  0.86412091  1
  O  O459  1  0.83578009  0.99464035  0.19789085  1
  O  O460  1  0.83437499  0.98835870  0.52753741  1
  O  O461  1  0.83295233  0.99292221  0.86419387  1
