# generated using pymatgen
data_Na31Fe20(SO4)36
_symmetry_space_group_name_H-M   'P 1'
_cell_length_a   18.07283245
_cell_length_b   18.08013965
_cell_length_c   19.70969640
_cell_angle_alpha   107.59387670
_cell_angle_beta   107.57739832
_cell_angle_gamma   90.71243850
_symmetry_Int_Tables_number   1
_chemical_formula_structural   Na31Fe20(SO4)36
_chemical_formula_sum   'Na62 Fe40 S72 O288'
_cell_volume   5814.18930873
_cell_formula_units_Z   2
loop_
 _symmetry_equiv_pos_site_id
 _symmetry_equiv_pos_as_xyz
  1  'x, y, z'
loop_
 _atom_site_type_symbol
 _atom_site_label
 _atom_site_symmetry_multiplicity
 _atom_site_fract_x
 _atom_site_fract_y
 _atom_site_fract_z
 _atom_site_occupancy
  Na  Na0  1  0.13959317  0.35544195  0.08344282  1
  Na  Na1  1  0.13153928  0.37177593  0.41975615  1
  Na  Na2  1  0.13761516  0.37594147  0.76268624  1
  Na  Na3  1  0.13353159  0.86601276  0.08036153  1
  Na  Na4  1  0.13658022  0.87273865  0.42156025  1
  Na  Na5  1  0.13140596  0.84095120  0.74128582  1
  Na  Na6  1  0.62321573  0.36205767  0.07199642  1
  Na  Na7  1  0.63418069  0.36018899  0.40967252  1
  Na  Na8  1  0.64264210  0.36763818  0.75669397  1
  Na  Na9  1  0.63948041  0.85489956  0.07518408  1
  Na  Na10  1  0.63533786  0.86653341  0.41734203  1
  Na  Na11  1  0.65096346  0.87591982  0.76852346  1
  Na  Na12  1  0.35470711  0.13443137  0.24098496  1
  Na  Na13  1  0.36095894  0.12701529  0.57149843  1
  Na  Na14  1  0.36983127  0.13208193  0.91311603  1
  Na  Na15  1  0.36123480  0.63350947  0.24268530  1
  Na  Na16  1  0.37825323  0.63506460  0.59148541  1
  Na  Na17  1  0.36164315  0.64042579  0.91428313  1
  Na  Na18  1  0.86573494  0.14073097  0.25857758  1
  Na  Na19  1  0.86477528  0.13583878  0.58276775  1
  Na  Na20  1  0.85832574  0.12903181  0.91756198  1
  Na  Na21  1  0.86744968  0.63165951  0.24793893  1
  Na  Na22  1  0.87224742  0.65498851  0.60123265  1
  Na  Na23  1  0.86136123  0.62895947  0.90584261  1
  Na  Na24  1  0.49268805  0.03802091  0.74291321  1
  Na  Na25  1  1.00722792  0.50684010  0.05469983  1
  Na  Na26  1  0.98771979  0.51414917  0.74613663  1
  Na  Na27  1  0.47749149  0.00304158  0.43143711  1
  Na  Na28  1  1.01254261  -0.02128256  0.75142886  1
  Na  Na29  1  0.95044025  0.00227363  0.07067578  1
  Na  Na30  1  0.49365610  0.50453556  0.42422598  1
  Na  Na31  1  0.98434835  0.54530562  0.52885647  1
  Na  Na32  1  0.50725904  -0.01114415  0.08578093  1
  Na  Na33  1  0.01247256  0.98814934  0.56988793  1
  Na  Na34  1  0.53798614  0.48824309  0.70249654  1
  Na  Na35  1  0.51433209  1.00168671  0.91076933  1
  Na  Na36  1  0.00416479  0.48962778  0.25742513  1
  Na  Na37  1  0.50480579  0.50753083  0.22324907  1
  Na  Na38  1  0.45452448  0.51357918  0.96853194  1
  Na  Na39  1  0.04797735  0.99103802  0.28361938  1
  Na  Na40  1  -0.00186382  0.95268664  0.90297652  1
  Na  Na41  1  0.50720695  0.95414262  0.24231923  1
  Na  Na42  1  0.25020758  0.25267869  0.66684829  1
  Na  Na43  1  0.75764434  0.75528839  0.32668263  1
  Na  Na44  1  0.75277358  0.74902940  0.68083504  1
  Na  Na45  1  0.74870942  0.25189531  0.66468725  1
  Na  Na46  1  0.25397085  0.25179937  0.32390695  1
  Na  Na47  1  0.25643854  0.25843292  -0.00147341  1
  Na  Na48  1  0.26585325  0.76238420  -0.00971702  1
  Na  Na49  1  0.25045949  0.74904556  0.33163910  1
  Na  Na50  1  0.73396793  0.23917436  0.00667073  1
  Na  Na51  1  0.23927749  0.73385721  0.67550928  1
  Na  Na52  1  0.23926628  0.23723498  0.49803672  1
  Na  Na53  1  0.74484832  0.73973717  0.84801580  1
  Na  Na54  1  0.73471303  0.24180416  0.83979515  1
  Na  Na55  1  0.76035273  0.75633948  0.15269568  1
  Na  Na56  1  0.26793723  0.76084767  0.15635342  1
  Na  Na57  1  0.26040322  0.26450377  0.83285169  1
  Na  Na58  1  0.75512259  0.26044235  0.48840430  1
  Na  Na59  1  0.75275803  0.74933651  0.50133871  1
  Na  Na60  1  0.23969307  0.74111102  0.50821157  1
  Na  Na61  1  0.73739675  0.24094969  0.17992537  1
  Fe  Fe62  1  0.96567282  0.80572811  0.11746052  1
  Fe  Fe63  1  0.46578952  0.30627499  0.45143431  1
  Fe  Fe64  1  0.96059469  0.31447172  0.45496575  1
  Fe  Fe65  1  0.46589868  0.81054825  0.45797164  1
  Fe  Fe66  1  0.97095297  0.79685770  0.45228707  1
  Fe  Fe67  1  0.46366821  0.80963149  0.78574653  1
  Fe  Fe68  1  0.96198020  0.31267353  0.78900783  1
  Fe  Fe69  1  0.46393504  0.30246447  0.11650656  1
  Fe  Fe70  1  0.96490798  0.30630559  0.11919134  1
  Fe  Fe71  1  0.46853322  0.30179190  0.79200636  1
  Fe  Fe72  1  0.70335846  0.03056033  0.04645875  1
  Fe  Fe73  1  0.19486552  0.53393414  0.71348541  1
  Fe  Fe74  1  0.20044222  0.52772851  0.04083831  1
  Fe  Fe75  1  0.18667356  0.03730834  0.04642771  1
  Fe  Fe76  1  0.68531487  0.53965220  0.04158614  1
  Fe  Fe77  1  0.69272668  0.03465689  0.71378455  1
  Fe  Fe78  1  0.19600497  0.53356834  0.38089674  1
  Fe  Fe79  1  0.68917043  0.53664206  0.37640062  1
  Fe  Fe80  1  0.19190531  0.03609487  0.71449568  1
  Fe  Fe81  1  0.69466234  0.03526707  0.38036255  1
  Fe  Fe82  1  0.03772129  0.68706376  0.20761374  1
  Fe  Fe83  1  0.02943460  0.19134371  0.88169585  1
  Fe  Fe84  1  0.03398912  0.19194774  0.21559405  1
  Fe  Fe85  1  0.03629636  0.69810514  0.87282318  1
  Fe  Fe86  1  0.53510915  0.18718609  0.21267332  1
  Fe  Fe87  1  0.53526473  0.69467520  0.88148916  1
  Fe  Fe88  1  0.53729585  0.69813676  0.55064720  1
  Fe  Fe89  1  0.03404121  0.19160069  0.54505527  1
  Fe  Fe90  1  0.52911375  0.70190371  0.20808148  1
  Fe  Fe91  1  0.53586691  0.19053744  0.54307149  1
  Fe  Fe92  1  0.29603507  0.97010286  0.28580660  1
  Fe  Fe93  1  0.81390277  0.96440215  0.62189539  1
  Fe  Fe94  1  0.31230962  0.46160494  0.62071582  1
  Fe  Fe95  1  0.30357767  0.96823387  0.61626930  1
  Fe  Fe96  1  0.81756034  0.96594960  0.29241506  1
  Fe  Fe97  1  0.30835364  0.46155910  0.28374152  1
  Fe  Fe98  1  0.79760537  0.47217440  0.62235490  1
  Fe  Fe99  1  0.30838476  0.96417363  0.95247749  1
  Fe  Fe100  1  0.80529579  0.46410311  0.28487123  1
  Fe  Fe101  1  0.80227188  0.46835733  0.94937262  1
  S  S102  1  0.35577775  0.13873971  0.08202707  1
  S  S103  1  0.35851228  0.14083914  0.41410255  1
  S  S104  1  0.35622918  0.13945662  0.74796813  1
  S  S105  1  0.35874714  0.64158201  0.08462708  1
  S  S106  1  0.36196608  0.64028095  0.41707203  1
  S  S107  1  0.36442241  0.63729883  0.74798208  1
  S  S108  1  0.85835559  0.14672397  0.08837866  1
  S  S109  1  0.85875591  0.14407719  0.42048040  1
  S  S110  1  0.85798263  0.14370556  0.74787902  1
  S  S111  1  0.86245339  0.63782216  0.08305011  1
  S  S112  1  0.85456696  0.63809372  0.41196569  1
  S  S113  1  0.86494796  0.64216456  0.75072695  1
  S  S114  1  0.13934934  0.35886703  0.25061466  1
  S  S115  1  0.13981468  0.35949850  0.58322575  1
  S  S116  1  0.13500128  0.35610956  0.91924935  1
  S  S117  1  0.14287290  0.85099447  0.24618768  1
  S  S118  1  0.14242167  0.86050747  0.58372460  1
  S  S119  1  0.14326195  0.86092222  0.91493661  1
  S  S120  1  0.63649874  0.36102024  0.24814541  1
  S  S121  1  0.63666843  0.35695639  0.57984657  1
  S  S122  1  0.64035404  0.36160764  0.91677145  1
  S  S123  1  0.64761832  0.86093826  0.25085613  1
  S  S124  1  0.64372653  0.86008291  0.58376595  1
  S  S125  1  0.63811064  0.86219932  0.91633524  1
  S  S126  1  0.06092752  0.16637587  0.03997279  1
  S  S127  1  0.06348944  0.17914760  0.38065138  1
  S  S128  1  0.06653211  0.17100783  0.71007107  1
  S  S129  1  0.07505468  0.67241690  0.04095762  1
  S  S130  1  0.07085065  0.66832033  0.37113630  1
  S  S131  1  0.06757566  0.65856433  0.70482220  1
  S  S132  1  0.56520763  0.16120625  0.04426937  1
  S  S133  1  0.56587588  0.16365289  0.37112948  1
  S  S134  1  0.56695189  0.17084397  0.70387924  1
  S  S135  1  0.56613205  0.67209105  0.04330746  1
  S  S136  1  0.56431441  0.67257853  0.37288967  1
  S  S137  1  0.57306118  0.68053087  0.71422073  1
  S  S138  1  0.33024036  0.42986037  0.12620368  1
  S  S139  1  0.33228115  0.43122053  0.45550711  1
  S  S140  1  0.33168102  0.43082420  0.78833818  1
  S  S141  1  0.32836757  0.94038195  0.12323045  1
  S  S142  1  0.33084482  0.93089223  0.45611361  1
  S  S143  1  0.32650408  0.93301877  0.78742654  1
  S  S144  1  0.82796519  0.43136544  0.12237755  1
  S  S145  1  0.82388235  0.43584593  0.45820616  1
  S  S146  1  0.82950472  0.43095013  0.78927442  1
  S  S147  1  0.83656011  0.93566979  0.13327242  1
  S  S148  1  0.83237532  0.93057994  0.45669626  1
  S  S149  1  0.83593035  0.94179888  0.78722150  1
  S  S150  1  0.43260543  0.32807623  0.29027165  1
  S  S151  1  0.43233827  0.32263280  0.62197152  1
  S  S152  1  0.42830003  0.32181835  0.95554389  1
  S  S153  1  0.43344275  0.83500943  0.29550088  1
  S  S154  1  0.43182066  0.83422184  0.62567548  1
  S  S155  1  0.43804352  0.83756130  0.95875811  1
  S  S156  1  0.93208429  0.33356803  0.29054686  1
  S  S157  1  0.92811755  0.33294014  0.62435407  1
  S  S158  1  0.92596955  0.32904708  0.95766340  1
  S  S159  1  0.93727286  0.82486839  0.28970077  1
  S  S160  1  0.93669360  0.83582358  0.62051673  1
  S  S161  1  0.93794657  0.82452023  0.95664002  1
  S  S162  1  0.16037662  0.06297612  0.20587089  1
  S  S163  1  0.16568248  0.06674814  0.54225528  1
  S  S164  1  0.16593770  0.06909202  0.87601564  1
  S  S165  1  0.17087589  0.56147771  0.20648503  1
  S  S166  1  0.18149310  0.56638107  0.54512169  1
  S  S167  1  0.17051459  0.57236543  0.87662390  1
  S  S168  1  0.67448568  0.06508111  0.21057564  1
  S  S169  1  0.67121970  0.06593204  0.54110463  1
  S  S170  1  0.66601424  0.06749718  0.87536946  1
  S  S171  1  0.66994607  0.57107048  0.20771618  1
  S  S172  1  0.66990512  0.57180820  0.53840240  1
  S  S173  1  0.66689688  0.56713966  0.87437568  1
  O  O174  1  0.36700610  0.21763996  0.07484920  1
  O  O175  1  0.37232647  0.22052559  0.40726533  1
  O  O176  1  0.36552163  0.22008963  0.74333163  1
  O  O177  1  0.35945340  0.72308987  0.08536692  1
  O  O178  1  0.37137470  0.71866057  0.40808065  1
  O  O179  1  0.37163343  0.71400141  0.73424534  1
  O  O180  1  0.86550622  0.22785456  0.08383473  1
  O  O181  1  0.86471880  0.22366078  0.41417148  1
  O  O182  1  0.87042740  0.22203464  0.73904049  1
  O  O183  1  0.87098287  0.71886828  0.08094896  1
  O  O184  1  0.86831646  0.71541134  0.40135614  1
  O  O185  1  0.87678276  0.71373769  0.73350102  1
  O  O186  1  0.27798607  0.13070826  0.09158821  1
  O  O187  1  0.28455908  0.13510137  0.42826393  1
  O  O188  1  0.27633799  0.13235704  0.75626164  1
  O  O189  1  0.28295243  0.62249465  0.09777431  1
  O  O190  1  0.28257493  0.63189113  0.42428722  1
  O  O191  1  0.28447514  0.62669521  0.75249169  1
  O  O192  1  0.77813697  0.13609077  0.09438151  1
  O  O193  1  0.78044121  0.13122579  0.42957771  1
  O  O194  1  0.77798866  0.13768433  0.75429926  1
  O  O195  1  0.78515383  0.62635669  0.09351203  1
  O  O196  1  0.77074520  0.63353503  0.41108233  1
  O  O197  1  0.79186562  0.63614251  0.76699236  1
  O  O198  1  0.12888544  0.28042313  0.25915946  1
  O  O199  1  0.12862808  0.27890843  0.58842349  1
  O  O200  1  0.12007484  0.27934013  0.93175997  1
  O  O201  1  0.13534364  0.76740941  0.24460218  1
  O  O202  1  0.13865206  0.78313367  0.59175457  1
  O  O203  1  0.13257172  0.78055582  0.92241663  1
  O  O204  1  0.62673931  0.28249949  0.25564661  1
  O  O205  1  0.63177057  0.27376057  0.58060647  1
  O  O206  1  0.63679159  0.28594136  0.92868125  1
  O  O207  1  0.63301215  0.78188229  0.25728078  1
  O  O208  1  0.63656263  0.77936138  0.58930185  1
  O  O209  1  0.62335206  0.78494005  0.92597342  1
  O  O210  1  0.21963012  0.36848527  0.24744835  1
  O  O211  1  0.21779382  0.36464013  0.57146663  1
  O  O212  1  0.21219532  0.35949425  0.91073494  1
  O  O213  1  0.22201520  0.86384505  0.23880676  1
  O  O214  1  0.21914522  0.87418925  0.57084384  1
  O  O215  1  0.22575357  0.86937663  0.91567452  1
  O  O216  1  0.71607964  0.37055470  0.24102304  1
  O  O217  1  0.71613028  0.37094608  0.57374309  1
  O  O218  1  0.71750921  0.37428558  0.90395389  1
  O  O219  1  0.73095428  0.86692057  0.25168988  1
  O  O220  1  0.72145975  0.87060156  0.57337578  1
  O  O221  1  0.71027339  0.86525921  0.89827119  1
  O  O222  1  0.41647176  0.12897738  0.14850715  1
  O  O223  1  0.42281620  0.12717214  0.47698534  1
  O  O224  1  0.41482449  0.12453876  0.81022432  1
  O  O225  1  0.42144461  0.63247358  0.15195779  1
  O  O226  1  0.42120515  0.63297027  0.48557571  1
  O  O227  1  0.42150678  0.63591495  0.81954726  1
  O  O228  1  0.91558638  0.13956241  0.15838926  1
  O  O229  1  0.91831049  0.13651767  0.48870343  1
  O  O230  1  0.91494012  0.13564504  0.81677525  1
  O  O231  1  0.92368266  0.62611945  0.14858409  1
  O  O232  1  0.90562729  0.63126069  0.48216743  1
  O  O233  1  0.93068117  0.63514140  0.81876371  1
  O  O234  1  0.36200356  0.08038320  0.01226853  1
  O  O235  1  0.36036957  0.08304258  0.34235954  1
  O  O236  1  0.36067785  0.08376724  0.67539219  1
  O  O237  1  0.36622999  0.58867630  0.01505735  1
  O  O238  1  0.37017955  0.57970036  0.34981637  1
  O  O239  1  0.37798149  0.57562065  0.68406092  1
  O  O240  1  0.86943878  0.09003061  0.02275685  1
  O  O241  1  0.86714733  0.08605514  0.35261090  1
  O  O242  1  0.86599984  0.08463935  0.68002108  1
  O  O243  1  0.87010826  0.58144465  0.01322452  1
  O  O244  1  0.86430332  0.57727760  0.34517594  1
  O  O245  1  0.87138218  0.57423153  0.68618888  1
  O  O246  1  0.08201473  0.36580635  0.18065523  1
  O  O247  1  0.07962629  0.37166611  0.51830555  1
  O  O248  1  0.07560002  0.36257207  0.85017798  1
  O  O249  1  0.08324848  0.86322664  0.18036814  1
  O  O250  1  0.08042455  0.86927475  0.51698673  1
  O  O251  1  0.08862162  0.87052747  0.84719815  1
  O  O252  1  0.57811774  0.37020221  0.17993631  1
  O  O253  1  0.57896471  0.36374641  0.50975365  1
  O  O254  1  0.57945249  0.36580546  0.84796772  1
  O  O255  1  0.59469845  0.87368276  0.18392660  1
  O  O256  1  0.58347744  0.86690937  0.51596013  1
  O  O257  1  0.57242938  0.87808990  0.85562003  1
  O  O258  1  0.12711875  0.41914884  0.31637718  1
  O  O259  1  0.13736343  0.41598234  0.65445870  1
  O  O260  1  0.12790504  0.41816113  0.98640131  1
  O  O261  1  0.13509840  0.90275510  0.31601354  1
  O  O262  1  0.13471154  0.92086103  0.65206090  1
  O  O263  1  0.13086525  0.91839060  0.98257465  1
  O  O264  1  0.62793415  0.42091458  0.31563619  1
  O  O265  1  0.62458336  0.40916835  0.64702292  1
  O  O266  1  0.63309349  0.42357723  0.98382867  1
  O  O267  1  0.63730058  0.91937836  0.31965982  1
  O  O268  1  0.63620206  0.91631413  0.65278650  1
  O  O269  1  0.63964017  0.92201441  0.98892891  1
  O  O270  1  0.02675232  0.19780441  0.10337201  1
  O  O271  1  0.02366782  0.21241294  0.43971065  1
  O  O272  1  0.03130653  0.19889152  0.77183666  1
  O  O273  1  0.02979979  0.69730445  0.09603275  1
  O  O274  1  0.03444146  0.69641962  0.43009417  1
  O  O275  1  0.04274254  0.69321303  0.77295163  1
  O  O276  1  0.53178383  0.19528569  0.10841807  1
  O  O277  1  0.52940629  0.19446390  0.43177925  1
  O  O278  1  0.52856628  0.19862703  0.76175463  1
  O  O279  1  0.53245971  0.69996074  0.10449449  1
  O  O280  1  0.52912940  0.70023318  0.43508779  1
  O  O281  1  0.53322075  0.71200585  0.77319354  1
  O  O282  1  0.30038034  0.46413722  0.06608852  1
  O  O283  1  0.30094319  0.47036989  0.39609589  1
  O  O284  1  0.29837874  0.46379990  0.72359617  1
  O  O285  1  0.29214598  0.97581385  0.06205315  1
  O  O286  1  0.31130159  0.96547743  0.39501968  1
  O  O287  1  0.29881533  0.97169954  0.72756077  1
  O  O288  1  0.80242205  0.46703177  0.06113191  1
  O  O289  1  0.79422240  0.47111011  0.39573277  1
  O  O290  1  0.79849710  0.46158813  0.72668388  1
  O  O291  1  0.80909241  0.97311323  0.07424931  1
  O  O292  1  0.80414735  0.97004772  0.39753854  1
  O  O293  1  0.79573628  0.97651376  0.72356843  1
  O  O294  1  0.46595103  0.29762474  0.22731007  1
  O  O295  1  0.46813218  0.29317626  0.55989112  1
  O  O296  1  0.46429627  0.29616904  0.89528582  1
  O  O297  1  0.47319877  0.80961160  0.23823342  1
  O  O298  1  0.47070269  0.80378712  0.56574989  1
  O  O299  1  0.46077804  0.79919017  0.88932206  1
  O  O300  1  0.97272168  0.30371468  0.23252389  1
  O  O301  1  0.96602199  0.30538433  0.56427456  1
  O  O302  1  0.95974178  0.29801923  0.89511529  1
  O  O303  1  0.97553006  0.79540915  0.22967335  1
  O  O304  1  0.96063513  0.80351780  0.55295666  1
  O  O305  1  0.97944208  0.79386008  0.89970685  1
  O  O306  1  0.18717347  0.02336280  0.26337555  1
  O  O307  1  0.19848483  0.03398697  0.60703447  1
  O  O308  1  0.19631038  0.03195323  0.93607437  1
  O  O309  1  0.20017522  0.52552260  0.26835357  1
  O  O310  1  0.21135682  0.52563701  0.60368954  1
  O  O311  1  0.18464802  0.53347135  0.93396556  1
  O  O312  1  0.70540492  0.03012705  0.27290995  1
  O  O313  1  0.69816972  0.02990978  0.60213070  1
  O  O314  1  0.69658358  0.03620991  0.93836226  1
  O  O315  1  0.69644485  0.52935597  0.26546945  1
  O  O316  1  0.69831671  0.53594430  0.59766221  1
  O  O317  1  0.70232530  0.53672335  0.94102265  1
  O  O318  1  0.07509295  0.08329130  0.03273973  1
  O  O319  1  0.08296794  0.10182509  0.38180367  1
  O  O320  1  0.08220528  0.08759492  0.70131997  1
  O  O321  1  0.09455343  0.59218837  0.03885893  1
  O  O322  1  0.09215401  0.58706472  0.36607025  1
  O  O323  1  0.08651397  0.57640307  0.70145032  1
  O  O324  1  0.59201690  0.08363990  0.04838480  1
  O  O325  1  0.58247249  0.08141943  0.36603612  1
  O  O326  1  0.58992896  0.09113306  0.70316276  1
  O  O327  1  0.57974809  0.58770886  0.03214199  1
  O  O328  1  0.57828748  0.58863592  0.36244866  1
  O  O329  1  0.59321015  0.60281909  0.71222330  1
  O  O330  1  0.41154308  0.40915558  0.13172410  1
  O  O331  1  0.41259494  0.41304206  0.45500014  1
  O  O332  1  0.40539158  0.39885615  0.78195940  1
  O  O333  1  0.41093572  0.93372461  0.12895167  1
  O  O334  1  0.41450747  0.91392060  0.47139022  1
  O  O335  1  0.40941870  0.91777316  0.79522276  1
  O  O336  1  0.91051654  0.41224322  0.13165995  1
  O  O337  1  0.90586410  0.41831111  0.46268113  1
  O  O338  1  0.91335870  0.41746339  0.79819488  1
  O  O339  1  0.91814083  0.91576375  0.13667946  1
  O  O340  1  0.91163718  0.90826312  0.45927652  1
  O  O341  1  0.91437028  0.92670792  0.78164078  1
  O  O342  1  0.41719654  0.41137787  0.29840430  1
  O  O343  1  0.41514865  0.40441318  0.62636965  1
  O  O344  1  0.40569847  0.40033474  0.96567080  1
  O  O345  1  0.41203742  0.91615400  0.29913966  1
  O  O346  1  0.41153307  0.91453040  0.62923727  1
  O  O347  1  0.41600976  0.91829695  0.95682496  1
  O  O348  1  0.91341718  0.41420863  0.29106191  1
  O  O349  1  0.90605082  0.41288862  0.62934073  1
  O  O350  1  0.90750100  0.41031778  0.96268184  1
  O  O351  1  0.92148087  0.90666421  0.29567642  1
  O  O352  1  0.92150194  0.92074808  0.62736881  1
  O  O353  1  0.92114894  0.90404292  0.95721576  1
  O  O354  1  0.07772864  0.08090524  0.20088668  1
  O  O355  1  0.08583394  0.08823604  0.54468836  1
  O  O356  1  0.08328113  0.08484530  0.87073268  1
  O  O357  1  0.08728398  0.57591516  0.19802170  1
  O  O358  1  0.10501504  0.58984213  0.54409576  1
  O  O359  1  0.08846182  0.59653907  0.86134362  1
  O  O360  1  0.59090125  0.07901560  0.20389834  1
  O  O361  1  0.58878661  0.08319007  0.53084547  1
  O  O362  1  0.58237592  0.07636506  0.86221148  1
  O  O363  1  0.59138238  0.59501410  0.20769654  1
  O  O364  1  0.58858971  0.59296638  0.53309136  1
  O  O365  1  0.59066773  0.59463538  0.87893655  1
  O  O366  1  0.13244915  0.21539313  0.05389239  1
  O  O367  1  0.13300014  0.23404215  0.39630108  1
  O  O368  1  0.13870226  0.22215379  0.72681007  1
  O  O369  1  0.14547116  0.72768609  0.06357182  1
  O  O370  1  0.14147411  0.72136506  0.38551501  1
  O  O371  1  0.13750804  0.70716453  0.71287985  1
  O  O372  1  0.63294504  0.21710285  0.05742335  1
  O  O373  1  0.63670556  0.21493149  0.38624515  1
  O  O374  1  0.63719083  0.22465981  0.71866296  1
  O  O375  1  0.64020046  0.71959290  0.05939276  1
  O  O376  1  0.63707107  0.72328791  0.39117399  1
  O  O377  1  0.64266045  0.73609260  0.73119999  1
  O  O378  1  0.27840967  0.36071645  0.11586830  1
  O  O379  1  0.27987621  0.35992049  0.43803087  1
  O  O380  1  0.27271879  0.36598603  0.77758603  1
  O  O381  1  0.28167272  0.86489571  0.10486569  1
  O  O382  1  0.27858837  0.85906439  0.43802628  1
  O  O383  1  0.27555923  0.86094501  0.76839578  1
  O  O384  1  0.77382237  0.36200742  0.10691919  1
  O  O385  1  0.77247163  0.36506583  0.44267725  1
  O  O386  1  0.78216111  0.35718001  0.77679236  1
  O  O387  1  0.78430835  0.86613700  0.11988673  1
  O  O388  1  0.77653063  0.86134767  0.43916588  1
  O  O389  1  0.78630129  0.86937841  0.77220948  1
  O  O390  1  0.36189437  0.27827683  0.27777597  1
  O  O391  1  0.36000378  0.27119813  0.60449691  1
  O  O392  1  0.35912760  0.26471382  0.93889983  1
  O  O393  1  0.36359171  0.78042201  0.27888597  1
  O  O394  1  0.36199836  0.77963216  0.60797156  1
  O  O395  1  0.37158999  0.78864541  0.95639260  1
  O  O396  1  0.86120913  0.28133581  0.27310512  1
  O  O397  1  0.85836374  0.27734809  0.60656022  1
  O  O398  1  0.85623770  0.27694195  0.94527875  1
  O  O399  1  0.86440325  0.77284164  0.26950319  1
  O  O400  1  0.86304730  0.79028331  0.61073343  1
  O  O401  1  0.86837393  0.77118687  0.94063975  1
  O  O402  1  0.21207276  0.13478327  0.22388262  1
  O  O403  1  0.21764235  0.13867111  0.55794594  1
  O  O404  1  0.21661217  0.14052187  0.89119348  1
  O  O405  1  0.22164563  0.63408167  0.22562102  1
  O  O406  1  0.23921849  0.63453677  0.56244336  1
  O  O407  1  0.22739664  0.64071318  0.89748831  1
  O  O408  1  0.72304431  0.13799733  0.22690696  1
  O  O409  1  0.72356521  0.13744486  0.55864950  1
  O  O410  1  0.71453692  0.14216178  0.89143916  1
  O  O411  1  0.72658696  0.63948178  0.22591037  1
  O  O412  1  0.72306376  0.64178309  0.55157369  1
  O  O413  1  0.72256770  0.63133292  0.88234818  1
  O  O414  1  0.48877039  0.31850896  0.02704816  1
  O  O415  1  0.49491585  0.32978338  0.36139494  1
  O  O416  1  0.49153123  0.32442068  0.69361299  1
  O  O417  1  0.50607470  0.85117301  0.02625546  1
  O  O418  1  0.49112591  0.84156376  0.37113916  1
  O  O419  1  0.49090424  0.83831391  0.69864354  1
  O  O420  1  0.98842792  0.33359288  0.02978296  1
  O  O421  1  0.98861919  0.33899324  0.36535234  1
  O  O422  1  0.98777440  0.33596870  0.69715716  1
  O  O423  1  0.99494965  0.83057552  0.03290993  1
  O  O424  1  0.99374184  0.82358630  0.36214637  1
  O  O425  1  1.00012962  0.83825091  0.68810187  1
  O  O426  1  0.15743056  0.00698220  0.13092017  1
  O  O427  1  0.15974658  0.00686089  0.47220070  1
  O  O428  1  0.16159935  0.00998320  0.80212578  1
  O  O429  1  0.17098197  0.50332021  0.13461078  1
  O  O430  1  0.17787408  0.50774537  0.47090386  1
  O  O431  1  0.17232759  0.51241226  0.80550446  1
  O  O432  1  0.67487983  0.00542124  0.13940349  1
  O  O433  1  0.67243953  0.00670354  0.46947453  1
  O  O434  1  0.67370459  0.01045074  0.80447444  1
  O  O435  1  0.66462347  0.51325412  0.13371255  1
  O  O436  1  0.66151469  0.51175394  0.46305718  1
  O  O437  1  0.65262605  0.50075531  0.80533846  1
  O  O438  1  0.00541379  0.17562888  0.30641387  1
  O  O439  1  0.00737586  0.17209190  0.63869355  1
  O  O440  1  -0.00080542  0.16656005  0.96936492  1
  O  O441  1  0.01182856  0.66116439  0.29599675  1
  O  O442  1  0.00218892  0.65264672  0.63722706  1
  O  O443  1  0.02105198  0.67110715  0.96598456  1
  O  O444  1  0.50600101  0.16142462  0.29843650  1
  O  O445  1  0.50896047  0.16252255  0.62839748  1
  O  O446  1  0.50326410  0.14774372  0.97306376  1
  O  O447  1  0.50584337  0.67487932  0.30167100  1
  O  O448  1  0.51413217  0.67863036  0.64050055  1
  O  O449  1  0.50687174  0.67503595  0.97249476  1
  O  O450  1  0.33818654  0.49162862  0.20123422  1
  O  O451  1  0.33772922  0.48788886  0.52978941  1
  O  O452  1  0.34580243  0.49469573  0.85880600  1
  O  O453  1  0.32343896  0.99479316  0.19579880  1
  O  O454  1  0.32583405  0.99072295  0.52556557  1
  O  O455  1  0.32539619  0.99150397  0.85931696  1
  O  O456  1  0.83003800  0.49188943  0.19466398  1
  O  O457  1  0.82739025  0.49629635  0.53021648  1
  O  O458  1  0.82781142  0.49056026  0.86052323  1
  O  O459  1  0.84312104  0.99561068  0.20790361  1
  O  O460  1  0.83587798  0.99007068  0.52962154  1
  O  O461  1  0.84219220  0.99997397  0.85918371  1
