# generated using pymatgen
data_Na31Fe20(SO4)36
_symmetry_space_group_name_H-M   'P 1'
_cell_length_a   18.07255409
_cell_length_b   18.07251817
_cell_length_c   19.70283093
_cell_angle_alpha   107.61765853
_cell_angle_beta   107.61416484
_cell_angle_gamma   90.68649083
_symmetry_Int_Tables_number   1
_chemical_formula_structural   Na31Fe20(SO4)36
_chemical_formula_sum   'Na62 Fe40 S72 O288'
_cell_volume   5807.76117880
_cell_formula_units_Z   2
loop_
 _symmetry_equiv_pos_site_id
 _symmetry_equiv_pos_as_xyz
  1  'x, y, z'
loop_
 _atom_site_type_symbol
 _atom_site_label
 _atom_site_symmetry_multiplicity
 _atom_site_fract_x
 _atom_site_fract_y
 _atom_site_fract_z
 _atom_site_occupancy
  Na  Na0  1  0.13436607  0.36861718  0.08539131  1
  Na  Na1  1  0.14870832  0.38027049  0.43026612  1
  Na  Na2  1  0.12224730  0.35241147  0.73149158  1
  Na  Na3  1  0.13154225  0.86349031  0.08284554  1
  Na  Na4  1  0.13682501  0.86312091  0.42536043  1
  Na  Na5  1  0.12957154  0.84948970  0.74344810  1
  Na  Na6  1  0.63385819  0.36598765  0.08354438  1
  Na  Na7  1  0.63438940  0.36163159  0.41428185  1
  Na  Na8  1  0.62737783  0.35406916  0.73906314  1
  Na  Na9  1  0.63501786  0.86749412  0.08221291  1
  Na  Na10  1  0.63002287  0.88095934  0.41600358  1
  Na  Na11  1  0.64296710  0.87203775  0.75914461  1
  Na  Na12  1  0.36744284  0.13557538  0.25734884  1
  Na  Na13  1  0.35965926  0.13583573  0.58399905  1
  Na  Na14  1  0.36465535  0.13471320  0.91414091  1
  Na  Na15  1  0.36669106  0.63618238  0.25064173  1
  Na  Na16  1  0.33054665  0.63626324  0.55499555  1
  Na  Na17  1  0.35182494  0.62895861  0.89817502  1
  Na  Na18  1  0.86853726  0.14052785  0.25959170  1
  Na  Na19  1  0.86416790  0.13267188  0.57066993  1
  Na  Na20  1  0.86397366  0.12928732  0.91881690  1
  Na  Na21  1  0.86524827  0.63075510  0.24780601  1
  Na  Na22  1  0.88939713  0.64024902  0.59463852  1
  Na  Na23  1  0.86439474  0.63513609  0.91438515  1
  Na  Na24  1  1.01254694  0.51791045  0.72284808  1
  Na  Na25  1  1.00664163  -0.01758616  0.75416066  1
  Na  Na26  1  0.48082127  0.50366843  0.42975316  1
  Na  Na27  1  0.99628093  0.04524514  0.41877087  1
  Na  Na28  1  0.95821144  0.00745101  0.08636425  1
  Na  Na29  1  0.49360466  0.00039486  0.10503071  1
  Na  Na30  1  0.49177802  0.51481294  0.06958050  1
  Na  Na31  1  0.48936051  0.01566326  0.74218784  1
  Na  Na32  1  1.00063192  0.54247138  0.43267791  1
  Na  Na33  1  0.50998047  0.49228382  0.25264192  1
  Na  Na34  1  0.00660625  0.99736852  0.58229432  1
  Na  Na35  1  0.51087328  0.45348504  0.81610918  1
  Na  Na36  1  0.45825668  0.51682788  0.62586004  1
  Na  Na37  1  0.00008816  0.95182421  0.90937430  1
  Na  Na38  1  0.51493562  0.98605563  0.91817400  1
  Na  Na39  1  0.00601127  0.48918375  0.92078784  1
  Na  Na40  1  0.05168585  0.49251328  0.25920463  1
  Na  Na41  1  0.50516525  1.00803155  0.55542358  1
  Na  Na42  1  0.25074773  0.24917000  0.00075837  1
  Na  Na43  1  0.75606330  0.25302365  0.66118250  1
  Na  Na44  1  0.76600219  0.76053896  0.66350465  1
  Na  Na45  1  0.74412748  0.24382676  0.00680955  1
  Na  Na46  1  0.75293161  0.75646510  0.32835058  1
  Na  Na47  1  0.25898417  0.26667962  0.65312629  1
  Na  Na48  1  0.23897587  0.73051709  0.35488165  1
  Na  Na49  1  0.25672219  0.75505498  -0.01489469  1
  Na  Na50  1  0.23426637  0.73710030  0.67243789  1
  Na  Na51  1  0.75682987  0.76223990  -0.00946057  1
  Na  Na52  1  0.75991327  0.75922932  0.49647376  1
  Na  Na53  1  0.26689233  0.27106098  0.48985070  1
  Na  Na54  1  0.77548332  0.77320513  0.82900955  1
  Na  Na55  1  0.25651670  0.25720443  0.82095787  1
  Na  Na56  1  0.74611200  0.24991159  0.83466751  1
  Na  Na57  1  0.75336011  0.75855581  0.16115024  1
  Na  Na58  1  0.24587561  0.74613634  0.17076703  1
  Na  Na59  1  0.74276091  0.24202516  0.18061593  1
  Na  Na60  1  0.24132052  0.23755121  0.18301555  1
  Na  Na61  1  0.74902737  0.24926284  0.48300045  1
  Fe  Fe62  1  0.46293238  0.80625682  0.78019141  1
  Fe  Fe63  1  0.46547552  0.30641488  0.12009666  1
  Fe  Fe64  1  0.96722009  0.30163222  0.78382715  1
  Fe  Fe65  1  0.96726963  0.30866248  0.12277640  1
  Fe  Fe66  1  0.46323645  0.30737934  0.45504919  1
  Fe  Fe67  1  0.96959890  0.30279086  0.45824319  1
  Fe  Fe68  1  0.96391584  0.81293003  0.12852627  1
  Fe  Fe69  1  0.46749271  0.80929674  0.12093680  1
  Fe  Fe70  1  0.46631475  0.80742473  0.45069901  1
  Fe  Fe71  1  0.96768904  0.80123880  0.45765087  1
  Fe  Fe72  1  0.19290778  0.03244459  0.05046751  1
  Fe  Fe73  1  0.69842157  0.03271390  0.04487456  1
  Fe  Fe74  1  0.69128310  0.03630832  0.71430126  1
  Fe  Fe75  1  0.19166391  0.03388345  0.71527672  1
  Fe  Fe76  1  0.69697780  0.53259542  0.38321313  1
  Fe  Fe77  1  0.18944166  0.03563373  0.38230482  1
  Fe  Fe78  1  0.19142932  0.53695652  0.04480445  1
  Fe  Fe79  1  0.69134327  0.53577497  0.04693646  1
  Fe  Fe80  1  0.69193213  0.53408619  0.71460104  1
  Fe  Fe81  1  0.20108022  0.52877958  0.69311897  1
  Fe  Fe82  1  0.53349195  0.68886061  0.87711246  1
  Fe  Fe83  1  0.03434206  0.18840180  0.88096152  1
  Fe  Fe84  1  0.03368414  0.69580835  0.88005165  1
  Fe  Fe85  1  0.52891388  0.20223312  0.87686886  1
  Fe  Fe86  1  0.53692896  0.69596529  0.54854011  1
  Fe  Fe87  1  0.53895128  0.19370884  0.22196758  1
  Fe  Fe88  1  0.53392249  0.19102044  0.54292386  1
  Fe  Fe89  1  0.03412220  0.69175045  0.21336706  1
  Fe  Fe90  1  0.53598310  0.69484955  0.21397577  1
  Fe  Fe91  1  0.03854244  0.19325944  0.21700449  1
  Fe  Fe92  1  0.80649848  0.96991224  0.61982420  1
  Fe  Fe93  1  0.80079967  0.97285394  0.29349784  1
  Fe  Fe94  1  0.80721350  0.46623119  0.61920645  1
  Fe  Fe95  1  0.30487648  0.96175823  0.61609361  1
  Fe  Fe96  1  0.30262639  0.46831257  0.28544537  1
  Fe  Fe97  1  0.81276249  0.46594342  0.95871838  1
  Fe  Fe98  1  0.30920095  0.96384263  0.28844974  1
  Fe  Fe99  1  0.81443007  0.46173319  0.29098111  1
  Fe  Fe100  1  0.30792652  0.96362622  0.95096961  1
  Fe  Fe101  1  0.30348766  0.46418367  0.94976479  1
  S  S102  1  0.36028640  0.13879624  0.08442077  1
  S  S103  1  0.35663629  0.13755032  0.41833404  1
  S  S104  1  0.35607768  0.13832964  0.74969111  1
  S  S105  1  0.36076238  0.64198205  0.08187879  1
  S  S106  1  0.36669636  0.63926660  0.41264014  1
  S  S107  1  0.36387560  0.64201837  0.74596585  1
  S  S108  1  0.86082052  0.14544148  0.08625368  1
  S  S109  1  0.86401146  0.14310092  0.41838688  1
  S  S110  1  0.85809500  0.14256948  0.75234919  1
  S  S111  1  0.85660473  0.64271438  0.08302347  1
  S  S112  1  0.85561282  0.63986522  0.41625318  1
  S  S113  1  0.85906133  0.63775256  0.75267674  1
  S  S114  1  0.14340470  0.35494931  0.24618463  1
  S  S115  1  0.13514636  0.35597737  0.58431162  1
  S  S116  1  0.13925994  0.35626153  0.91743682  1
  S  S117  1  0.14289747  0.85809457  0.25362834  1
  S  S118  1  0.13786929  0.86173844  0.58739397  1
  S  S119  1  0.14245775  0.86077532  0.91788393  1
  S  S120  1  0.64090639  0.36195000  0.24974308  1
  S  S121  1  0.64108057  0.36144572  0.58319846  1
  S  S122  1  0.64671077  0.36105143  0.92023738  1
  S  S123  1  0.64030617  0.85851735  0.24782300  1
  S  S124  1  0.63929508  0.86199854  0.58316569  1
  S  S125  1  0.63682431  0.85716011  0.91412004  1
  S  S126  1  0.06723751  0.16736762  0.04319876  1
  S  S127  1  0.07250983  0.17742754  0.37842013  1
  S  S128  1  0.06156976  0.16066080  0.71112617  1
  S  S129  1  0.06537404  0.67059411  0.04331270  1
  S  S130  1  0.05864253  0.67003836  0.37134330  1
  S  S131  1  0.08042715  0.66528525  0.71541360  1
  S  S132  1  0.56658659  0.17237502  0.04189467  1
  S  S133  1  0.56279293  0.17128987  0.37757434  1
  S  S134  1  0.56403993  0.16385831  0.70517953  1
  S  S135  1  0.56557299  0.66943053  0.04079717  1
  S  S136  1  0.57209921  0.67081853  0.37476978  1
  S  S137  1  0.57386347  0.67488246  0.71196205  1
  S  S138  1  0.33091546  0.43498486  0.12269965  1
  S  S139  1  0.34173940  0.43829389  0.45852000  1
  S  S140  1  0.31659337  0.42894101  0.78773402  1
  S  S141  1  0.32882245  0.93168221  0.12370454  1
  S  S142  1  0.32989172  0.93076930  0.45612903  1
  S  S143  1  0.33264309  0.93288290  0.79161629  1
  S  S144  1  0.83041457  0.43269542  0.12621544  1
  S  S145  1  0.82952864  0.42640163  0.45735300  1
  S  S146  1  0.82952256  0.42854806  0.79301355  1
  S  S147  1  0.82568634  0.93368707  0.12746175  1
  S  S148  1  0.83342084  0.92979879  0.45896613  1
  S  S149  1  0.83047428  0.94293863  0.79001015  1
  S  S150  1  0.43562181  0.33287703  0.28885105  1
  S  S151  1  0.43472719  0.32620091  0.62225183  1
  S  S152  1  0.43183270  0.33095665  0.95983218  1
  S  S153  1  0.43227648  0.82758782  0.28766199  1
  S  S154  1  0.43431706  0.83173325  0.62448182  1
  S  S155  1  0.43359489  0.83252745  0.95908163  1
  S  S156  1  0.93717546  0.33155886  0.29488570  1
  S  S157  1  0.92574052  0.33030944  0.62268276  1
  S  S158  1  0.93382433  0.32721808  0.95702718  1
  S  S159  1  0.92885364  0.82958168  0.29404670  1
  S  S160  1  0.93230860  0.83535038  0.62513738  1
  S  S161  1  0.93617327  0.82948273  0.96409444  1
  S  S162  1  0.16837507  0.06353924  0.20802347  1
  S  S163  1  0.16826017  0.06387664  0.54506616  1
  S  S164  1  0.17064939  0.06468665  0.87910616  1
  S  S165  1  0.17255104  0.56896769  0.20688254  1
  S  S166  1  0.16529820  0.56386715  0.54035627  1
  S  S167  1  0.16327584  0.56112932  0.87590497  1
  S  S168  1  0.67158464  0.06818496  0.20497044  1
  S  S169  1  0.67380044  0.06967334  0.54445303  1
  S  S170  1  0.66026974  0.07083971  0.87477820  1
  S  S171  1  0.66632972  0.56545744  0.20820670  1
  S  S172  1  0.67313022  0.57043340  0.54380660  1
  S  S173  1  0.67119047  0.56612672  0.87816896  1
  O  O174  1  0.36945052  0.21835180  0.07720530  1
  O  O175  1  0.36537700  0.21738717  0.41310850  1
  O  O176  1  0.35657072  0.21390228  0.73781932  1
  O  O177  1  0.37008975  0.72158343  0.07556580  1
  O  O178  1  0.37878392  0.71736560  0.40174812  1
  O  O179  1  0.36853579  0.72572492  0.74724740  1
  O  O180  1  0.87072741  0.22685390  0.08177655  1
  O  O181  1  0.87741483  0.22200757  0.40693376  1
  O  O182  1  0.86740784  0.22334982  0.74734125  1
  O  O183  1  0.86467704  0.72321833  0.07781582  1
  O  O184  1  0.86419259  0.71981056  0.40882294  1
  O  O185  1  0.86365296  0.71573056  0.74558057  1
  O  O186  1  0.28160853  0.13060699  0.09351393  1
  O  O187  1  0.27979672  0.12849824  0.43117435  1
  O  O188  1  0.28024591  0.12315552  0.76370538  1
  O  O189  1  0.28212869  0.63277241  0.09037961  1
  O  O190  1  0.29018532  0.63232421  0.42116380  1
  O  O191  1  0.28440001  0.62525746  0.75111792  1
  O  O192  1  0.77904144  0.13667803  0.08874175  1
  O  O193  1  0.78654410  0.13643614  0.42524964  1
  O  O194  1  0.77911181  0.13448641  0.76081718  1
  O  O195  1  0.77736398  0.63224476  0.09129845  1
  O  O196  1  0.77404212  0.63164177  0.42019184  1
  O  O197  1  0.78127874  0.62310155  0.76318780  1
  O  O198  1  0.13639984  0.27133778  0.24268629  1
  O  O199  1  0.11881084  0.28732382  0.60394019  1
  O  O200  1  0.12970301  0.27901511  0.92889424  1
  O  O201  1  0.13452370  0.77765953  0.25912798  1
  O  O202  1  0.12980609  0.78962064  0.60347204  1
  O  O203  1  0.13240279  0.78256602  0.92743109  1
  O  O204  1  0.63258704  0.28213863  0.25402850  1
  O  O205  1  0.63393237  0.28324759  0.59338003  1
  O  O206  1  0.63255450  0.28173203  0.92677563  1
  O  O207  1  0.63268861  0.77459852  0.24828060  1
  O  O208  1  0.63168588  0.78180466  0.58944970  1
  O  O209  1  0.62353579  0.77980500  0.92555359  1
  O  O210  1  0.21919054  0.36795113  0.23263203  1
  O  O211  1  0.21048399  0.35656466  0.57063106  1
  O  O212  1  0.21972212  0.36390179  0.91292110  1
  O  O213  1  0.22131413  0.86805777  0.24376044  1
  O  O214  1  0.21493553  0.87333469  0.57634812  1
  O  O215  1  0.22480263  0.87052867  0.91788208  1
  O  O216  1  0.71891681  0.37323428  0.24052039  1
  O  O217  1  0.72065654  0.37145915  0.57585008  1
  O  O218  1  0.73065363  0.36781958  0.92259873  1
  O  O219  1  0.72010718  0.86838992  0.24043247  1
  O  O220  1  0.71720071  0.87119377  0.57330180  1
  O  O221  1  0.71297890  0.86184121  0.90345162  1
  O  O222  1  0.42062119  0.12887014  0.15067692  1
  O  O223  1  0.41847356  0.12425471  0.48212135  1
  O  O224  1  0.41859363  0.13463510  0.81866888  1
  O  O225  1  0.42044242  0.63214525  0.14945700  1
  O  O226  1  0.42898522  0.63176186  0.48021210  1
  O  O227  1  0.42136969  0.63421175  0.81629405  1
  O  O228  1  0.91658904  0.13889768  0.15740400  1
  O  O229  1  0.92539387  0.13481501  0.48340190  1
  O  O230  1  0.91646577  0.13301079  0.81997243  1
  O  O231  1  0.91564546  0.63371470  0.14969950  1
  O  O232  1  0.91217507  0.62973977  0.48217114  1
  O  O233  1  0.91958851  0.62943615  0.81994006  1
  O  O234  1  0.36629698  0.08052754  0.01474546  1
  O  O235  1  0.35808914  0.08028354  0.34631464  1
  O  O236  1  0.36737967  0.07604003  0.68427805  1
  O  O237  1  0.36890797  0.58310911  0.01370983  1
  O  O238  1  0.37632711  0.57926018  0.34495766  1
  O  O239  1  0.37736049  0.59174767  0.67898845  1
  O  O240  1  0.87317755  0.08785235  0.02170019  1
  O  O241  1  0.87117821  0.08288237  0.34871361  1
  O  O242  1  0.86574876  0.08644584  0.68325449  1
  O  O243  1  0.86263432  0.58576422  0.01301223  1
  O  O244  1  0.86217184  0.58174990  0.34613904  1
  O  O245  1  0.86760156  0.57825887  0.68408072  1
  O  O246  1  0.08076279  0.36761059  0.18025571  1
  O  O247  1  0.07351588  0.36333380  0.51495411  1
  O  O248  1  0.08210432  0.36179050  0.84702437  1
  O  O249  1  0.08298585  0.86572599  0.18622302  1
  O  O250  1  0.07699508  0.86620773  0.51712491  1
  O  O251  1  0.08673599  0.87015059  0.85043702  1
  O  O252  1  0.58021685  0.37356027  0.18379718  1
  O  O253  1  0.58278676  0.36843329  0.51513272  1
  O  O254  1  0.59596917  0.36887868  0.85010790  1
  O  O255  1  0.58250069  0.86526919  0.17750373  1
  O  O256  1  0.57858296  0.87184228  0.51644273  1
  O  O257  1  0.57484562  0.86746979  0.84788890  1
  O  O258  1  0.13717231  0.40811833  0.31563715  1
  O  O259  1  0.13119905  0.42695340  0.64867606  1
  O  O260  1  0.12791643  0.41791839  0.98254808  1
  O  O261  1  0.13713245  0.91543397  0.32324449  1
  O  O262  1  0.12691458  0.92820561  0.65111792  1
  O  O263  1  0.13092942  0.91998650  0.98596321  1
  O  O264  1  0.63273928  0.41970783  0.31904562  1
  O  O265  1  0.63419538  0.42116723  0.65186207  1
  O  O266  1  0.63518699  0.41981215  0.98716070  1
  O  O267  1  0.63139667  0.91214342  0.31484868  1
  O  O268  1  0.63177174  0.91872515  0.65226314  1
  O  O269  1  0.63048758  0.91879296  0.98224030  1
  O  O270  1  0.02851687  0.19622683  0.10248655  1
  O  O271  1  0.03267068  0.20664119  0.43602909  1
  O  O272  1  0.03019378  0.19705448  0.77678392  1
  O  O273  1  0.02861451  0.69828734  0.10440678  1
  O  O274  1  0.02053435  0.70205784  0.43009407  1
  O  O275  1  0.04667626  0.67005751  0.77719149  1
  O  O276  1  0.53072222  0.20059575  0.10370777  1
  O  O277  1  0.52408233  0.20864164  0.43787065  1
  O  O278  1  0.53089381  0.18902284  0.76683991  1
  O  O279  1  0.52851615  0.69941648  0.10149659  1
  O  O280  1  0.53961249  0.70345938  0.43783627  1
  O  O281  1  0.53521878  0.70470621  0.77148292  1
  O  O282  1  0.30193091  0.47202348  0.06193380  1
  O  O283  1  0.32331205  0.46049266  0.38891756  1
  O  O284  1  0.28858853  0.46954771  0.73040415  1
  O  O285  1  0.30025422  0.97115599  0.06463077  1
  O  O286  1  0.29926823  0.96772448  0.39585961  1
  O  O287  1  0.30076243  0.96686133  0.72949266  1
  O  O288  1  0.80377770  0.47436120  0.06861851  1
  O  O289  1  0.80182026  0.46590057  0.39702391  1
  O  O290  1  0.79999294  0.46340579  0.73139279  1
  O  O291  1  0.79967392  0.97230389  0.06903530  1
  O  O292  1  0.81086319  0.96410033  0.39817346  1
  O  O293  1  0.79244052  0.97407177  0.72420819  1
  O  O294  1  0.47360028  0.29864537  0.22855088  1
  O  O295  1  0.47336947  0.29048991  0.56107367  1
  O  O296  1  0.46913870  0.30428677  0.90123924  1
  O  O297  1  0.47193384  0.79865428  0.22810745  1
  O  O298  1  0.46879503  0.80034930  0.56173305  1
  O  O299  1  0.46717507  0.80344375  0.89675897  1
  O  O300  1  0.97894778  0.30474886  0.23741409  1
  O  O301  1  0.95660366  0.30958852  0.55888360  1
  O  O302  1  0.97138548  0.29738497  0.89683639  1
  O  O303  1  0.96843543  0.80186476  0.23423905  1
  O  O304  1  0.95774776  0.80499798  0.55801689  1
  O  O305  1  0.97377909  0.79769824  0.90559991  1
  O  O306  1  0.19472924  0.02833793  0.27024986  1
  O  O307  1  0.20783236  0.03130522  0.60806597  1
  O  O308  1  0.20269048  0.03106145  0.94192182  1
  O  O309  1  0.20077740  0.53034545  0.26480140  1
  O  O310  1  0.21047468  0.52671856  0.59968162  1
  O  O311  1  0.19886465  0.52506177  0.93834611  1
  O  O312  1  0.69819749  0.03044920  0.26288637  1
  O  O313  1  0.70300423  0.03557752  0.60932381  1
  O  O314  1  0.68395096  0.03567021  0.93527913  1
  O  O315  1  0.69418252  0.52984079  0.26917194  1
  O  O316  1  0.70169121  0.53446453  0.60531668  1
  O  O317  1  0.70191186  0.52808610  0.93825224  1
  O  O318  1  0.08483583  0.08557836  0.03697074  1
  O  O319  1  0.09222264  0.09724383  0.37972370  1
  O  O320  1  0.08197280  0.08031322  0.71396843  1
  O  O321  1  0.08345833  0.58853179  0.03558637  1
  O  O322  1  0.07167005  0.58919724  0.36780565  1
  O  O323  1  0.10994635  0.58418326  0.70042789  1
  O  O324  1  0.58376458  0.09010777  0.03338042  1
  O  O325  1  0.58017262  0.09475422  0.37980439  1
  O  O326  1  0.58020679  0.07919999  0.69349996  1
  O  O327  1  0.58372880  0.58814528  0.03858972  1
  O  O328  1  0.58913035  0.58874426  0.37064324  1
  O  O329  1  0.58986634  0.59292747  0.70741017  1
  O  O330  1  0.41417914  0.41993432  0.13048573  1
  O  O331  1  0.42446276  0.41326406  0.47104342  1
  O  O332  1  0.39169072  0.40208923  0.78731504  1
  O  O333  1  0.40994738  0.91339785  0.12647155  1
  O  O334  1  0.41102146  0.91169661  0.45900960  1
  O  O335  1  0.41604675  0.91850040  0.79621045  1
  O  O336  1  0.91133113  0.41353918  0.13249848  1
  O  O337  1  0.90682769  0.39966931  0.45592444  1
  O  O338  1  0.91064976  0.40791231  0.79879718  1
  O  O339  1  0.90742554  0.91492964  0.13272225  1
  O  O340  1  0.91481099  0.90660859  0.46930055  1
  O  O341  1  0.91146968  0.93098462  0.79149072  1
  O  O342  1  0.42045756  0.41418082  0.28849210  1
  O  O343  1  0.40767321  0.39956748  0.61380042  1
  O  O344  1  0.41068812  0.41220246  0.96669818  1
  O  O345  1  0.40986359  0.90596288  0.28956950  1
  O  O346  1  0.41551898  0.91336636  0.62747072  1
  O  O347  1  0.41866682  0.91664164  0.96684607  1
  O  O348  1  0.92371288  0.41532364  0.30397701  1
  O  O349  1  0.91145855  0.41462082  0.64177737  1
  O  O350  1  0.91586236  0.40846554  0.95985653  1
  O  O351  1  0.90910660  0.90973636  0.29997153  1
  O  O352  1  0.91110702  0.91797205  0.63097847  1
  O  O353  1  0.92165321  0.91059795  0.96829244  1
  O  O354  1  0.08703157  0.08397957  0.19868743  1
  O  O355  1  0.08582842  0.06789742  0.54051001  1
  O  O356  1  0.08804006  0.08003230  0.87349376  1
  O  O357  1  0.09155249  0.58763146  0.20351173  1
  O  O358  1  0.08619665  0.57089831  0.54511609  1
  O  O359  1  0.08393231  0.57984920  0.88005008  1
  O  O360  1  0.59067913  0.09130385  0.20078117  1
  O  O361  1  0.59436850  0.09414276  0.54534709  1
  O  O362  1  0.57729613  0.08998742  0.86486721  1
  O  O363  1  0.58287534  0.58195735  0.20043336  1
  O  O364  1  0.59123036  0.58857181  0.53644759  1
  O  O365  1  0.58946039  0.58284504  0.87416950  1
  O  O366  1  0.13908415  0.21991852  0.06142340  1
  O  O367  1  0.14167255  0.22965051  0.39169251  1
  O  O368  1  0.13260579  0.21066074  0.72388628  1
  O  O369  1  0.13724100  0.72289081  0.06152041  1
  O  O370  1  0.12978561  0.72109073  0.38656647  1
  O  O371  1  0.14725606  0.72483290  0.73973225  1
  O  O372  1  0.63893208  0.22495287  0.06099426  1
  O  O373  1  0.63047956  0.22690046  0.39061022  1
  O  O374  1  0.63674554  0.21424655  0.72112772  1
  O  O375  1  0.63721976  0.72071291  0.05678778  1
  O  O376  1  0.64190863  0.72195559  0.38592940  1
  O  O377  1  0.64576064  0.72645170  0.72934301  1
  O  O378  1  0.28034699  0.36231699  0.10411775  1
  O  O379  1  0.28625688  0.37318291  0.44854918  1
  O  O380  1  0.25814095  0.36209892  0.77259723  1
  O  O381  1  0.27663076  0.85967190  0.10486063  1
  O  O382  1  0.27813111  0.86080622  0.44210185  1
  O  O383  1  0.28357011  0.86235126  0.77958977  1
  O  O384  1  0.77529658  0.36242370  0.10588836  1
  O  O385  1  0.77152639  0.36137730  0.44280353  1
  O  O386  1  0.77533305  0.35908130  0.77877983  1
  O  O387  1  0.77326511  0.86042627  0.10678973  1
  O  O388  1  0.77731209  0.86105909  0.44301976  1
  O  O389  1  0.78249415  0.86732105  0.77209538  1
  O  O390  1  0.36443161  0.28210218  0.27292335  1
  O  O391  1  0.36682866  0.26853009  0.60632228  1
  O  O392  1  0.36115431  0.27722148  0.94407980  1
  O  O393  1  0.36373070  0.77132384  0.26982251  1
  O  O394  1  0.36574340  0.78069787  0.61394892  1
  O  O395  1  0.36318641  0.78251296  0.94653483  1
  O  O396  1  0.86345009  0.28149419  0.27136457  1
  O  O397  1  0.85331194  0.27883348  0.60467192  1
  O  O398  1  0.86258700  0.27480118  0.94035253  1
  O  O399  1  0.85819306  0.77368705  0.27309892  1
  O  O400  1  0.86151042  0.78365344  0.61351933  1
  O  O401  1  0.86259722  0.77852955  0.94624935  1
  O  O402  1  0.22366115  0.13129767  0.22259708  1
  O  O403  1  0.21241767  0.13901303  0.55928459  1
  O  O404  1  0.22031912  0.13711484  0.89400176  1
  O  O405  1  0.22518660  0.64068166  0.22404329  1
  O  O406  1  0.20944124  0.64117711  0.56007848  1
  O  O407  1  0.21550895  0.63142617  0.89105276  1
  O  O408  1  0.72547107  0.13633168  0.21753144  1
  O  O409  1  0.72782651  0.13972850  0.56109706  1
  O  O410  1  0.71396287  0.14132875  0.89103210  1
  O  O411  1  0.71752947  0.63680246  0.22354005  1
  O  O412  1  0.72578738  0.64064893  0.55910078  1
  O  O413  1  0.72238715  0.63787299  0.89515817  1
  O  O414  1  0.49072351  0.33562245  0.03464689  1
  O  O415  1  0.49350125  0.33859017  0.36285784  1
  O  O416  1  0.49426252  0.33766565  0.69560769  1
  O  O417  1  0.49495450  0.83584441  0.03164632  1
  O  O418  1  0.49176084  0.83096576  0.36056479  1
  O  O419  1  0.49751984  0.83890012  0.69695867  1
  O  O420  1  0.99199325  0.33000429  0.03008111  1
  O  O421  1  0.99135637  0.32746338  0.36770702  1
  O  O422  1  0.98616926  0.32195359  0.69049060  1
  O  O423  1  0.99148748  0.83060738  0.03940375  1
  O  O424  1  0.98654048  0.82873985  0.36632345  1
  O  O425  1  0.99566665  0.84122808  0.69389593  1
  O  O426  1  0.16693013  0.00141715  0.13657379  1
  O  O427  1  0.17187623  0.00596143  0.47293741  1
  O  O428  1  0.16960947  0.00439693  0.80778284  1
  O  O429  1  0.16926396  0.51167367  0.13214145  1
  O  O430  1  0.16580604  0.51125195  0.46755246  1
  O  O431  1  0.15432648  0.50151061  0.80280217  1
  O  O432  1  0.66156855  0.00860634  0.12856419  1
  O  O433  1  0.66824520  0.00889064  0.47532580  1
  O  O434  1  0.65877761  0.01133578  0.80201669  1
  O  O435  1  0.66430030  0.50645940  0.13524906  1
  O  O436  1  0.67126312  0.50905993  0.47204819  1
  O  O437  1  0.66823018  0.50711567  0.80521328  1
  O  O438  1  0.01333728  0.16765254  0.30283299  1
  O  O439  1  -0.00079924  0.15129317  0.64116029  1
  O  O440  1  0.00900316  0.16671175  0.97040307  1
  O  O441  1  0.00105669  0.66769085  0.29603899  1
  O  O442  1  0.01819183  0.66679193  0.64928952  1
  O  O443  1  0.00683894  0.67047140  0.97139372  1
  O  O444  1  0.50275728  0.16929937  0.30353797  1
  O  O445  1  0.50481597  0.16372304  0.63330120  1
  O  O446  1  0.50805318  0.17422248  0.97051859  1
  O  O447  1  0.51003823  0.66558682  0.30227295  1
  O  O448  1  0.51539069  0.67227608  0.63898742  1
  O  O449  1  0.50664348  0.66679909  0.96844062  1
  O  O450  1  0.33021289  0.49304825  0.19468282  1
  O  O451  1  0.34844621  0.50763360  0.52297177  1
  O  O452  1  0.32379851  0.48909645  0.86299616  1
  O  O453  1  0.33078410  0.98909805  0.19660864  1
  O  O454  1  0.33643805  0.99121919  0.52983858  1
  O  O455  1  0.33728120  0.99407269  0.86474629  1
  O  O456  1  0.83058213  0.48959556  0.19953346  1
  O  O457  1  0.83877257  0.48835388  0.53050386  1
  O  O458  1  0.83446394  0.48958756  0.86597921  1
  O  O459  1  0.82666446  0.98906576  0.20095066  1
  O  O460  1  0.83583409  0.99131800  0.53084196  1
  O  O461  1  0.82791966  0.99960818  0.85956300  1
