# generated using pymatgen
data_Na31Fe20(SO4)36
_symmetry_space_group_name_H-M   'P 1'
_cell_length_a   18.07488239
_cell_length_b   18.06826210
_cell_length_c   19.70250447
_cell_angle_alpha   107.56080234
_cell_angle_beta   107.59488137
_cell_angle_gamma   90.73438965
_symmetry_Int_Tables_number   1
_chemical_formula_structural   Na31Fe20(SO4)36
_chemical_formula_sum   'Na62 Fe40 S72 O288'
_cell_volume   5809.18992440
_cell_formula_units_Z   2
loop_
 _symmetry_equiv_pos_site_id
 _symmetry_equiv_pos_as_xyz
  1  'x, y, z'
loop_
 _atom_site_type_symbol
 _atom_site_label
 _atom_site_symmetry_multiplicity
 _atom_site_fract_x
 _atom_site_fract_y
 _atom_site_fract_z
 _atom_site_occupancy
  Na  Na0  1  0.14002387  0.34647396  0.07174053  1
  Na  Na1  1  0.13962797  0.36661093  0.41579447  1
  Na  Na2  1  0.14073162  0.37755852  0.75366223  1
  Na  Na3  1  0.13596008  0.86665178  0.08286019  1
  Na  Na4  1  0.13063185  0.86690287  0.41325765  1
  Na  Na5  1  0.13081155  0.86392464  0.74733473  1
  Na  Na6  1  0.63067661  0.37124272  0.08504555  1
  Na  Na7  1  0.66618111  0.37417680  0.44346336  1
  Na  Na8  1  0.62971113  0.36588229  0.74428219  1
  Na  Na9  1  0.63204089  0.86085888  0.08150587  1
  Na  Na10  1  0.63137449  0.85681129  0.41091871  1
  Na  Na11  1  0.62578231  0.86181601  0.74805743  1
  Na  Na12  1  0.36487920  0.14323269  0.25682439  1
  Na  Na13  1  0.36619209  0.13198954  0.58564104  1
  Na  Na14  1  0.36106307  0.13223472  0.91733208  1
  Na  Na15  1  0.36856938  0.63581208  0.24697386  1
  Na  Na16  1  0.37803966  0.63240618  0.59464070  1
  Na  Na17  1  0.34310410  0.62234421  0.89507781  1
  Na  Na18  1  0.86853705  0.13190311  0.24813340  1
  Na  Na19  1  0.86514885  0.14524431  0.57988256  1
  Na  Na20  1  0.86847012  0.13819474  0.92261777  1
  Na  Na21  1  0.86878263  0.63434666  0.25152254  1
  Na  Na22  1  0.86412294  0.62024249  0.58068363  1
  Na  Na23  1  0.85986042  0.63705945  0.91262810  1
  Na  Na24  1  0.99884198  0.03947669  0.41305476  1
  Na  Na25  1  0.98816329  0.01075626  0.09882767  1
  Na  Na26  1  0.97697049  0.50126002  0.42902249  1
  Na  Na27  1  0.52892590  0.49021032  0.41499328  1
  Na  Na28  1  0.48872997  0.00352629  0.44241215  1
  Na  Na29  1  0.99177289  0.00964900  0.74649522  1
  Na  Na30  1  0.47445678  0.50797873  0.75709070  1
  Na  Na31  1  0.49229734  0.00819992  0.07729682  1
  Na  Na32  1  1.01384453  0.47400502  0.08456149  1
  Na  Na33  1  0.00220047  0.44735257  0.24163144  1
  Na  Na34  1  0.01315678  0.49687294  0.89348044  1
  Na  Na35  1  0.51307737  0.97113549  0.86450324  1
  Na  Na36  1  0.02313705  0.48280167  0.62277593  1
  Na  Na37  1  0.00647876  0.98736671  0.91565631  1
  Na  Na38  1  0.51038583  0.98452646  0.25635500  1
  Na  Na39  1  0.50820852  0.52212933  0.23307991  1
  Na  Na40  1  -0.00915162  1.01934304  0.57125522  1
  Na  Na41  1  0.45384261  0.51965564  0.97476502  1
  Na  Na42  1  0.25007280  0.75230014  0.33228235  1
  Na  Na43  1  0.75437630  0.75639270  -0.00973781  1
  Na  Na44  1  0.73967917  0.74000794  0.67942356  1
  Na  Na45  1  0.76331769  0.25906377  -0.00283498  1
  Na  Na46  1  0.76162445  0.27506388  0.64361439  1
  Na  Na47  1  0.74730176  0.24360925  0.34195907  1
  Na  Na48  1  0.24418619  0.24612817  0.66884174  1
  Na  Na49  1  0.71831585  0.71695519  0.33360703  1
  Na  Na50  1  0.25331926  0.74647348  0.00039804  1
  Na  Na51  1  0.26243146  0.75255779  0.66585251  1
  Na  Na52  1  0.25153816  0.25813395  0.84357568  1
  Na  Na53  1  0.73721798  0.73066702  0.50587689  1
  Na  Na54  1  0.25238056  0.74919382  0.49976898  1
  Na  Na55  1  0.25091808  0.25799325  0.49442833  1
  Na  Na56  1  0.73879223  0.74116645  0.17296995  1
  Na  Na57  1  0.24933947  0.25010910  0.17004972  1
  Na  Na58  1  0.75517489  0.25641720  0.16154111  1
  Na  Na59  1  0.75859278  0.25800675  0.82445023  1
  Na  Na60  1  0.25826954  0.75269642  0.16503813  1
  Na  Na61  1  0.24830325  0.74376497  0.82734876  1
  Fe  Fe62  1  0.96570619  0.80933211  0.11833061  1
  Fe  Fe63  1  0.96526028  0.80693909  0.44884755  1
  Fe  Fe64  1  0.46654041  0.30689884  0.79037963  1
  Fe  Fe65  1  0.97252349  0.29985015  0.46427184  1
  Fe  Fe66  1  0.96457244  0.30557752  0.77979161  1
  Fe  Fe67  1  0.95919905  0.80699393  0.78091812  1
  Fe  Fe68  1  0.46387052  0.80892468  0.45690797  1
  Fe  Fe69  1  0.46617370  0.31111686  0.12189349  1
  Fe  Fe70  1  0.46900976  0.80010448  0.12452520  1
  Fe  Fe71  1  0.46203775  0.31453234  0.45666151  1
  Fe  Fe72  1  0.19228117  0.53252044  0.37696409  1
  Fe  Fe73  1  0.18871979  0.03630301  0.71383617  1
  Fe  Fe74  1  0.69348381  0.03795144  0.38454407  1
  Fe  Fe75  1  0.19426925  0.03744616  0.04970362  1
  Fe  Fe76  1  0.69875755  0.53294253  0.70881220  1
  Fe  Fe77  1  0.69232303  0.03212166  0.04852948  1
  Fe  Fe78  1  0.19057573  0.03970290  0.38144086  1
  Fe  Fe79  1  0.20193329  0.53045562  0.04330167  1
  Fe  Fe80  1  0.68709151  0.53575215  0.04130423  1
  Fe  Fe81  1  0.68817533  0.03590547  0.71187382  1
  Fe  Fe82  1  0.53401668  0.19749274  0.55157796  1
  Fe  Fe83  1  0.53010088  0.69984025  0.87469285  1
  Fe  Fe84  1  0.03360332  0.19414266  0.88274522  1
  Fe  Fe85  1  0.53282694  0.69214874  0.54920682  1
  Fe  Fe86  1  0.03346139  0.19944517  0.21070834  1
  Fe  Fe87  1  0.03277296  0.69110553  0.87488858  1
  Fe  Fe88  1  0.03406237  0.69326439  0.54734680  1
  Fe  Fe89  1  0.53664287  0.19397738  0.21798517  1
  Fe  Fe90  1  0.53564970  0.18829322  0.88031126  1
  Fe  Fe91  1  0.03434670  0.69296807  0.21025773  1
  Fe  Fe92  1  0.30493846  0.96448178  0.95080502  1
  Fe  Fe93  1  0.31475158  0.46570754  0.29020075  1
  Fe  Fe94  1  0.29825506  0.47103359  0.62140475  1
  Fe  Fe95  1  0.30992489  0.96283674  0.62359910  1
  Fe  Fe96  1  0.80774570  0.96529080  0.28496728  1
  Fe  Fe97  1  0.80789027  0.46561195  0.95453861  1
  Fe  Fe98  1  0.80455390  0.46605972  0.28975255  1
  Fe  Fe99  1  0.80372838  0.96446081  0.61479511  1
  Fe  Fe100  1  0.80641526  0.96288266  0.94945858  1
  Fe  Fe101  1  0.30372815  0.96960490  0.28708226  1
  S  S102  1  0.36328709  0.13995388  0.08595912  1
  S  S103  1  0.36155901  0.14152381  0.41878963  1
  S  S104  1  0.35898273  0.13864056  0.75154000  1
  S  S105  1  0.36034097  0.64158411  0.08550366  1
  S  S106  1  0.35643064  0.64175693  0.41723408  1
  S  S107  1  0.35926281  0.63865755  0.75069752  1
  S  S108  1  0.85714684  0.13679907  0.08380950  1
  S  S109  1  0.86036020  0.13688633  0.41689226  1
  S  S110  1  0.85912958  0.13781688  0.74620847  1
  S  S111  1  0.85876517  0.64257757  0.08055350  1
  S  S112  1  0.86143110  0.64214524  0.41340999  1
  S  S113  1  0.85960369  0.64323002  0.75207357  1
  S  S114  1  0.14389894  0.36215288  0.24439982  1
  S  S115  1  0.14371091  0.35589238  0.57788796  1
  S  S116  1  0.13450692  0.36291644  0.91809368  1
  S  S117  1  0.13960765  0.86234079  0.24872105  1
  S  S118  1  0.13767883  0.85879040  0.58298335  1
  S  S119  1  0.13673748  0.86211675  0.91583699  1
  S  S120  1  0.64219378  0.35709971  0.25383501  1
  S  S121  1  0.63654381  0.36303646  0.58457444  1
  S  S122  1  0.64374995  0.35512752  0.91628331  1
  S  S123  1  0.64224082  0.86192921  0.25277392  1
  S  S124  1  0.64146187  0.86021985  0.58272013  1
  S  S125  1  0.64268756  0.86119842  0.91843201  1
  S  S126  1  0.06460901  0.16057325  0.04075358  1
  S  S127  1  0.06713540  0.17434787  0.37285219  1
  S  S128  1  0.06409429  0.16568597  0.70982971  1
  S  S129  1  0.07096634  0.67130706  0.04335916  1
  S  S130  1  0.06920919  0.66914437  0.37157536  1
  S  S131  1  0.06429343  0.67549245  0.70999635  1
  S  S132  1  0.56778989  0.16532598  0.04309246  1
  S  S133  1  0.56798412  0.17035675  0.37722081  1
  S  S134  1  0.56770833  0.17145694  0.71225062  1
  S  S135  1  0.56782798  0.67392433  0.03833439  1
  S  S136  1  0.55457249  0.66890046  0.37767878  1
  S  S137  1  0.57597215  0.66914956  0.71108142  1
  S  S138  1  0.33131780  0.43274492  0.12900319  1
  S  S139  1  0.32972620  0.43449428  0.45736323  1
  S  S140  1  0.33584623  0.42819227  0.79269806  1
  S  S141  1  0.33073638  0.93475301  0.12544556  1
  S  S142  1  0.32468475  0.93324407  0.45747847  1
  S  S143  1  0.32140493  0.93173911  0.78706412  1
  S  S144  1  0.83105255  0.43736567  0.12346995  1
  S  S145  1  0.84456982  0.42881889  0.46054945  1
  S  S146  1  0.82631094  0.43232881  0.79024125  1
  S  S147  1  0.83011460  0.93151788  0.12314846  1
  S  S148  1  0.82846408  0.93001658  0.45345173  1
  S  S149  1  0.83089020  0.93635391  0.78951671  1
  S  S150  1  0.43699929  0.33105259  0.29256914  1
  S  S151  1  0.42654775  0.32828056  0.62414566  1
  S  S152  1  0.43592576  0.32076860  0.95638157  1
  S  S153  1  0.43288845  0.84336938  0.29814169  1
  S  S154  1  0.43160421  0.82663040  0.62339197  1
  S  S155  1  0.42909776  0.82924560  0.96127917  1
  S  S156  1  0.93003959  0.32497515  0.29280182  1
  S  S157  1  0.94146855  0.32948187  0.62620712  1
  S  S158  1  0.93318101  0.32773457  0.95441621  1
  S  S159  1  0.93297484  0.83286822  0.28850107  1
  S  S160  1  0.93096112  0.83396654  0.62162842  1
  S  S161  1  0.93521354  0.83507272  0.96001540  1
  S  S162  1  0.17178260  0.07100348  0.20864171  1
  S  S163  1  0.16923732  0.06050374  0.54275786  1
  S  S164  1  0.16597594  0.06568746  0.87447272  1
  S  S165  1  0.17222384  0.57086925  0.20662124  1
  S  S166  1  0.16723215  0.57090036  0.53761227  1
  S  S167  1  0.16277676  0.56929765  0.87455720  1
  S  S168  1  0.66694497  0.06460777  0.20971166  1
  S  S169  1  0.67058166  0.07057060  0.54479222  1
  S  S170  1  0.67323935  0.06724471  0.87673395  1
  S  S171  1  0.67606664  0.56518043  0.20707529  1
  S  S172  1  0.67166112  0.56899028  0.54537926  1
  S  S173  1  0.67131243  0.56770280  0.87393424  1
  O  O174  1  0.37439918  0.21845165  0.08000340  1
  O  O175  1  0.37334005  0.21986139  0.41208861  1
  O  O176  1  0.36958233  0.21735642  0.74333962  1
  O  O177  1  0.36681631  0.72842996  0.09408329  1
  O  O178  1  0.36383221  0.72191389  0.41025966  1
  O  O179  1  0.36904893  0.71380052  0.73881185  1
  O  O180  1  0.86217142  0.21409103  0.07595316  1
  O  O181  1  0.87439852  0.21832434  0.41405850  1
  O  O182  1  0.86757334  0.21580082  0.73658080  1
  O  O183  1  0.87107236  0.72073744  0.07105073  1
  O  O184  1  0.87613318  0.71840848  0.40054809  1
  O  O185  1  0.86344267  0.72595855  0.74905277  1
  O  O186  1  0.28458009  0.13031997  0.09463622  1
  O  O187  1  0.28398454  0.13325504  0.42981253  1
  O  O188  1  0.27942033  0.13194410  0.75991406  1
  O  O189  1  0.27794664  0.62924602  0.09000444  1
  O  O190  1  0.27505246  0.63089608  0.41987380  1
  O  O191  1  0.28515424  0.62711544  0.76416465  1
  O  O192  1  0.78013108  0.12352176  0.09636100  1
  O  O193  1  0.77952538  0.13075697  0.42090831  1
  O  O194  1  0.78121872  0.12962029  0.75642216  1
  O  O195  1  0.77875282  0.63511493  0.08597306  1
  O  O196  1  0.78306645  0.63759791  0.41936767  1
  O  O197  1  0.77929174  0.62859720  0.75813522  1
  O  O198  1  0.13172011  0.28119785  0.24540870  1
  O  O199  1  0.14627339  0.27659363  0.58168896  1
  O  O200  1  0.12039890  0.28599990  0.92937474  1
  O  O201  1  0.13114814  0.78338158  0.25758075  1
  O  O202  1  0.12756589  0.78112052  0.59394244  1
  O  O203  1  0.12747234  0.78400054  0.92507393  1
  O  O204  1  0.63471303  0.27317540  0.25298750  1
  O  O205  1  0.62208309  0.28756206  0.59962785  1
  O  O206  1  0.63597876  0.27597068  0.92474913  1
  O  O207  1  0.63638256  0.78593672  0.26330036  1
  O  O208  1  0.63440238  0.78024995  0.58883577  1
  O  O209  1  0.63028839  0.78302186  0.92689935  1
  O  O210  1  0.22681794  0.37345009  0.24622835  1
  O  O211  1  0.21686999  0.37721504  0.56225098  1
  O  O212  1  0.20836940  0.36857849  0.90427954  1
  O  O213  1  0.21903336  0.87085591  0.24019650  1
  O  O214  1  0.21789996  0.86518874  0.57728187  1
  O  O215  1  0.21473581  0.86960159  0.90533472  1
  O  O216  1  0.72241457  0.36793996  0.24606958  1
  O  O217  1  0.71198296  0.36501361  0.57274430  1
  O  O218  1  0.72508987  0.36559996  0.91239240  1
  O  O219  1  0.71910009  0.87388638  0.24005530  1
  O  O220  1  0.71907774  0.86952047  0.57048926  1
  O  O221  1  0.72463373  0.86871835  0.91652304  1
  O  O222  1  0.42281473  0.12853836  0.15287177  1
  O  O223  1  0.42239068  0.12867931  0.48440175  1
  O  O224  1  0.41744752  0.12924112  0.81905724  1
  O  O225  1  0.41653434  0.62407131  0.14752823  1
  O  O226  1  0.41216975  0.63437417  0.48653471  1
  O  O227  1  0.42372607  0.62950808  0.81676491  1
  O  O228  1  0.91946997  0.12725554  0.14974560  1
  O  O229  1  0.91694162  0.11992514  0.47972245  1
  O  O230  1  0.91959052  0.12871065  0.81348451  1
  O  O231  1  0.91645535  0.63699587  0.15060263  1
  O  O232  1  0.92050259  0.63596010  0.48325652  1
  O  O233  1  0.91626727  0.64038000  0.82433148  1
  O  O234  1  0.36961665  0.07960384  0.01719421  1
  O  O235  1  0.36605741  0.08222742  0.34906319  1
  O  O236  1  0.36462910  0.07967778  0.68265698  1
  O  O237  1  0.36457051  0.59729128  0.01143156  1
  O  O238  1  0.36693745  0.58447541  0.34962072  1
  O  O239  1  0.36782719  0.57521064  0.68331517  1
  O  O240  1  0.86371652  0.07638929  0.01474408  1
  O  O241  1  0.86599193  0.08151527  0.34457442  1
  O  O242  1  0.86683283  0.07755606  0.67820252  1
  O  O243  1  0.86805499  0.58188713  0.01419239  1
  O  O244  1  0.87177298  0.57909719  0.34817971  1
  O  O245  1  0.87281407  0.58947680  0.68721955  1
  O  O246  1  0.09053576  0.37694220  0.17793656  1
  O  O247  1  0.07911244  0.35930990  0.50791913  1
  O  O248  1  0.07012569  0.37511995  0.85464288  1
  O  O249  1  0.08134631  0.86893313  0.18000065  1
  O  O250  1  0.08097724  0.86339638  0.51188678  1
  O  O251  1  0.07593501  0.87264343  0.84980892  1
  O  O252  1  0.58422738  0.36587045  0.18461303  1
  O  O253  1  0.57419125  0.37095072  0.51842581  1
  O  O254  1  0.58771846  0.36061077  0.84594730  1
  O  O255  1  0.58050181  0.86971329  0.18523322  1
  O  O256  1  0.58053492  0.87072386  0.51731607  1
  O  O257  1  0.58755816  0.87114980  0.85129028  1
  O  O258  1  0.13128256  0.41780169  0.31362096  1
  O  O259  1  0.13287613  0.41258202  0.64384950  1
  O  O260  1  0.13153839  0.42404956  0.98911325  1
  O  O261  1  0.13301595  0.92161896  0.31663050  1
  O  O262  1  0.12607259  0.91961643  0.64773599  1
  O  O263  1  0.13158976  0.92230480  0.98494149  1
  O  O264  1  0.63382602  0.41013696  0.32223079  1
  O  O265  1  0.63335154  0.42588097  0.65410142  1
  O  O266  1  0.63369449  0.41423852  0.98274405  1
  O  O267  1  0.63394128  0.92426580  0.32002242  1
  O  O268  1  0.63887943  0.91737612  0.65379629  1
  O  O269  1  0.63358819  0.92025012  0.98742779  1
  O  O270  1  0.02699545  0.18517104  0.09903121  1
  O  O271  1  0.02588531  0.19921276  0.42994147  1
  O  O272  1  0.03441425  0.20098395  0.77569221  1
  O  O273  1  0.03383411  0.70185343  0.10451808  1
  O  O274  1  0.03547066  0.69884213  0.43431267  1
  O  O275  1  0.02617950  0.71086500  0.77055402  1
  O  O276  1  0.53187098  0.19659622  0.10388512  1
  O  O277  1  0.53404914  0.20117418  0.43953067  1
  O  O278  1  0.52906785  0.20019492  0.77214643  1
  O  O279  1  0.53122746  0.70189080  0.09766569  1
  O  O280  1  0.52353613  0.70573594  0.44369145  1
  O  O281  1  0.53959426  0.68896936  0.77056200  1
  O  O282  1  0.29934962  0.46784119  0.06864877  1
  O  O283  1  0.29859124  0.47233803  0.39625963  1
  O  O284  1  0.30908243  0.45445929  0.72595715  1
  O  O285  1  0.29953004  0.96894248  0.06270740  1
  O  O286  1  0.29537179  0.97081139  0.39686194  1
  O  O287  1  0.28650166  0.97058140  0.72755127  1
  O  O288  1  0.79501604  0.47621388  0.06459887  1
  O  O289  1  0.83680683  0.46166996  0.39744438  1
  O  O290  1  0.79491695  0.47089546  0.73236942  1
  O  O291  1  0.79872821  0.96698228  0.06180335  1
  O  O292  1  0.79885750  0.96769915  0.39332404  1
  O  O293  1  0.80078328  0.97244239  0.72854246  1
  O  O294  1  0.47420383  0.29962242  0.23191965  1
  O  O295  1  0.46146908  0.29786620  0.56155442  1
  O  O296  1  0.47787111  0.29059719  0.89796391  1
  O  O297  1  0.46862958  0.82211004  0.23832303  1
  O  O298  1  0.46801695  0.79558152  0.56039193  1
  O  O299  1  0.46540668  0.80165533  0.90217931  1
  O  O300  1  0.97281570  0.30082988  0.23769403  1
  O  O301  1  0.97644760  0.29501612  0.56407209  1
  O  O302  1  0.95740055  0.29378497  0.88514431  1
  O  O303  1  0.97072859  0.80449961  0.22797612  1
  O  O304  1  0.96661475  0.80272711  0.56044280  1
  O  O305  1  0.96893861  0.80537171  0.89769752  1
  O  O306  1  0.20079561  0.03600013  0.27156172  1
  O  O307  1  0.20399738  0.02314236  0.60314034  1
  O  O308  1  0.19994492  0.03295254  0.93812120  1
  O  O309  1  0.19978994  0.53461580  0.26742878  1
  O  O310  1  0.19854977  0.53892442  0.59925455  1
  O  O311  1  0.18441131  0.54171201  0.94171871  1
  O  O312  1  0.69848885  0.03118374  0.27234411  1
  O  O313  1  0.69929773  0.03202823  0.60471745  1
  O  O314  1  0.70212770  0.02966531  0.93717269  1
  O  O315  1  0.71028137  0.52441606  0.26339968  1
  O  O316  1  0.69639644  0.53717913  0.60976957  1
  O  O317  1  0.69749882  0.52537569  0.93177082  1
  O  O318  1  0.08100925  0.07623751  0.03072407  1
  O  O319  1  0.08815875  0.09368924  0.37169498  1
  O  O320  1  0.08271972  0.08346703  0.71049334  1
  O  O321  1  0.08963392  0.59030350  0.03902938  1
  O  O322  1  0.08412212  0.58630600  0.36203010  1
  O  O323  1  0.08069984  0.59721565  0.70902068  1
  O  O324  1  0.58480097  0.08340532  0.04073381  1
  O  O325  1  0.58404903  0.08727181  0.37181707  1
  O  O326  1  0.58917548  0.09223820  0.71009755  1
  O  O327  1  0.58477350  0.59111045  0.03137178  1
  O  O328  1  0.56456774  0.58667024  0.37166785  1
  O  O329  1  0.60303372  0.58946584  0.70374485  1
  O  O330  1  0.41336366  0.41532337  0.13281692  1
  O  O331  1  0.41113925  0.41885474  0.45926521  1
  O  O332  1  0.41955101  0.40849242  0.80054937  1
  O  O333  1  0.41292287  0.91887200  0.13206854  1
  O  O334  1  0.40474307  0.91267728  0.45962531  1
  O  O335  1  0.39861830  0.91323852  0.78504500  1
  O  O336  1  0.91144229  0.42520462  0.12363250  1
  O  O337  1  0.92801872  0.40417805  0.47926949  1
  O  O338  1  0.90593882  0.41100844  0.79133891  1
  O  O339  1  0.91208504  0.91595055  0.12682416  1
  O  O340  1  0.91099711  0.91373128  0.45944740  1
  O  O341  1  0.91368007  0.91943703  0.79308434  1
  O  O342  1  0.42198006  0.41354934  0.29767957  1
  O  O343  1  0.40737054  0.40869798  0.62914618  1
  O  O344  1  0.41480848  0.39789425  0.95737944  1
  O  O345  1  0.41508163  0.92767474  0.31021531  1
  O  O346  1  0.40322408  0.90244210  0.61766902  1
  O  O347  1  0.40964481  0.91181809  0.96709713  1
  O  O348  1  0.91130311  0.40697232  0.29521150  1
  O  O349  1  0.92778752  0.40991593  0.63323003  1
  O  O350  1  0.91273895  0.40935949  0.95924872  1
  O  O351  1  0.91601850  0.91512616  0.29672495  1
  O  O352  1  0.91481041  0.91668735  0.62573667  1
  O  O353  1  0.91955919  0.91862473  0.96581495  1
  O  O354  1  0.09150058  0.09180044  0.20343058  1
  O  O355  1  0.08799023  0.07213535  0.53938975  1
  O  O356  1  0.08315647  0.08044404  0.87111728  1
  O  O357  1  0.08893986  0.58652133  0.19734390  1
  O  O358  1  0.08360142  0.58646104  0.53038940  1
  O  O359  1  0.07908669  0.58824718  0.86330040  1
  O  O360  1  0.58399318  0.08021926  0.20446644  1
  O  O361  1  0.59011121  0.09121056  0.54102371  1
  O  O362  1  0.59161512  0.08450679  0.87290772  1
  O  O363  1  0.60098697  0.58853983  0.21316759  1
  O  O364  1  0.59095161  0.59337038  0.53694834  1
  O  O365  1  0.58974847  0.58456946  0.86528204  1
  O  O366  1  0.13730708  0.21024757  0.05816953  1
  O  O367  1  0.13706942  0.22786703  0.39057093  1
  O  O368  1  0.13572672  0.21378827  0.72067594  1
  O  O369  1  0.14168381  0.72525017  0.06068025  1
  O  O370  1  0.14115423  0.72069017  0.38746892  1
  O  O371  1  0.13518791  0.72877799  0.72629003  1
  O  O372  1  0.63960120  0.21565590  0.05716278  1
  O  O373  1  0.63830728  0.21982530  0.38853197  1
  O  O374  1  0.63692928  0.22625678  0.72868841  1
  O  O375  1  0.64127607  0.72454010  0.05632482  1
  O  O376  1  0.63063252  0.71698656  0.39705751  1
  O  O377  1  0.64123343  0.72774984  0.72624326  1
  O  O378  1  0.28175434  0.36231814  0.11839926  1
  O  O379  1  0.27940690  0.36228371  0.43960308  1
  O  O380  1  0.28477953  0.35694844  0.78071311  1
  O  O381  1  0.27883338  0.86328236  0.10967024  1
  O  O382  1  0.27119357  0.86224019  0.44019383  1
  O  O383  1  0.26778764  0.86153612  0.77187331  1
  O  O384  1  0.78088157  0.36383851  0.10585561  1
  O  O385  1  0.78804206  0.35927211  0.43577168  1
  O  O386  1  0.77306171  0.36102478  0.77379004  1
  O  O387  1  0.78044221  0.85919521  0.10837788  1
  O  O388  1  0.77703028  0.85909448  0.43776905  1
  O  O389  1  0.78027534  0.86622176  0.77594381  1
  O  O390  1  0.36498497  0.28029601  0.27475988  1
  O  O391  1  0.35673694  0.27390309  0.60852675  1
  O  O392  1  0.36765845  0.26409402  0.93777498  1
  O  O393  1  0.36107596  0.79115413  0.28070936  1
  O  O394  1  0.36300653  0.76948380  0.60666474  1
  O  O395  1  0.35691955  0.77809398  0.94640790  1
  O  O396  1  0.85834182  0.27146483  0.27181854  1
  O  O397  1  0.87050061  0.27786437  0.61163194  1
  O  O398  1  0.86291091  0.27650509  0.94439660  1
  O  O399  1  0.86205950  0.78029774  0.27060090  1
  O  O400  1  0.85989728  0.78398793  0.60830606  1
  O  O401  1  0.86492563  0.78571872  0.94861738  1
  O  O402  1  0.22614387  0.13807802  0.22060307  1
  O  O403  1  0.21974617  0.13274832  0.55923870  1
  O  O404  1  0.21404941  0.13651099  0.88505789  1
  O  O405  1  0.22341188  0.64371309  0.22486223  1
  O  O406  1  0.21525926  0.64365055  0.54902754  1
  O  O407  1  0.21341286  0.64283568  0.89192231  1
  O  O408  1  0.71694861  0.13596566  0.22318372  1
  O  O409  1  0.72461489  0.13936904  0.56037971  1
  O  O410  1  0.72505294  0.13860164  0.89325547  1
  O  O411  1  0.73147337  0.63483284  0.22164865  1
  O  O412  1  0.72800017  0.63860003  0.56320735  1
  O  O413  1  0.72584014  0.63839763  0.89681528  1
  O  O414  1  0.49440756  0.32325634  0.03047934  1
  O  O415  1  0.49490117  0.33347009  0.36581654  1
  O  O416  1  0.48802070  0.32966723  0.69525948  1
  O  O417  1  0.48746093  0.83479962  0.03619564  1
  O  O418  1  0.49147488  0.84348761  0.37076011  1
  O  O419  1  0.49152777  0.83636519  0.69449793  1
  O  O420  1  0.99867431  0.33255681  0.02153329  1
  O  O421  1  0.98345687  0.32906945  0.36909259  1
  O  O422  1  1.00206799  0.32577958  0.69751482  1
  O  O423  1  0.99690314  0.83906139  0.03249781  1
  O  O424  1  0.99253021  0.83278595  0.36043113  1
  O  O425  1  0.99066039  0.83910081  0.69520362  1
  O  O426  1  0.16694168  0.00707860  0.13703301  1
  O  O427  1  0.16751418  0.00437473  0.46787576  1
  O  O428  1  0.16105826  0.00317031  0.80266580  1
  O  O429  1  0.17277670  0.51280789  0.13427925  1
  O  O430  1  0.16362546  0.51030557  0.46421556  1
  O  O431  1  0.16711523  0.50834257  0.80919247  1
  O  O432  1  0.66410743  0.00372879  0.13782851  1
  O  O433  1  0.66528212  0.00950266  0.47178091  1
  O  O434  1  0.67122855  0.00840537  0.80434101  1
  O  O435  1  0.66702817  0.50912779  0.13003880  1
  O  O436  1  0.66805221  0.50749472  0.47615253  1
  O  O437  1  0.67450067  0.51138088  0.80091085  1
  O  O438  1  0.01015776  0.16829033  0.29797041  1
  O  O439  1  0.00108074  0.15537463  0.63968122  1
  O  O440  1  0.00661315  0.16034751  0.96734209  1
  O  O441  1  0.00951205  0.67134172  0.30051531  1
  O  O442  1  0.00545478  0.67518122  0.63697053  1
  O  O443  1  0.01146786  0.67020675  0.97161039  1
  O  O444  1  0.50610420  0.16571838  0.30447715  1
  O  O445  1  0.50819182  0.16742305  0.63914233  1
  O  O446  1  0.50922110  0.16032572  0.96943266  1
  O  O447  1  0.49796703  0.67434360  0.30889496  1
  O  O448  1  0.51391089  0.66427785  0.63859703  1
  O  O449  1  0.51073244  0.67192464  0.96472750  1
  O  O450  1  0.33852741  0.49434288  0.20334916  1
  O  O451  1  0.33102970  0.49289813  0.52963464  1
  O  O452  1  0.34037914  0.49112747  0.86161098  1
  O  O453  1  0.33135239  0.99468357  0.19712726  1
  O  O454  1  0.32830859  0.99165948  0.53008027  1
  O  O455  1  0.32549753  0.99056360  0.86141228  1
  O  O456  1  0.83369977  0.49101879  0.19927768  1
  O  O457  1  0.84039139  0.48982358  0.52612363  1
  O  O458  1  0.83376824  0.48980970  0.86583262  1
  O  O459  1  0.83115963  0.99101259  0.19501745  1
  O  O460  1  0.83198621  0.99074280  0.52628238  1
  O  O461  1  0.83735388  0.99606905  0.86353782  1
