# generated using pymatgen
data_Na31Fe20(SO4)36
_symmetry_space_group_name_H-M   'P 1'
_cell_length_a   18.06724289
_cell_length_b   18.06568529
_cell_length_c   19.69361663
_cell_angle_alpha   107.57383232
_cell_angle_beta   107.59023936
_cell_angle_gamma   90.67288423
_symmetry_Int_Tables_number   1
_chemical_formula_structural   Na31Fe20(SO4)36
_chemical_formula_sum   'Na62 Fe40 S72 O288'
_cell_volume   5803.77503397
_cell_formula_units_Z   2
loop_
 _symmetry_equiv_pos_site_id
 _symmetry_equiv_pos_as_xyz
  1  'x, y, z'
loop_
 _atom_site_type_symbol
 _atom_site_label
 _atom_site_symmetry_multiplicity
 _atom_site_fract_x
 _atom_site_fract_y
 _atom_site_fract_z
 _atom_site_occupancy
  Na  Na0  1  0.13385787  0.36385372  0.08027490  1
  Na  Na1  1  0.14191998  0.37525055  0.43256812  1
  Na  Na2  1  0.14986766  0.37071262  0.76967565  1
  Na  Na3  1  0.13046599  0.86223869  0.07575754  1
  Na  Na4  1  0.13507658  0.87860045  0.41944454  1
  Na  Na5  1  0.12867658  0.85265885  0.73870998  1
  Na  Na6  1  0.63464951  0.36811412  0.08416778  1
  Na  Na7  1  0.63473644  0.35220692  0.41319111  1
  Na  Na8  1  0.63690992  0.37030784  0.74630444  1
  Na  Na9  1  0.63259934  0.86528291  0.08394213  1
  Na  Na10  1  0.62782144  0.85804389  0.40723280  1
  Na  Na11  1  0.63218760  0.85800800  0.74085297  1
  Na  Na12  1  0.36363315  0.13790705  0.24855343  1
  Na  Na13  1  0.35817105  0.13275781  0.57691547  1
  Na  Na14  1  0.36456309  0.13511164  0.91124859  1
  Na  Na15  1  0.37073149  0.63554790  0.24839365  1
  Na  Na16  1  0.37425296  0.62876385  0.59233402  1
  Na  Na17  1  0.36674849  0.62193763  0.91101314  1
  Na  Na18  1  0.86727238  0.13555435  0.25578570  1
  Na  Na19  1  0.84765024  0.15395851  0.58523647  1
  Na  Na20  1  0.86744377  0.12894267  0.91283917  1
  Na  Na21  1  0.86276335  0.63603074  0.24962296  1
  Na  Na22  1  0.86810831  0.65148155  0.60318387  1
  Na  Na23  1  0.85742843  0.62841555  0.89635887  1
  Na  Na24  1  0.50371077  0.49246880  0.43182769  1
  Na  Na25  1  0.48543313  0.01111691  0.41907428  1
  Na  Na26  1  1.01708442  -0.04106261  0.80172796  1
  Na  Na27  1  0.99225875  0.00843767  0.07413885  1
  Na  Na28  1  0.51446451  -0.04202580  0.81073242  1
  Na  Na29  1  0.47474487  0.52942003  0.05937697  1
  Na  Na30  1  0.49242504  0.04136000  0.08181263  1
  Na  Na31  1  0.98986739  0.50881147  0.07891943  1
  Na  Na32  1  0.99411382  0.52046505  0.73427044  1
  Na  Na33  1  0.50276779  0.99403243  0.59875209  1
  Na  Na34  1  0.00565725  0.48869784  0.26813910  1
  Na  Na35  1  0.03485072  0.99102855  0.27723544  1
  Na  Na36  1  0.52472556  0.48260576  0.65193581  1
  Na  Na37  1  0.02326573  0.49841761  0.90563442  1
  Na  Na38  1  0.51001990  0.49525199  0.24353828  1
  Na  Na39  1  0.51281817  0.99665481  0.24533890  1
  Na  Na40  1  -0.00043889  1.00237519  0.58013707  1
  Na  Na41  1  0.01369342  0.50013947  0.56042836  1
  Na  Na42  1  0.24439292  0.24394245  0.34170901  1
  Na  Na43  1  0.25546751  0.75558725  0.32958797  1
  Na  Na44  1  0.26033975  0.75559545  -0.00600314  1
  Na  Na45  1  0.26294215  0.76016312  0.66505888  1
  Na  Na46  1  0.73176818  0.73594917  0.33858610  1
  Na  Na47  1  0.24447211  0.24747546  0.68013768  1
  Na  Na48  1  0.75373863  0.75206628  -0.00825115  1
  Na  Na49  1  0.73179515  0.23375056  0.34372870  1
  Na  Na50  1  0.75074407  0.25044096  0.00046930  1
  Na  Na51  1  0.26448891  0.27168010  -0.02235665  1
  Na  Na52  1  0.25702924  0.75646012  0.15903834  1
  Na  Na53  1  0.73860858  0.74342670  0.17160217  1
  Na  Na54  1  0.76297498  0.74985507  0.80773512  1
  Na  Na55  1  0.75649597  0.25753372  0.81992214  1
  Na  Na56  1  0.25628109  0.25699168  0.15974021  1
  Na  Na57  1  0.25571950  0.75479749  0.50027175  1
  Na  Na58  1  0.24351472  0.24687162  0.50920194  1
  Na  Na59  1  0.26420024  0.75693695  0.82755741  1
  Na  Na60  1  0.74203427  0.74315858  0.51460424  1
  Na  Na61  1  0.73499446  0.23937966  0.17528965  1
  Fe  Fe62  1  0.46636027  0.80686863  0.45447876  1
  Fe  Fe63  1  0.96331778  0.80749142  0.44922705  1
  Fe  Fe64  1  0.96307953  0.30690387  0.77878001  1
  Fe  Fe65  1  0.47034443  0.29946054  0.11887474  1
  Fe  Fe66  1  0.96465288  0.80602808  0.11758795  1
  Fe  Fe67  1  0.46816717  0.30382371  0.45387555  1
  Fe  Fe68  1  0.95743666  0.30803015  0.45245883  1
  Fe  Fe69  1  0.46718048  0.80397188  0.12520486  1
  Fe  Fe70  1  0.46295158  0.31604069  0.78965990  1
  Fe  Fe71  1  0.96341221  0.30752880  0.11927260  1
  Fe  Fe72  1  0.69314298  0.03564833  0.38717217  1
  Fe  Fe73  1  0.69535170  0.03506306  0.71516832  1
  Fe  Fe74  1  0.20594680  0.52638542  0.70968062  1
  Fe  Fe75  1  0.68352070  0.53676525  0.03984541  1
  Fe  Fe76  1  0.18840990  0.03672210  0.04431508  1
  Fe  Fe77  1  0.19977273  0.53333854  0.38456900  1
  Fe  Fe78  1  0.20219748  0.53005184  0.04272849  1
  Fe  Fe79  1  0.69260428  0.53637973  0.38423409  1
  Fe  Fe80  1  0.69334249  0.03036361  0.04552691  1
  Fe  Fe81  1  0.18980023  0.04200849  0.71686529  1
  Fe  Fe82  1  0.03296272  0.19287681  0.88133751  1
  Fe  Fe83  1  0.53918848  0.18938731  0.54950646  1
  Fe  Fe84  1  0.03382571  0.19442531  0.21759529  1
  Fe  Fe85  1  0.03343531  0.69888345  0.87363578  1
  Fe  Fe86  1  0.03103699  0.19330127  0.54847062  1
  Fe  Fe87  1  0.52953120  0.69772751  0.87273297  1
  Fe  Fe88  1  0.03606059  0.68959737  0.21107312  1
  Fe  Fe89  1  0.03457031  0.69492463  0.54541075  1
  Fe  Fe90  1  0.53712043  0.69467112  0.55490676  1
  Fe  Fe91  1  0.53556367  0.19129651  0.87772900  1
  Fe  Fe92  1  0.31169410  0.46385955  0.28849589  1
  Fe  Fe93  1  0.30527295  0.97037026  0.62270929  1
  Fe  Fe94  1  0.80668343  0.46726474  0.28542760  1
  Fe  Fe95  1  0.81035050  0.96496386  0.28690750  1
  Fe  Fe96  1  0.81059862  0.96401790  0.62099452  1
  Fe  Fe97  1  0.80058042  0.47015391  0.94661975  1
  Fe  Fe98  1  0.30909417  0.96423067  0.95273824  1
  Fe  Fe99  1  0.80754033  0.96062414  0.94755187  1
  Fe  Fe100  1  0.29616013  0.97099362  0.28998055  1
  Fe  Fe101  1  0.79913014  0.46500562  0.61964515  1
  S  S102  1  0.35488181  0.14042521  0.07989745  1
  S  S103  1  0.35904864  0.14168282  0.41795761  1
  S  S104  1  0.36063849  0.14198879  0.75072817  1
  S  S105  1  0.35764423  0.64338660  0.08541187  1
  S  S106  1  0.36151225  0.64115605  0.41787875  1
  S  S107  1  0.35786115  0.64281417  0.75425243  1
  S  S108  1  0.85914844  0.13911601  0.08368669  1
  S  S109  1  0.85804844  0.13872818  0.41743804  1
  S  S110  1  0.86199206  0.13896247  0.74954306  1
  S  S111  1  0.85912785  0.63964520  0.08366181  1
  S  S112  1  0.85990444  0.64112097  0.41477822  1
  S  S113  1  0.86609071  0.63458251  0.74718899  1
  S  S114  1  0.13928074  0.36085292  0.25068626  1
  S  S115  1  0.13260544  0.36247369  0.58149787  1
  S  S116  1  0.13477269  0.36056728  0.91975485  1
  S  S117  1  0.13955228  0.85387110  0.24641536  1
  S  S118  1  0.13737126  0.86364267  0.58159334  1
  S  S119  1  0.14387289  0.86112736  0.91713781  1
  S  S120  1  0.64294853  0.36159332  0.25003536  1
  S  S121  1  0.64012450  0.35360503  0.57856889  1
  S  S122  1  0.64282121  0.35744966  0.91392713  1
  S  S123  1  0.64262397  0.86251664  0.25180372  1
  S  S124  1  0.63970897  0.86132847  0.58279074  1
  S  S125  1  0.64497862  0.85808226  0.91707076  1
  S  S126  1  0.06390501  0.17181722  0.04544896  1
  S  S127  1  0.06526914  0.17651609  0.38057134  1
  S  S128  1  0.06502948  0.17354540  0.70958660  1
  S  S129  1  0.06640498  0.66639805  0.03926981  1
  S  S130  1  0.07126504  0.67127811  0.37511409  1
  S  S131  1  0.07888125  0.66468979  0.70425876  1
  S  S132  1  0.57019008  0.16906862  0.03992824  1
  S  S133  1  0.55907173  0.15714278  0.37116257  1
  S  S134  1  0.56836854  0.16833402  0.70972820  1
  S  S135  1  0.56692214  0.67592954  0.03979874  1
  S  S136  1  0.56332299  0.66818839  0.37767396  1
  S  S137  1  0.56780039  0.67571163  0.71598388  1
  S  S138  1  0.33207068  0.42992393  0.12534310  1
  S  S139  1  0.33458524  0.43343784  0.45669335  1
  S  S140  1  0.32810444  0.43160974  0.79063709  1
  S  S141  1  0.32646137  0.93511361  0.12632122  1
  S  S142  1  0.33222601  0.93324435  0.46012756  1
  S  S143  1  0.31915882  0.93303516  0.78702359  1
  S  S144  1  0.83520047  0.43651045  0.12435117  1
  S  S145  1  0.82445930  0.43220292  0.45410434  1
  S  S146  1  0.83375589  0.42932169  0.79180717  1
  S  S147  1  0.83683487  0.93518132  0.12619922  1
  S  S148  1  0.82733977  0.93035947  0.45567807  1
  S  S149  1  0.82539254  0.93093346  0.78842493  1
  S  S150  1  0.43413157  0.33067432  0.28946371  1
  S  S151  1  0.43304012  0.32167014  0.62052184  1
  S  S152  1  0.44134385  0.32869063  0.95908783  1
  S  S153  1  0.42863881  0.83731894  0.29343875  1
  S  S154  1  0.43422017  0.83572972  0.62592176  1
  S  S155  1  0.43559922  0.83120225  0.96331020  1
  S  S156  1  0.92987730  0.32992735  0.28927230  1
  S  S157  1  0.93475643  0.33641924  0.62857199  1
  S  S158  1  0.92765672  0.33037348  0.95777758  1
  S  S159  1  0.93286436  0.82761936  0.28638398  1
  S  S160  1  0.93624444  0.83491565  0.62002482  1
  S  S161  1  0.93258248  0.82617921  0.95635525  1
  S  S162  1  0.16335925  0.06544706  0.20613822  1
  S  S163  1  0.16570981  0.06977855  0.54660441  1
  S  S164  1  0.16951711  0.06960646  0.87831889  1
  S  S165  1  0.17265207  0.56545026  0.20826058  1
  S  S166  1  0.17339869  0.57372743  0.54495259  1
  S  S167  1  0.16817380  0.57036297  0.87215616  1
  S  S168  1  0.67070143  0.06149181  0.20861528  1
  S  S169  1  0.66636382  0.05989426  0.54081369  1
  S  S170  1  0.67385642  0.06543561  0.87677426  1
  S  S171  1  0.66648543  0.56338455  0.20467571  1
  S  S172  1  0.66999998  0.56643768  0.53977405  1
  S  S173  1  0.66777194  0.57155863  0.87440913  1
  O  O174  1  0.36475427  0.21977650  0.07255316  1
  O  O175  1  0.37363978  0.21950613  0.40764146  1
  O  O176  1  0.37240257  0.22062257  0.74367768  1
  O  O177  1  0.36371272  0.72859429  0.08898636  1
  O  O178  1  0.36971094  0.72061379  0.40966378  1
  O  O179  1  0.35244355  0.72312551  0.75254123  1
  O  O180  1  0.86815720  0.21823510  0.07550491  1
  O  O181  1  0.86500221  0.21631491  0.40523001  1
  O  O182  1  0.87168052  0.21813792  0.74332094  1
  O  O183  1  0.86796474  0.71972428  0.07829110  1
  O  O184  1  0.86895460  0.71805348  0.40177210  1
  O  O185  1  0.87697867  0.70898251  0.73475916  1
  O  O186  1  0.27339292  0.13190163  0.08445937  1
  O  O187  1  0.28416062  0.13948450  0.43156838  1
  O  O188  1  0.28238089  0.13450776  0.76010376  1
  O  O189  1  0.27561457  0.63107578  0.08936188  1
  O  O190  1  0.28115532  0.63268807  0.42388762  1
  O  O191  1  0.28174790  0.62018605  0.76754669  1
  O  O192  1  0.77930149  0.12974432  0.08965398  1
  O  O193  1  0.77805546  0.12869055  0.42272892  1
  O  O194  1  0.78467324  0.13118073  0.76176670  1
  O  O195  1  0.78196996  0.62956740  0.09445147  1
  O  O196  1  0.77854787  0.63390109  0.41868932  1
  O  O197  1  0.79396608  0.62438860  0.76403306  1
  O  O198  1  0.13043939  0.28236569  0.25973994  1
  O  O199  1  0.12135397  0.28529492  0.59275608  1
  O  O200  1  0.11959017  0.28502073  0.93396369  1
  O  O201  1  0.13244151  0.77155985  0.24871660  1
  O  O202  1  0.13033836  0.78510879  0.59161061  1
  O  O203  1  0.13092589  0.78349958  0.92771594  1
  O  O204  1  0.63837481  0.28509001  0.26005021  1
  O  O205  1  0.63326647  0.27304256  0.58283168  1
  O  O206  1  0.63688277  0.27744383  0.92097759  1
  O  O207  1  0.63541637  0.78643498  0.26210163  1
  O  O208  1  0.63165184  0.78392025  0.59307049  1
  O  O209  1  0.62835383  0.77755659  0.92125877  1
  O  O210  1  0.21719092  0.36954592  0.24104823  1
  O  O211  1  0.20427254  0.36751270  0.56304861  1
  O  O212  1  0.21146454  0.36387685  0.91121262  1
  O  O213  1  0.21980699  0.86567058  0.24155196  1
  O  O214  1  0.21748662  0.87299112  0.57531704  1
  O  O215  1  0.22777123  0.86628552  0.91801777  1
  O  O216  1  0.72039633  0.37403167  0.23782377  1
  O  O217  1  0.71735584  0.36828789  0.56960542  1
  O  O218  1  0.72239349  0.36933624  0.90678540  1
  O  O219  1  0.72038170  0.87307286  0.23992006  1
  O  O220  1  0.71915666  0.87169271  0.57634597  1
  O  O221  1  0.72846955  0.86147677  0.91756819  1
  O  O222  1  0.41154328  0.12996581  0.14615218  1
  O  O223  1  0.42215585  0.12723666  0.48098537  1
  O  O224  1  0.42029177  0.13004428  0.81655055  1
  O  O225  1  0.41455218  0.62971615  0.14996164  1
  O  O226  1  0.41904720  0.63365804  0.48652765  1
  O  O227  1  0.42088038  0.64088821  0.82482344  1
  O  O228  1  0.91714154  0.13209125  0.15288172  1
  O  O229  1  0.91522104  0.13495889  0.48809054  1
  O  O230  1  0.92263503  0.12832437  0.81591694  1
  O  O231  1  0.92067675  0.62891904  0.14990467  1
  O  O232  1  0.91598842  0.63749303  0.48583397  1
  O  O233  1  0.93254968  0.62444085  0.81246764  1
  O  O234  1  0.36319508  0.08186134  0.01054322  1
  O  O235  1  0.35989721  0.08184582  0.34649925  1
  O  O236  1  0.36604838  0.08325345  0.68062994  1
  O  O237  1  0.36511757  0.59361420  0.01452441  1
  O  O238  1  0.36968417  0.58277040  0.34978726  1
  O  O239  1  0.36841441  0.58807676  0.68818330  1
  O  O240  1  0.86987391  0.07983056  0.01687057  1
  O  O241  1  0.86963336  0.07882847  0.35160681  1
  O  O242  1  0.86588389  0.08090729  0.67928309  1
  O  O243  1  0.86698325  0.58224912  0.01445456  1
  O  O244  1  0.87054007  0.58002987  0.34909172  1
  O  O245  1  0.87219359  0.56987625  0.67914023  1
  O  O246  1  0.07893927  0.36875958  0.18278620  1
  O  O247  1  0.06593912  0.37547262  0.51967887  1
  O  O248  1  0.07370277  0.36922926  0.85225493  1
  O  O249  1  0.08229379  0.86229492  0.17709494  1
  O  O250  1  0.07975060  0.86815973  0.51106015  1
  O  O251  1  0.09237054  0.86819325  0.84709920  1
  O  O252  1  0.58172858  0.36855784  0.18209234  1
  O  O253  1  0.57984429  0.36086476  0.50857264  1
  O  O254  1  0.58425334  0.36433525  0.84592666  1
  O  O255  1  0.58143473  0.87112699  0.18473099  1
  O  O256  1  0.58175745  0.86639774  0.51231000  1
  O  O257  1  0.59363469  0.87201480  0.85063452  1
  O  O258  1  0.13050588  0.42118091  0.31824412  1
  O  O259  1  0.13231575  0.42448612  0.65265534  1
  O  O260  1  0.12694437  0.42431577  0.98671540  1
  O  O261  1  0.12803647  0.90844940  0.31310784  1
  O  O262  1  0.12555796  0.92357748  0.64679540  1
  O  O263  1  0.13366122  0.92139354  0.98392239  1
  O  O264  1  0.63402544  0.42335529  0.31671981  1
  O  O265  1  0.62855838  0.40999045  0.64464718  1
  O  O266  1  0.63675168  0.41489768  0.98360104  1
  O  O267  1  0.63476600  0.92460679  0.31908064  1
  O  O268  1  0.62719175  0.92260073  0.64753794  1
  O  O269  1  0.63849471  0.91483731  0.98761246  1
  O  O270  1  0.02656676  0.20154670  0.10657857  1
  O  O271  1  0.02659594  0.20967210  0.44028967  1
  O  O272  1  0.03294645  0.20538344  0.77383731  1
  O  O273  1  0.02708387  0.69523173  0.09876248  1
  O  O274  1  0.03286933  0.69956093  0.43470487  1
  O  O275  1  0.05021145  0.69147616  0.76848284  1
  O  O276  1  0.53175487  0.19668291  0.09815538  1
  O  O277  1  0.53111617  0.19342765  0.43744875  1
  O  O278  1  0.53123399  0.19632343  0.76981496  1
  O  O279  1  0.52749106  0.70343687  0.09688312  1
  O  O280  1  0.53245714  0.69922114  0.44355082  1
  O  O281  1  0.52597903  0.70280309  0.77369127  1
  O  O282  1  0.30430054  0.46857608  0.06773971  1
  O  O283  1  0.30053098  0.46673982  0.39085476  1
  O  O284  1  0.29256760  0.46271915  0.72507537  1
  O  O285  1  0.30088442  0.97343144  0.06616289  1
  O  O286  1  0.30525703  0.96516529  0.39780123  1
  O  O287  1  0.28706717  0.97308605  0.72789201  1
  O  O288  1  0.80604989  0.47035327  0.06219634  1
  O  O289  1  0.79803134  0.47311809  0.39545136  1
  O  O290  1  0.80817222  0.45767229  0.72745805  1
  O  O291  1  0.80631828  0.97096764  0.06470411  1
  O  O292  1  0.79780168  0.96659923  0.39439475  1
  O  O293  1  0.79354583  0.97008281  0.72783869  1
  O  O294  1  0.46564479  0.30638647  0.22662037  1
  O  O295  1  0.47230154  0.28668431  0.56071862  1
  O  O296  1  0.47859042  0.29659640  0.89717978  1
  O  O297  1  0.46677384  0.81693316  0.23532524  1
  O  O298  1  0.46832227  0.80222955  0.56229109  1
  O  O299  1  0.47554521  0.80223928  0.90631624  1
  O  O300  1  0.96878032  0.29983406  0.22936100  1
  O  O301  1  0.96130418  0.29705194  0.56190441  1
  O  O302  1  0.96048384  0.29845182  0.89521091  1
  O  O303  1  0.97197289  0.79657597  0.22692420  1
  O  O304  1  0.96964368  0.80012129  0.55564816  1
  O  O305  1  0.96920493  0.79892623  0.89747216  1
  O  O306  1  0.19015459  0.02755850  0.26455295  1
  O  O307  1  0.20070025  0.03693083  0.61136460  1
  O  O308  1  0.19998583  0.02816505  0.93549410  1
  O  O309  1  0.20098074  0.52965087  0.26987086  1
  O  O310  1  0.19743741  0.53983584  0.60712798  1
  O  O311  1  0.18538103  0.53026381  0.92921305  1
  O  O312  1  0.70700636  0.03017834  0.27252324  1
  O  O313  1  0.70247459  0.03013415  0.60583268  1
  O  O314  1  0.70366659  0.02677601  0.93674258  1
  O  O315  1  0.70434694  0.53148856  0.26834336  1
  O  O316  1  0.70147440  0.53320750  0.60042093  1
  O  O317  1  0.69705901  0.53709920  0.94028364  1
  O  O318  1  0.08087660  0.09030913  0.04114382  1
  O  O319  1  0.08328169  0.09810356  0.37876005  1
  O  O320  1  0.08150120  0.09121095  0.70407578  1
  O  O321  1  0.08422708  0.58450211  0.03587859  1
  O  O322  1  0.09402545  0.59141301  0.37130429  1
  O  O323  1  0.09543234  0.58014946  0.69180915  1
  O  O324  1  0.59201636  0.08887195  0.03923497  1
  O  O325  1  0.58243781  0.07711325  0.37555218  1
  O  O326  1  0.59157466  0.08818048  0.70774809  1
  O  O327  1  0.58267588  0.59333172  0.03489029  1
  O  O328  1  0.58257985  0.58571045  0.37210173  1
  O  O329  1  0.58870606  0.59752565  0.71041781  1
  O  O330  1  0.41252998  0.40785606  0.12980063  1
  O  O331  1  0.41288560  0.40926424  0.45286962  1
  O  O332  1  0.40643242  0.40989915  0.78599701  1
  O  O333  1  0.40841353  0.91664660  0.13559442  1
  O  O334  1  0.41689069  0.91832180  0.47222508  1
  O  O335  1  0.39394168  0.90761323  0.78333251  1
  O  O336  1  0.91926860  0.42100076  0.13246696  1
  O  O337  1  0.90675730  0.41474869  0.46043833  1
  O  O338  1  0.91856871  0.41376875  0.80552732  1
  O  O339  1  0.91982506  0.91979728  0.13208113  1
  O  O340  1  0.90911526  0.91257328  0.46085875  1
  O  O341  1  0.90101249  0.90717230  0.78639311  1
  O  O342  1  0.42189869  0.41652990  0.30535425  1
  O  O343  1  0.41629146  0.39956642  0.61883059  1
  O  O344  1  0.42902206  0.40955674  0.96667361  1
  O  O345  1  0.40642148  0.91901098  0.30405932  1
  O  O346  1  0.40852663  0.91368207  0.62177605  1
  O  O347  1  0.41532500  0.91233428  0.96659363  1
  O  O348  1  0.91088285  0.41026394  0.28934269  1
  O  O349  1  0.91690855  0.41658694  0.62673019  1
  O  O350  1  0.90959202  0.41227193  0.96339194  1
  O  O351  1  0.91633008  0.90871582  0.28926157  1
  O  O352  1  0.91673686  0.91550346  0.61891678  1
  O  O353  1  0.91278113  0.90826932  0.96406650  1
  O  O354  1  0.08050410  0.08389332  0.20068662  1
  O  O355  1  0.08553811  0.08986172  0.54922312  1
  O  O356  1  0.08923227  0.08875052  0.87849525  1
  O  O357  1  0.08904719  0.58109272  0.20041609  1
  O  O358  1  0.09034052  0.59139322  0.53285140  1
  O  O359  1  0.08404297  0.58717957  0.85733090  1
  O  O360  1  0.58784819  0.06854183  0.20092908  1
  O  O361  1  0.58375295  0.07486206  0.53895914  1
  O  O362  1  0.59332490  0.08465761  0.87329650  1
  O  O363  1  0.58351299  0.56744462  0.19675792  1
  O  O364  1  0.59021853  0.59040889  0.53850099  1
  O  O365  1  0.59204628  0.60352314  0.87667193  1
  O  O366  1  0.13515257  0.22389813  0.06322051  1
  O  O367  1  0.13529034  0.23120359  0.39651965  1
  O  O368  1  0.13502419  0.22344036  0.72099941  1
  O  O369  1  0.13764184  0.71939849  0.05794344  1
  O  O370  1  0.13955053  0.72703124  0.39046142  1
  O  O371  1  0.14944722  0.71470154  0.71465379  1
  O  O372  1  0.64117677  0.22247107  0.05587027  1
  O  O373  1  0.62690947  0.20683335  0.37697965  1
  O  O374  1  0.63616712  0.22278642  0.72320237  1
  O  O375  1  0.64121244  0.72580009  0.05906799  1
  O  O376  1  0.63639063  0.71941530  0.39475284  1
  O  O377  1  0.63603459  0.73226052  0.73490942  1
  O  O378  1  0.27695011  0.35998771  0.10881714  1
  O  O379  1  0.28045562  0.36396943  0.44189698  1
  O  O380  1  0.27691963  0.36059049  0.77746226  1
  O  O381  1  0.27230367  0.86343082  0.10532000  1
  O  O382  1  0.28267606  0.85989454  0.44479649  1
  O  O383  1  0.26155666  0.86585874  0.77206076  1
  O  O384  1  0.78602396  0.36393092  0.10962381  1
  O  O385  1  0.77247551  0.35992346  0.43187330  1
  O  O386  1  0.78393561  0.35965515  0.78215123  1
  O  O387  1  0.78698053  0.86254653  0.11022132  1
  O  O388  1  0.77548079  0.85911603  0.43999005  1
  O  O389  1  0.76816119  0.86586015  0.77636384  1
  O  O390  1  0.35928634  0.28286214  0.27271341  1
  O  O391  1  0.36194550  0.26878111  0.60446142  1
  O  O392  1  0.37007860  0.27586284  0.94049786  1
  O  O393  1  0.35920114  0.78102059  0.27500829  1
  O  O394  1  0.36534572  0.78123373  0.61252183  1
  O  O395  1  0.36413981  0.77791675  0.94574673  1
  O  O396  1  0.85908732  0.27693488  0.27184249  1
  O  O397  1  0.86773805  0.28934542  0.62741243  1
  O  O398  1  0.85737793  0.27854635  0.94547530  1
  O  O399  1  0.86110666  0.77569054  0.26865100  1
  O  O400  1  0.86532740  0.78428599  0.60579003  1
  O  O401  1  0.86213148  0.77319712  0.94148960  1
  O  O402  1  0.21472206  0.13758447  0.22236378  1
  O  O403  1  0.21620658  0.14259374  0.56237517  1
  O  O404  1  0.22235216  0.13934932  0.89436685  1
  O  O405  1  0.22342961  0.63796722  0.22601345  1
  O  O406  1  0.22582315  0.64452972  0.56027038  1
  O  O407  1  0.22096400  0.64217656  0.89405169  1
  O  O408  1  0.71708404  0.13679293  0.22407868  1
  O  O409  1  0.71269894  0.12980836  0.54767174  1
  O  O410  1  0.72749230  0.13564616  0.89393770  1
  O  O411  1  0.71166323  0.63987457  0.22155036  1
  O  O412  1  0.72273067  0.63271673  0.54525951  1
  O  O413  1  0.72727016  0.63666023  0.88998477  1
  O  O414  1  0.49946036  0.32366969  0.03077379  1
  O  O415  1  0.49280001  0.32359190  0.35869516  1
  O  O416  1  0.49148929  0.32325096  0.69390987  1
  O  O417  1  0.49107771  0.83694748  0.03919647  1
  O  O418  1  0.48748746  0.83770274  0.36641392  1
  O  O419  1  0.49591284  0.84797600  0.69734286  1
  O  O420  1  0.98931870  0.33451024  0.03051379  1
  O  O421  1  0.98750817  0.33490198  0.36283250  1
  O  O422  1  1.00176280  0.34524002  0.69934887  1
  O  O423  1  0.99168813  0.83056700  0.03108569  1
  O  O424  1  0.99040675  0.82907413  0.35950521  1
  O  O425  1  0.99741175  0.84172254  0.69058803  1
  O  O426  1  0.15878281  0.00812991  0.13106826  1
  O  O427  1  0.16088557  0.01005992  0.47676762  1
  O  O428  1  0.16076082  0.01136170  0.80277637  1
  O  O429  1  0.17268646  0.50725944  0.13627708  1
  O  O430  1  0.17525272  0.51261285  0.47450474  1
  O  O431  1  0.17202934  0.51377491  0.79911530  1
  O  O432  1  0.67619864  0.00393088  0.13756365  1
  O  O433  1  0.66101553  -0.00416514  0.46975211  1
  O  O434  1  0.66949428  0.00625084  0.80366220  1
  O  O435  1  0.67432781  0.50796168  0.13328197  1
  O  O436  1  0.65661007  0.50299472  0.46452788  1
  O  O437  1  0.65760404  0.50728434  0.80594277  1
  O  O438  1  0.00649521  0.17447923  0.30637932  1
  O  O439  1  0.00110115  0.17064876  0.63922015  1
  O  O440  1  0.00522185  0.17114988  0.97336528  1
  O  O441  1  0.01071420  0.66449232  0.30120947  1
  O  O442  1  0.01460804  0.66502036  0.63440607  1
  O  O443  1  0.00960057  0.66327837  0.96547542  1
  O  O444  1  0.49447507  0.14177259  0.30086594  1
  O  O445  1  0.50773118  0.15840132  0.63528100  1
  O  O446  1  0.51273429  0.16216694  0.96494106  1
  O  O447  1  0.50348655  0.66662031  0.30854323  1
  O  O448  1  0.50897557  0.67697193  0.64263511  1
  O  O449  1  0.51255796  0.67620555  0.96526920  1
  O  O450  1  0.33824063  0.48780370  0.20130962  1
  O  O451  1  0.34257652  0.49560542  0.52581873  1
  O  O452  1  0.33586102  0.49174398  0.86130470  1
  O  O453  1  0.32394466  0.99265416  0.19794260  1
  O  O454  1  0.32940700  0.99317436  0.53061031  1
  O  O455  1  0.32626048  0.99225112  0.86151495  1
  O  O456  1  0.83718918  0.49589934  0.19697109  1
  O  O457  1  0.82460738  0.48884017  0.52653236  1
  O  O458  1  0.83374706  0.49328968  0.86211564  1
  O  O459  1  0.83797966  0.99408576  0.19861100  1
  O  O460  1  0.82951847  0.99089169  0.52749654  1
  O  O461  1  0.83262924  0.99297550  0.86260811  1
