# generated using pymatgen
data_Na31Fe20(SO4)36
_symmetry_space_group_name_H-M   'P 1'
_cell_length_a   18.07492238
_cell_length_b   18.07673824
_cell_length_c   19.71573430
_cell_angle_alpha   107.57758985
_cell_angle_beta   107.57005034
_cell_angle_gamma   90.75694366
_symmetry_Int_Tables_number   1
_chemical_formula_structural   Na31Fe20(SO4)36
_chemical_formula_sum   'Na62 Fe40 S72 O288'
_cell_volume   5815.83052015
_cell_formula_units_Z   2
loop_
 _symmetry_equiv_pos_site_id
 _symmetry_equiv_pos_as_xyz
  1  'x, y, z'
loop_
 _atom_site_type_symbol
 _atom_site_label
 _atom_site_symmetry_multiplicity
 _atom_site_fract_x
 _atom_site_fract_y
 _atom_site_fract_z
 _atom_site_occupancy
  Na  Na0  1  0.15665859  0.35090720  0.08777740  1
  Na  Na1  1  0.12998852  0.35512946  0.40575229  1
  Na  Na2  1  0.13948794  0.36379977  0.75039896  1
  Na  Na3  1  0.13117483  0.87746126  0.09005739  1
  Na  Na4  1  0.13183522  0.86243668  0.41765671  1
  Na  Na5  1  0.13094490  0.87167728  0.75129940  1
  Na  Na6  1  0.64069204  0.36873423  0.08196050  1
  Na  Na7  1  0.63713275  0.35827843  0.41329522  1
  Na  Na8  1  0.63904012  0.34617641  0.74047183  1
  Na  Na9  1  0.63266962  0.87125787  0.08590646  1
  Na  Na10  1  0.63251329  0.86927039  0.42007565  1
  Na  Na11  1  0.62854885  0.86805613  0.74740174  1
  Na  Na12  1  0.37334189  0.14375078  0.26164067  1
  Na  Na13  1  0.35750310  0.11859900  0.57439993  1
  Na  Na14  1  0.36517939  0.14597200  0.92843239  1
  Na  Na15  1  0.36309252  0.63934786  0.25367104  1
  Na  Na16  1  0.34553978  0.61353952  0.56018098  1
  Na  Na17  1  0.36662391  0.63516939  0.91512910  1
  Na  Na18  1  0.87678778  0.15253316  0.26747297  1
  Na  Na19  1  0.86898633  0.14541589  0.59581926  1
  Na  Na20  1  0.85654225  0.13411352  0.90799282  1
  Na  Na21  1  0.86883921  0.62936489  0.23995562  1
  Na  Na22  1  0.86954267  0.63443258  0.58593955  1
  Na  Na23  1  0.87012871  0.63083434  0.91791299  1
  Na  Na24  1  1.01483944  0.48763902  0.41382426  1
  Na  Na25  1  0.50970037  0.45771243  0.48556737  1
  Na  Na26  1  0.47953290  0.00605632  0.43407482  1
  Na  Na27  1  0.43404503  0.50147153  0.70834773  1
  Na  Na28  1  0.99771890  0.02234847  0.40317265  1
  Na  Na29  1  0.51228914  0.49869059  0.08390411  1
  Na  Na30  1  0.45547734  0.00996724  0.70441220  1
  Na  Na31  1  0.99353347  0.54075511  0.08338387  1
  Na  Na32  1  0.98934868  0.49694120  0.76835034  1
  Na  Na33  1  0.03880772  0.49817173  0.25705751  1
  Na  Na34  1  0.54301531  0.49326059  0.91920934  1
  Na  Na35  1  0.49856176  1.00007833  0.92628310  1
  Na  Na36  1  0.49225137  0.49575187  0.27278620  1
  Na  Na37  1  0.00484640  1.00385483  0.90930080  1
  Na  Na38  1  0.01407782  0.44631223  0.56959804  1
  Na  Na39  1  0.01711579  0.99337802  0.59063234  1
  Na  Na40  1  0.50476269  1.00794848  0.22885059  1
  Na  Na41  1  -0.01041600  1.04353405  0.19969410  1
  Na  Na42  1  0.74895086  0.74895514  0.33142297  1
  Na  Na43  1  0.75903868  0.25886153  -0.01498413  1
  Na  Na44  1  0.24258184  0.74922983  0.00508018  1
  Na  Na45  1  0.74247529  0.73610812  0.00666367  1
  Na  Na46  1  0.74819526  0.74948645  0.66947521  1
  Na  Na47  1  0.26121100  0.25698469  0.65960266  1
  Na  Na48  1  0.76314051  0.26111689  0.33352411  1
  Na  Na49  1  0.25044007  0.75277912  0.66136541  1
  Na  Na50  1  0.26450385  0.25973113  0.32238095  1
  Na  Na51  1  0.22325146  0.72370936  0.33510348  1
  Na  Na52  1  0.74378421  0.73808373  0.16846964  1
  Na  Na53  1  0.74573364  0.74421827  0.83749408  1
  Na  Na54  1  0.24341018  0.74355805  0.49896552  1
  Na  Na55  1  0.75113757  0.75504410  0.50098732  1
  Na  Na56  1  0.25406584  0.75824073  0.83302154  1
  Na  Na57  1  0.26908047  0.26815152  0.49275700  1
  Na  Na58  1  0.23530775  0.74082324  0.17373650  1
  Na  Na59  1  0.76093483  0.26039787  0.16010482  1
  Na  Na60  1  0.74534353  0.24068783  0.51443422  1
  Na  Na61  1  0.24218774  0.24294572  0.84764094  1
  Fe  Fe62  1  0.46688210  0.30882671  0.78647045  1
  Fe  Fe63  1  0.46246524  0.80843841  0.11797851  1
  Fe  Fe64  1  0.45972658  0.31385171  0.12006365  1
  Fe  Fe65  1  0.97318262  0.29949958  0.12358835  1
  Fe  Fe66  1  0.96471890  0.80689901  0.45219928  1
  Fe  Fe67  1  0.96790568  0.80276588  0.12289022  1
  Fe  Fe68  1  0.46617612  0.80949982  0.78558322  1
  Fe  Fe69  1  0.46225327  0.80937844  0.45535752  1
  Fe  Fe70  1  0.96110570  0.30929620  0.79151524  1
  Fe  Fe71  1  0.96614419  0.80650578  0.78673191  1
  Fe  Fe72  1  0.69130076  0.53008872  0.71076029  1
  Fe  Fe73  1  0.19131665  0.53148103  0.04292980  1
  Fe  Fe74  1  0.69350703  0.03406922  0.38246404  1
  Fe  Fe75  1  0.19200333  0.02843467  0.37952920  1
  Fe  Fe76  1  0.20208546  0.52981960  0.71016006  1
  Fe  Fe77  1  0.19948709  0.03382715  0.71382061  1
  Fe  Fe78  1  0.69391599  0.53634354  0.38072511  1
  Fe  Fe79  1  0.68410961  0.04310611  0.71384103  1
  Fe  Fe80  1  0.69429455  0.03662016  0.04762655  1
  Fe  Fe81  1  0.19173874  0.04495356  0.05133195  1
  Fe  Fe82  1  0.53450445  0.19441396  0.54708327  1
  Fe  Fe83  1  0.03730193  0.69449544  0.87931318  1
  Fe  Fe84  1  0.53560888  0.69194438  0.87872429  1
  Fe  Fe85  1  0.53509872  0.18987634  0.87904066  1
  Fe  Fe86  1  0.03253969  0.68848152  0.54570740  1
  Fe  Fe87  1  0.03488591  0.19087743  0.88095814  1
  Fe  Fe88  1  0.03325029  0.19817871  0.54557739  1
  Fe  Fe89  1  0.53368294  0.19889828  0.21461834  1
  Fe  Fe90  1  0.53326668  0.69378785  0.21347890  1
  Fe  Fe91  1  0.53457749  0.69047635  0.54625469  1
  Fe  Fe92  1  0.81105274  0.96547348  0.95614953  1
  Fe  Fe93  1  0.31030212  0.97035815  0.95695396  1
  Fe  Fe94  1  0.80327778  0.46661647  0.95460022  1
  Fe  Fe95  1  0.80965163  0.46307706  0.61837385  1
  Fe  Fe96  1  0.30913093  0.46451082  0.95351674  1
  Fe  Fe97  1  0.80724229  0.96896930  0.62433027  1
  Fe  Fe98  1  0.30465937  0.96188171  0.28296350  1
  Fe  Fe99  1  0.80519341  0.96762217  0.28584717  1
  Fe  Fe100  1  0.30015803  0.46530817  0.29129473  1
  Fe  Fe101  1  0.80970476  0.46832637  0.28644718  1
  S  S102  1  0.36294928  0.14247802  0.08552523  1
  S  S103  1  0.35995688  0.13136024  0.41828798  1
  S  S104  1  0.35760133  0.14871859  0.75566346  1
  S  S105  1  0.35754321  0.64289521  0.08377168  1
  S  S106  1  0.36474607  0.63739201  0.41213456  1
  S  S107  1  0.35791544  0.65023753  0.75178133  1
  S  S108  1  0.85693549  0.14007233  0.08227556  1
  S  S109  1  0.85867455  0.14077134  0.41971181  1
  S  S110  1  0.85836122  0.14002546  0.75141802  1
  S  S111  1  0.85946894  0.64216882  0.08043658  1
  S  S112  1  0.85611195  0.64419157  0.41701597  1
  S  S113  1  0.85947751  0.63840017  0.74896010  1
  S  S114  1  0.14102261  0.35684819  0.24667046  1
  S  S115  1  0.14893303  0.35366415  0.58812574  1
  S  S116  1  0.13966291  0.35896234  0.91442370  1
  S  S117  1  0.13951617  0.85614419  0.24841920  1
  S  S118  1  0.13700883  0.85846491  0.58735592  1
  S  S119  1  0.14125900  0.86511137  0.91822578  1
  S  S120  1  0.63909075  0.36296699  0.24913826  1
  S  S121  1  0.64532777  0.35789337  0.58098480  1
  S  S122  1  0.63980359  0.35643324  0.91672409  1
  S  S123  1  0.63895882  0.86189699  0.24798222  1
  S  S124  1  0.63903319  0.86288203  0.58487624  1
  S  S125  1  0.64157588  0.85944449  0.91856092  1
  S  S126  1  0.06110051  0.16636530  0.03611110  1
  S  S127  1  0.06886140  0.16078190  0.37435201  1
  S  S128  1  0.06990951  0.17284910  0.71270756  1
  S  S129  1  0.07009395  0.67243423  0.03906227  1
  S  S130  1  0.05636432  0.66666243  0.37725872  1
  S  S131  1  0.06944162  0.67112016  0.71182498  1
  S  S132  1  0.57014914  0.17358465  0.04474201  1
  S  S133  1  0.57148404  0.16574317  0.37502970  1
  S  S134  1  0.56048800  0.16400897  0.70757616  1
  S  S135  1  0.56052211  0.67026839  0.04256096  1
  S  S136  1  0.57085654  0.67403782  0.37655669  1
  S  S137  1  0.56937546  0.67172612  0.70945899  1
  S  S138  1  0.33738743  0.43907102  0.12599969  1
  S  S139  1  0.32435280  0.42393109  0.44873546  1
  S  S140  1  0.33751178  0.43948086  0.79712485  1
  S  S141  1  0.33083906  0.93390935  0.12351911  1
  S  S142  1  0.32390300  0.92400640  0.45364242  1
  S  S143  1  0.33239180  0.93733756  0.79430242  1
  S  S144  1  0.83752011  0.42892474  0.12477855  1
  S  S145  1  0.83323157  0.44038864  0.45694624  1
  S  S146  1  0.82694670  0.43234849  0.79133290  1
  S  S147  1  0.82853438  0.93114777  0.12265794  1
  S  S148  1  0.82791126  0.93152445  0.45989986  1
  S  S149  1  0.82813891  0.92971188  0.79162643  1
  S  S150  1  0.43625118  0.33826968  0.29365660  1
  S  S151  1  0.43272396  0.31762260  0.62068843  1
  S  S152  1  0.43601162  0.33432138  0.95892033  1
  S  S153  1  0.43343883  0.83145876  0.29030060  1
  S  S154  1  0.42750916  0.81925807  0.61871096  1
  S  S155  1  0.43581909  0.83259024  0.95793658  1
  S  S156  1  0.93414765  0.33566625  0.28947557  1
  S  S157  1  0.93627741  0.33389464  0.62968911  1
  S  S158  1  0.92838632  0.32560717  0.95817012  1
  S  S159  1  0.92627475  0.83383117  0.29262587  1
  S  S160  1  0.92871502  0.83138585  0.62543803  1
  S  S161  1  0.93271556  0.82796493  0.95585885  1
  S  S162  1  0.18098022  0.07076712  0.21330773  1
  S  S163  1  0.16025694  0.06470829  0.54244003  1
  S  S164  1  0.17405349  0.06956575  0.87812388  1
  S  S165  1  0.17286944  0.56187981  0.20417510  1
  S  S166  1  0.16116539  0.56547303  0.54213183  1
  S  S167  1  0.17439694  0.56986918  0.87478248  1
  S  S168  1  0.67376852  0.07244564  0.21092518  1
  S  S169  1  0.67012655  0.06828877  0.54308548  1
  S  S170  1  0.66602110  0.06365670  0.87666093  1
  S  S171  1  0.66838159  0.56679874  0.20899640  1
  S  S172  1  0.67228895  0.56825537  0.54291318  1
  S  S173  1  0.66967852  0.56580693  0.87253650  1
  O  O174  1  0.37534528  0.21888061  0.07412167  1
  O  O175  1  0.36298819  0.20779786  0.40842707  1
  O  O176  1  0.36557738  0.23135202  0.75569356  1
  O  O177  1  0.36531996  0.72208599  0.07518937  1
  O  O178  1  0.38145580  0.71147256  0.39657260  1
  O  O179  1  0.36465242  0.73451500  0.75516498  1
  O  O180  1  0.87094439  0.22132213  0.07767499  1
  O  O181  1  0.86454663  0.21444200  0.40498834  1
  O  O182  1  0.86872231  0.21860601  0.74433237  1
  O  O183  1  0.87313433  0.71972753  0.06786036  1
  O  O184  1  0.86471069  0.72460870  0.41183988  1
  O  O185  1  0.86979976  0.71775774  0.74166658  1
  O  O186  1  0.28387780  0.13306068  0.09076743  1
  O  O187  1  0.28452255  0.11640458  0.43197190  1
  O  O188  1  0.27869934  0.13604237  0.76313475  1
  O  O189  1  0.27764207  0.63244507  0.08909535  1
  O  O190  1  0.28775117  0.63787165  0.42214303  1
  O  O191  1  0.28101077  0.63694213  0.76267334  1
  O  O192  1  0.77363212  0.13528611  0.08253438  1
  O  O193  1  0.77924567  0.12672170  0.42689607  1
  O  O194  1  0.78098131  0.12712274  0.76084354  1
  O  O195  1  0.78034897  0.63861287  0.08580108  1
  O  O196  1  0.77625341  0.63602180  0.42445888  1
  O  O197  1  0.78024717  0.63095366  0.75670247  1
  O  O198  1  0.14003022  0.28127604  0.25777586  1
  O  O199  1  0.12969425  0.27884888  0.60260760  1
  O  O200  1  0.13135240  0.27781824  0.91642839  1
  O  O201  1  0.13489931  0.77773252  0.25418595  1
  O  O202  1  0.12049523  0.78247756  0.59985523  1
  O  O203  1  0.13292627  0.78499774  0.92407055  1
  O  O204  1  0.63198717  0.28618554  0.26274402  1
  O  O205  1  0.63665889  0.27781953  0.58577556  1
  O  O206  1  0.62941525  0.27510922  0.92097607  1
  O  O207  1  0.63067214  0.78049725  0.25123290  1
  O  O208  1  0.63183231  0.78406627  0.59440599  1
  O  O209  1  0.63263781  0.78025170  0.92701078  1
  O  O210  1  0.21835165  0.37451031  0.23432104  1
  O  O211  1  0.23033496  0.35555386  0.58993006  1
  O  O212  1  0.21771591  0.37144644  0.90417544  1
  O  O213  1  0.21551005  0.86999491  0.23383059  1
  O  O214  1  0.21341659  0.85946181  0.57705940  1
  O  O215  1  0.21943220  0.87406251  0.90817251  1
  O  O216  1  0.71847491  0.37198008  0.24172967  1
  O  O217  1  0.72714689  0.36916983  0.57696977  1
  O  O218  1  0.72186622  0.36795803  0.91812735  1
  O  O219  1  0.71590094  0.87099231  0.23584341  1
  O  O220  1  0.71719577  0.87166895  0.57416356  1
  O  O221  1  0.72151301  0.86848018  0.91292856  1
  O  O222  1  0.42088283  0.13637770  0.15586350  1
  O  O223  1  0.42351142  0.12313548  0.48432405  1
  O  O224  1  0.41674996  0.13803966  0.82340465  1
  O  O225  1  0.41564360  0.63775368  0.15382238  1
  O  O226  1  0.42454841  0.62808092  0.47900254  1
  O  O227  1  0.41949774  0.63703902  0.81650660  1
  O  O228  1  0.90859103  0.12886017  0.15004625  1
  O  O229  1  0.91635960  0.13852971  0.49128428  1
  O  O230  1  0.91940431  0.13002538  0.81722320  1
  O  O231  1  0.91888310  0.63363644  0.14614108  1
  O  O232  1  0.91314409  0.63469106  0.48495087  1
  O  O233  1  0.91908183  0.62879554  0.81589210  1
  O  O234  1  0.37405340  0.08125380  0.01961459  1
  O  O235  1  0.36928403  0.07018838  0.35067406  1
  O  O236  1  0.36540687  0.09502061  0.68666352  1
  O  O237  1  0.36881588  0.58437078  0.01749178  1
  O  O238  1  0.36875439  0.57297964  0.34377704  1
  O  O239  1  0.36453174  0.60023480  0.68090452  1
  O  O240  1  0.86390347  0.08325595  0.01238323  1
  O  O241  1  0.87060277  0.07607256  0.35601848  1
  O  O242  1  0.86395894  0.08148843  0.68114533  1
  O  O243  1  0.86638857  0.58079035  0.01153616  1
  O  O244  1  0.86334363  0.58750013  0.34798660  1
  O  O245  1  0.86691371  0.57988907  0.68051172  1
  O  O246  1  0.08074650  0.35601380  0.17200269  1
  O  O247  1  0.09452109  0.36027701  0.51863239  1
  O  O248  1  0.07846533  0.37086600  0.84964860  1
  O  O249  1  0.07722404  0.86598772  0.18234547  1
  O  O250  1  0.07586930  0.86938444  0.52090022  1
  O  O251  1  0.08015508  0.87380360  0.85125731  1
  O  O252  1  0.58050720  0.36595136  0.17898508  1
  O  O253  1  0.59036754  0.36817642  0.51381740  1
  O  O254  1  0.58622020  0.36267887  0.84443778  1
  O  O255  1  0.57728779  0.87522109  0.18434081  1
  O  O256  1  0.57858677  0.86888543  0.51698996  1
  O  O257  1  0.58391259  0.86574287  0.84899445  1
  O  O258  1  0.12556226  0.41906885  0.30657929  1
  O  O259  1  0.13766127  0.41809796  0.65384281  1
  O  O260  1  0.13697515  0.41448592  0.98626531  1
  O  O261  1  0.13347727  0.91422673  0.31792685  1
  O  O262  1  0.13158647  0.92124328  0.65529018  1
  O  O263  1  0.13466494  0.92309550  0.98695808  1
  O  O264  1  0.62868145  0.42482772  0.31429790  1
  O  O265  1  0.63791647  0.41494904  0.65077362  1
  O  O266  1  0.62275069  0.41303021  0.97979266  1
  O  O267  1  0.63556532  0.91713369  0.31967172  1
  O  O268  1  0.63361417  0.92232666  0.65333418  1
  O  O269  1  0.63060312  0.91887071  0.98493338  1
  O  O270  1  0.02344294  0.19752663  0.09500359  1
  O  O271  1  0.03484624  0.17777744  0.43693096  1
  O  O272  1  0.02920540  0.19865430  0.77095405  1
  O  O273  1  0.03227705  0.70088580  0.09688166  1
  O  O274  1  0.02545360  0.70645380  0.44326381  1
  O  O275  1  0.03216364  0.70279763  0.77340603  1
  O  O276  1  0.53467479  0.20134759  0.10612101  1
  O  O277  1  0.53603777  0.18272654  0.43471025  1
  O  O278  1  0.52281945  0.19707166  0.76818380  1
  O  O279  1  0.52438629  0.70648998  0.10378107  1
  O  O280  1  0.54112208  0.70522409  0.44127904  1
  O  O281  1  0.53111669  0.70250816  0.76965066  1
  O  O282  1  0.30551620  0.47410962  0.06354026  1
  O  O283  1  0.29958407  0.46315417  0.38694753  1
  O  O284  1  0.31365196  0.47967140  0.73981522  1
  O  O285  1  0.30165234  0.97088230  0.06342601  1
  O  O286  1  0.29260557  0.95494421  0.38798228  1
  O  O287  1  0.30516598  0.97502367  0.73605436  1
  O  O288  1  0.82002363  0.46570370  0.06570602  1
  O  O289  1  0.79634280  0.47594950  0.39520956  1
  O  O290  1  0.80126389  0.47299732  0.73204235  1
  O  O291  1  0.79837859  0.96987532  0.06262602  1
  O  O292  1  0.79689357  0.96478848  0.39694598  1
  O  O293  1  0.79933763  0.96465110  0.73025139  1
  O  O294  1  0.46743939  0.30613417  0.22747090  1
  O  O295  1  0.47559388  0.28916846  0.56607241  1
  O  O296  1  0.47414739  0.30532379  0.89963824  1
  O  O297  1  0.47153922  0.80175555  0.23004649  1
  O  O298  1  0.46771844  0.78830310  0.55941078  1
  O  O299  1  0.47379554  0.80215539  0.89813969  1
  O  O300  1  0.96258449  0.30695757  0.22327392  1
  O  O301  1  0.97370565  0.30765302  0.57100030  1
  O  O302  1  0.97102457  0.29879790  0.90097627  1
  O  O303  1  0.95680156  0.80932013  0.22963039  1
  O  O304  1  0.96116405  0.79840779  0.56270956  1
  O  O305  1  0.97101412  0.79788162  0.89537257  1
  O  O306  1  0.20657672  0.02766102  0.27074100  1
  O  O307  1  0.18484974  0.02984994  0.60340423  1
  O  O308  1  0.20413569  0.03299707  0.93978965  1
  O  O309  1  0.21017272  0.52984264  0.26625852  1
  O  O310  1  0.19377894  0.54385347  0.61120841  1
  O  O311  1  0.20102382  0.53299265  0.93583502  1
  O  O312  1  0.70218809  0.03321027  0.27040841  1
  O  O313  1  0.69805254  0.03160163  0.60438986  1
  O  O314  1  0.69705367  0.02398082  0.93528201  1
  O  O315  1  0.70253596  0.53564093  0.27375344  1
  O  O316  1  0.70297462  0.53200769  0.60375738  1
  O  O317  1  0.69721085  0.52856228  0.93129633  1
  O  O318  1  0.08133615  0.08565597  0.03502618  1
  O  O319  1  0.08869348  0.07668189  0.36030507  1
  O  O320  1  0.09012291  0.09168724  0.70596429  1
  O  O321  1  0.09086343  0.59204297  0.03691149  1
  O  O322  1  0.06988286  0.58700803  0.37892012  1
  O  O323  1  0.08761931  0.59097346  0.70875154  1
  O  O324  1  0.58960474  0.09191198  0.03760482  1
  O  O325  1  0.58703126  0.08085813  0.35503707  1
  O  O326  1  0.57281054  0.08105094  0.70615131  1
  O  O327  1  0.56986334  0.58891377  0.03903779  1
  O  O328  1  0.58990561  0.59268830  0.37117512  1
  O  O329  1  0.59130462  0.59310360  0.70887554  1
  O  O330  1  0.42318037  0.43062049  0.13488971  1
  O  O331  1  0.39651937  0.38980372  0.44545969  1
  O  O332  1  0.42036289  0.42148188  0.80533926  1
  O  O333  1  0.41126066  0.91229299  0.12547611  1
  O  O334  1  0.40621472  0.90665885  0.45481086  1
  O  O335  1  0.41425508  0.91693604  0.79966393  1
  O  O336  1  0.91925521  0.40536966  0.13888124  1
  O  O337  1  0.91428527  0.43065506  0.45983601  1
  O  O338  1  0.90911808  0.41501757  0.79647313  1
  O  O339  1  0.90864195  0.91174955  0.12547277  1
  O  O340  1  0.91011378  0.91478322  0.46685752  1
  O  O341  1  0.90959990  0.91015356  0.79837385  1
  O  O342  1  0.39794239  0.41036442  0.28307496  1
  O  O343  1  0.40528493  0.39187803  0.61657944  1
  O  O344  1  0.42000551  0.41716051  0.96570882  1
  O  O345  1  0.41740375  0.91372839  0.29619505  1
  O  O346  1  0.40443301  0.89532309  0.61722068  1
  O  O347  1  0.41728853  0.91317766  0.96049263  1
  O  O348  1  0.91318180  0.41821467  0.29682451  1
  O  O349  1  0.91954850  0.41780773  0.63606660  1
  O  O350  1  0.91193108  0.40721591  0.96564491  1
  O  O351  1  0.90760895  0.91715339  0.30557927  1
  O  O352  1  0.91181562  0.91256558  0.62867591  1
  O  O353  1  0.91396539  0.90840316  0.95750547  1
  O  O354  1  0.10419114  0.09451628  0.20945369  1
  O  O355  1  0.07645499  0.08191629  0.53313305  1
  O  O356  1  0.09237651  0.08579450  0.87389877  1
  O  O357  1  0.09195625  0.57363960  0.20189313  1
  O  O358  1  0.07770754  0.58413959  0.53705296  1
  O  O359  1  0.09215344  0.58730556  0.86550074  1
  O  O360  1  0.59347650  0.09269150  0.20752046  1
  O  O361  1  0.59009937  0.08980914  0.53918617  1
  O  O362  1  0.58404683  0.07962584  0.87369316  1
  O  O363  1  0.58864832  0.59056145  0.21061210  1
  O  O364  1  0.59102812  0.58592532  0.53902050  1
  O  O365  1  0.58835288  0.58699842  0.86999721  1
  O  O366  1  0.12907038  0.21728991  0.04542955  1
  O  O367  1  0.13966308  0.21441268  0.39425502  1
  O  O368  1  0.14075984  0.22742710  0.73384264  1
  O  O369  1  0.14078806  0.72575344  0.05393827  1
  O  O370  1  0.13055599  0.71579941  0.39314718  1
  O  O371  1  0.13953605  0.72541430  0.72890121  1
  O  O372  1  0.63966988  0.22722614  0.05973869  1
  O  O373  1  0.64413042  0.21798163  0.39519281  1
  O  O374  1  0.63425728  0.20995349  0.72394974  1
  O  O375  1  0.63463270  0.71928928  0.06026955  1
  O  O376  1  0.64060625  0.72611703  0.38740067  1
  O  O377  1  0.63946713  0.72696521  0.72656047  1
  O  O378  1  0.29368695  0.36416070  0.10892187  1
  O  O379  1  0.26113157  0.36008109  0.42994064  1
  O  O380  1  0.28431476  0.36834408  0.77785373  1
  O  O381  1  0.27719559  0.86439363  0.10862683  1
  O  O382  1  0.27507284  0.85027623  0.43823437  1
  O  O383  1  0.27866175  0.86698669  0.77870338  1
  O  O384  1  0.78040971  0.35924051  0.10439085  1
  O  O385  1  0.78428922  0.36686573  0.44061234  1
  O  O386  1  0.77480417  0.36244646  0.77307093  1
  O  O387  1  0.77390655  0.86134506  0.10573271  1
  O  O388  1  0.77634001  0.85965999  0.44439612  1
  O  O389  1  0.77503291  0.85941543  0.77697987  1
  O  O390  1  0.37854378  0.27931727  0.29040966  1
  O  O391  1  0.36661132  0.25823687  0.60605321  1
  O  O392  1  0.36441529  0.28359917  0.94212017  1
  O  O393  1  0.36141892  0.77998796  0.27160866  1
  O  O394  1  0.36082335  0.76144763  0.60414605  1
  O  O395  1  0.36416745  0.78060782  0.94172528  1
  O  O396  1  0.86199080  0.28410644  0.27478264  1
  O  O397  1  0.86473631  0.28317734  0.61362412  1
  O  O398  1  0.85795343  0.27131282  0.93655967  1
  O  O399  1  0.85512483  0.78179304  0.27917127  1
  O  O400  1  0.85686480  0.78094384  0.61301164  1
  O  O401  1  0.86148992  0.77467979  0.93730559  1
  O  O402  1  0.24072699  0.13626754  0.23225027  1
  O  O403  1  0.21229876  0.13556933  0.55833664  1
  O  O404  1  0.22562076  0.14041864  0.89445029  1
  O  O405  1  0.22053614  0.63608611  0.21799336  1
  O  O406  1  0.20919501  0.63737080  0.55008725  1
  O  O407  1  0.22658891  0.64240456  0.89464232  1
  O  O408  1  0.72788876  0.14232093  0.22772620  1
  O  O409  1  0.72564098  0.13485300  0.55635440  1
  O  O410  1  0.71698607  0.13543601  0.89465866  1
  O  O411  1  0.72094518  0.63658516  0.22066605  1
  O  O412  1  0.72380313  0.64017425  0.55901494  1
  O  O413  1  0.72185023  0.63782222  0.88841821  1
  O  O414  1  0.49390824  0.33686567  0.03278805  1
  O  O415  1  0.50401586  0.36384087  0.36204590  1
  O  O416  1  0.49043450  0.32906244  0.69845177  1
  O  O417  1  0.49384130  0.83496873  0.03096831  1
  O  O418  1  0.49188586  0.83257066  0.36291360  1
  O  O419  1  0.48822591  0.82618870  0.69315195  1
  O  O420  1  0.98498197  0.32339936  0.03154392  1
  O  O421  1  0.99564544  0.33891946  0.35811491  1
  O  O422  1  0.99319177  0.33870854  0.70504700  1
  O  O423  1  0.99029390  0.83030910  0.02857809  1
  O  O424  1  0.98797438  0.83443034  0.36381192  1
  O  O425  1  0.98897271  0.83331172  0.69747480  1
  O  O426  1  0.17842004  0.01149401  0.13896847  1
  O  O427  1  0.15891900  0.00487341  0.46991591  1
  O  O428  1  0.17297658  0.01024946  0.80600754  1
  O  O429  1  0.17210828  0.50376308  0.13100623  1
  O  O430  1  0.15559849  0.49999025  0.47532308  1
  O  O431  1  0.17645660  0.51149588  0.80367332  1
  O  O432  1  0.67029986  0.01297293  0.13796266  1
  O  O433  1  0.66286388  0.00629882  0.46970072  1
  O  O434  1  0.66435937  0.00712992  0.80295920  1
  O  O435  1  0.65758669  0.50437966  0.13842587  1
  O  O436  1  0.66902233  0.50938905  0.47007835  1
  O  O437  1  0.66440734  0.50810723  0.79839729  1
  O  O438  1  0.00777582  0.16082803  0.30545374  1
  O  O439  1  0.01246655  0.17234604  0.63978632  1
  O  O440  1  -0.00022791  0.15481652  0.96039524  1
  O  O441  1  -0.00190392  0.66575499  0.30729199  1
  O  O442  1  0.00893656  0.67071588  0.64087109  1
  O  O443  1  0.01246097  0.66624895  0.96365938  1
  O  O444  1  0.51310165  0.17353653  0.30523947  1
  O  O445  1  0.50326967  0.16104865  0.63448604  1
  O  O446  1  0.50928568  0.17009951  0.97225697  1
  O  O447  1  0.50799980  0.66985569  0.30538423  1
  O  O448  1  0.51098967  0.66670243  0.63633156  1
  O  O449  1  0.50497911  0.67223340  0.96938971  1
  O  O450  1  0.33521058  0.49741474  0.19765929  1
  O  O451  1  0.33331146  0.48473365  0.51974942  1
  O  O452  1  0.33814896  0.49622824  0.87121563  1
  O  O453  1  0.33964614  0.99283938  0.19778977  1
  O  O454  1  0.32685617  0.98422265  0.52270026  1
  O  O455  1  0.33912409  0.99560821  0.86985909  1
  O  O456  1  0.83353174  0.48872562  0.19504103  1
  O  O457  1  0.83168765  0.49680016  0.52998760  1
  O  O458  1  0.82950387  0.49142887  0.86430744  1
  O  O459  1  0.83257848  0.99096361  0.19562200  1
  O  O460  1  0.82857088  0.99174343  0.53100580  1
  O  O461  1  0.83126963  0.99026974  0.86394810  1
