# generated using pymatgen
data_Na31Fe20(SO4)36
_symmetry_space_group_name_H-M   'P 1'
_cell_length_a   18.07368246
_cell_length_b   18.07163254
_cell_length_c   19.71447965
_cell_angle_alpha   107.56730445
_cell_angle_beta   107.58249988
_cell_angle_gamma   90.70963047
_symmetry_Int_Tables_number   1
_chemical_formula_structural   Na31Fe20(SO4)36
_chemical_formula_sum   'Na62 Fe40 S72 O288'
_cell_volume   5813.95268430
_cell_formula_units_Z   2
loop_
 _symmetry_equiv_pos_site_id
 _symmetry_equiv_pos_as_xyz
  1  'x, y, z'
loop_
 _atom_site_type_symbol
 _atom_site_label
 _atom_site_symmetry_multiplicity
 _atom_site_fract_x
 _atom_site_fract_y
 _atom_site_fract_z
 _atom_site_occupancy
  Na  Na0  1  0.13762689  0.36183040  0.08298316  1
  Na  Na1  1  0.12396408  0.36980727  0.41487534  1
  Na  Na2  1  0.14517759  0.36683042  0.76597187  1
  Na  Na3  1  0.13069499  0.88227034  0.07845595  1
  Na  Na4  1  0.15451003  0.87160552  0.44142355  1
  Na  Na5  1  0.13530757  0.84579248  0.73007978  1
  Na  Na6  1  0.63439537  0.36820235  0.08642117  1
  Na  Na7  1  0.63385369  0.36640876  0.41124020  1
  Na  Na8  1  0.63669507  0.35698399  0.74268026  1
  Na  Na9  1  0.62484658  0.86193211  0.08340379  1
  Na  Na10  1  0.62847876  0.86796831  0.41871379  1
  Na  Na11  1  0.62866012  0.86681102  0.74601004  1
  Na  Na12  1  0.37173685  0.13664073  0.24450849  1
  Na  Na13  1  0.36518828  0.12800189  0.58252649  1
  Na  Na14  1  0.36197979  0.14261951  0.91524713  1
  Na  Na15  1  0.36655228  0.63571025  0.24893103  1
  Na  Na16  1  0.34931229  0.64817145  0.57853162  1
  Na  Na17  1  0.36117235  0.63739710  0.92184544  1
  Na  Na18  1  0.86354828  0.13113528  0.25071267  1
  Na  Na19  1  0.86847129  0.14271448  0.59147482  1
  Na  Na20  1  0.86992567  0.12763208  0.91662765  1
  Na  Na21  1  0.87301069  0.63104540  0.25236917  1
  Na  Na22  1  0.86390501  0.62821895  0.57449989  1
  Na  Na23  1  0.86966233  0.63253632  0.91478017  1
  Na  Na24  1  0.48178157  0.03467120  0.10309092  1
  Na  Na25  1  0.49740282  0.51393948  0.41523375  1
  Na  Na26  1  0.45248392  0.00841825  0.72514615  1
  Na  Na27  1  1.02117536  -0.04924578  0.81017723  1
  Na  Na28  1  0.48714949  0.50983082  0.75204825  1
  Na  Na29  1  0.99302051  0.49622406  0.10325337  1
  Na  Na30  1  0.99581816  0.04527616  0.42641254  1
  Na  Na31  1  0.45332553  0.50696668  0.07972647  1
  Na  Na32  1  0.99189070  0.51948607  0.74269281  1
  Na  Na33  1  0.50610504  0.49391475  0.58178087  1
  Na  Na34  1  0.01526715  1.00056979  0.59270139  1
  Na  Na35  1  0.01564372  0.48897750  0.56093734  1
  Na  Na36  1  0.48151659  0.50445062  0.92173794  1
  Na  Na37  1  0.50440565  0.99057675  0.91956302  1
  Na  Na38  1  0.02281551  0.49126226  0.91728598  1
  Na  Na39  1  0.02211270  0.99634685  0.23177435  1
  Na  Na40  1  0.55228691  0.49379184  0.26040493  1
  Na  Na41  1  0.51272008  0.96812694  0.25383143  1
  Na  Na42  1  0.75472001  0.75317698  -0.00334646  1
  Na  Na43  1  0.74680636  0.24699712  -0.00129151  1
  Na  Na44  1  0.26233297  0.26503156  -0.01704155  1
  Na  Na45  1  0.76411896  0.75816580  0.66596190  1
  Na  Na46  1  0.24335439  0.24721373  0.33742708  1
  Na  Na47  1  0.26279960  0.76457805  -0.00508632  1
  Na  Na48  1  0.24926012  0.75185790  0.34028644  1
  Na  Na49  1  0.23226323  0.23934198  0.68084318  1
  Na  Na50  1  0.73495146  0.23759407  0.34024932  1
  Na  Na51  1  0.74216806  0.73697408  0.34045206  1
  Na  Na52  1  0.24357969  0.23896101  0.16517760  1
  Na  Na53  1  0.26672195  0.76458659  0.15815807  1
  Na  Na54  1  0.25323424  0.75668168  0.82238939  1
  Na  Na55  1  0.74740276  0.74573119  0.16868957  1
  Na  Na56  1  0.75955959  0.25636439  0.82385199  1
  Na  Na57  1  0.74163013  0.24196141  0.51264932  1
  Na  Na58  1  0.76260221  0.75858734  0.82707669  1
  Na  Na59  1  0.74317056  0.73890389  0.50320689  1
  Na  Na60  1  0.23524841  0.23966599  0.51072986  1
  Na  Na61  1  0.73301939  0.23744499  0.17483341  1
  Fe  Fe62  1  0.96612307  0.80714294  0.45150198  1
  Fe  Fe63  1  0.96732712  0.29881745  0.45619532  1
  Fe  Fe64  1  0.46098821  0.81002074  0.78063363  1
  Fe  Fe65  1  0.96914690  0.80552792  0.11912654  1
  Fe  Fe66  1  0.47192055  0.30044911  0.12118689  1
  Fe  Fe67  1  0.46155340  0.81577884  0.45846980  1
  Fe  Fe68  1  0.96102887  0.30970798  0.12372509  1
  Fe  Fe69  1  0.46359318  0.31107321  0.78552438  1
  Fe  Fe70  1  0.46673692  0.30471509  0.44926072  1
  Fe  Fe71  1  0.96590050  0.30152953  0.78387749  1
  Fe  Fe72  1  0.19362069  0.53407650  0.71297397  1
  Fe  Fe73  1  0.69237409  0.53379972  0.04524741  1
  Fe  Fe74  1  0.69244864  0.53335752  0.71564418  1
  Fe  Fe75  1  0.68809552  0.03679780  0.71255640  1
  Fe  Fe76  1  0.69205168  0.03291736  0.38349373  1
  Fe  Fe77  1  0.69272303  0.03130202  0.04992796  1
  Fe  Fe78  1  0.20048451  0.03335048  0.71169396  1
  Fe  Fe79  1  0.20297763  0.52838701  0.04496566  1
  Fe  Fe80  1  0.18952391  0.53762352  0.38078764  1
  Fe  Fe81  1  0.19811582  0.03416371  0.38469795  1
  Fe  Fe82  1  0.53718007  0.18599671  0.54509883  1
  Fe  Fe83  1  0.03934155  0.18249902  0.88079564  1
  Fe  Fe84  1  0.03451714  0.69984770  0.87627654  1
  Fe  Fe85  1  0.53469201  0.69416450  0.54902265  1
  Fe  Fe86  1  0.53396160  0.19149676  0.87829833  1
  Fe  Fe87  1  0.52907926  0.69912118  0.21087926  1
  Fe  Fe88  1  0.03592414  0.69133477  0.54358966  1
  Fe  Fe89  1  0.52993530  0.69840506  0.88276095  1
  Fe  Fe90  1  0.04036849  0.69520450  0.21544803  1
  Fe  Fe91  1  0.03367751  0.18890339  0.20647862  1
  Fe  Fe92  1  0.31216546  0.97135006  0.28632288  1
  Fe  Fe93  1  0.80282427  0.46698787  0.29033638  1
  Fe  Fe94  1  0.30543086  0.46754841  0.61451145  1
  Fe  Fe95  1  0.80536193  0.46348696  0.61737982  1
  Fe  Fe96  1  0.30631585  0.46528553  0.28564150  1
  Fe  Fe97  1  0.81020236  0.96398126  0.95427178  1
  Fe  Fe98  1  0.80676047  0.46584080  0.95060703  1
  Fe  Fe99  1  0.80971987  0.96418271  0.62286964  1
  Fe  Fe100  1  0.30361096  0.97174434  0.95966827  1
  Fe  Fe101  1  0.81023699  0.96142050  0.28900594  1
  S  S102  1  0.35706827  0.14638956  0.07669322  1
  S  S103  1  0.35931964  0.14620114  0.41918555  1
  S  S104  1  0.35842068  0.14816409  0.75112835  1
  S  S105  1  0.35816091  0.64135212  0.08195550  1
  S  S106  1  0.36026678  0.63976790  0.41777558  1
  S  S107  1  0.36061349  0.64027231  0.74854067  1
  S  S108  1  0.85460316  0.13935523  0.08508694  1
  S  S109  1  0.85588005  0.13874403  0.41675330  1
  S  S110  1  0.86068889  0.13812368  0.75224262  1
  S  S111  1  0.86249403  0.63904780  0.08364741  1
  S  S112  1  0.86256474  0.64048612  0.41313055  1
  S  S113  1  0.85770958  0.63734875  0.75238581  1
  S  S114  1  0.13872874  0.36177784  0.24877389  1
  S  S115  1  0.14269233  0.36041261  0.58139982  1
  S  S116  1  0.13565824  0.35833137  0.91929779  1
  S  S117  1  0.14401342  0.86257172  0.24770674  1
  S  S118  1  0.13561917  0.86093505  0.58300650  1
  S  S119  1  0.14673182  0.85683030  0.91138189  1
  S  S120  1  0.64406688  0.35761551  0.24944469  1
  S  S121  1  0.63711501  0.36100079  0.58341438  1
  S  S122  1  0.64106654  0.35844434  0.91214184  1
  S  S123  1  0.64571262  0.85640288  0.25510414  1
  S  S124  1  0.64150617  0.85934114  0.58478656  1
  S  S125  1  0.63962794  0.85907661  0.91677818  1
  S  S126  1  0.06217814  0.17336880  0.04669211  1
  S  S127  1  0.06514329  0.16869413  0.37067132  1
  S  S128  1  0.06572488  0.16904537  0.71133046  1
  S  S129  1  0.07289053  0.67250339  0.04234779  1
  S  S130  1  0.07329972  0.67521568  0.37383051  1
  S  S131  1  0.06343000  0.65820806  0.70207378  1
  S  S132  1  0.56845230  0.16579779  0.03858238  1
  S  S133  1  0.56549585  0.16819413  0.37690883  1
  S  S134  1  0.56622480  0.17097614  0.71120511  1
  S  S135  1  0.56883449  0.66706427  0.04018096  1
  S  S136  1  0.56126247  0.67189881  0.37744441  1
  S  S137  1  0.56624200  0.66748669  0.71091217  1
  S  S138  1  0.33410102  0.42919675  0.12695523  1
  S  S139  1  0.33176823  0.43421545  0.45609732  1
  S  S140  1  0.33346980  0.43952586  0.78868950  1
  S  S141  1  0.33968438  0.94209530  0.12572935  1
  S  S142  1  0.33199175  0.93838562  0.45401411  1
  S  S143  1  0.33046508  0.93473950  0.79551486  1
  S  S144  1  0.82514151  0.43229128  0.12196132  1
  S  S145  1  0.82943155  0.42577278  0.45724471  1
  S  S146  1  0.83177894  0.43073557  0.79171891  1
  S  S147  1  0.82940995  0.92946410  0.12565733  1
  S  S148  1  0.83074980  0.93263204  0.45875196  1
  S  S149  1  0.82194628  0.93125103  0.78795037  1
  S  S150  1  0.43125023  0.33425053  0.29196269  1
  S  S151  1  0.43275866  0.33427575  0.62231887  1
  S  S152  1  0.44226001  0.33264854  0.95816047  1
  S  S153  1  0.43320359  0.83075463  0.29311159  1
  S  S154  1  0.43486661  0.83008886  0.62206357  1
  S  S155  1  0.43250315  0.83220667  0.95609363  1
  S  S156  1  0.92486247  0.32313107  0.28802542  1
  S  S157  1  0.93300551  0.33376051  0.62628568  1
  S  S158  1  0.93015352  0.33400032  0.96044419  1
  S  S159  1  0.93697172  0.83026814  0.28974308  1
  S  S160  1  0.93041402  0.82692453  0.62144652  1
  S  S161  1  0.93155081  0.82588071  0.95733741  1
  S  S162  1  0.17542761  0.06980254  0.21230053  1
  S  S163  1  0.16778417  0.06623590  0.54536389  1
  S  S164  1  0.17595339  0.06452047  0.87557819  1
  S  S165  1  0.17332125  0.56840801  0.20914330  1
  S  S166  1  0.16865936  0.56840344  0.54042841  1
  S  S167  1  0.16642012  0.56877297  0.87483672  1
  S  S168  1  0.66810950  0.05531575  0.21136991  1
  S  S169  1  0.67498084  0.06776808  0.54623450  1
  S  S170  1  0.66772072  0.06434533  0.87561689  1
  S  S171  1  0.66703076  0.56919280  0.20471331  1
  S  S172  1  0.66566578  0.56467131  0.54335164  1
  S  S173  1  0.66708005  0.56767306  0.87593751  1
  O  O174  1  0.37604283  0.21992083  0.06015365  1
  O  O175  1  0.36704623  0.22648051  0.41252731  1
  O  O176  1  0.36755514  0.23002477  0.74823382  1
  O  O177  1  0.36201054  0.72010472  0.07640047  1
  O  O178  1  0.36845714  0.71934128  0.41182290  1
  O  O179  1  0.36994833  0.71948774  0.74319820  1
  O  O180  1  0.86047796  0.21970404  0.07967846  1
  O  O181  1  0.86647831  0.21698355  0.40750045  1
  O  O182  1  0.87090594  0.21721284  0.74489739  1
  O  O183  1  0.87107535  0.71890272  0.07753084  1
  O  O184  1  0.87649662  0.71653170  0.39869500  1
  O  O185  1  0.86005323  0.71585032  0.74700509  1
  O  O186  1  0.27733281  0.14456875  0.07828382  1
  O  O187  1  0.27983584  0.13687615  0.42698410  1
  O  O188  1  0.27874272  0.13725981  0.75607773  1
  O  O189  1  0.28065087  0.62646761  0.09335493  1
  O  O190  1  0.28256774  0.62722428  0.42603031  1
  O  O191  1  0.28274319  0.62952760  0.75797726  1
  O  O192  1  0.77682965  0.12753306  0.09623424  1
  O  O193  1  0.77271225  0.13129002  0.41683415  1
  O  O194  1  0.78184462  0.13036731  0.76145245  1
  O  O195  1  0.78474141  0.63001086  0.09400320  1
  O  O196  1  0.78745675  0.63959881  0.42691506  1
  O  O197  1  0.78194669  0.62179673  0.76659035  1
  O  O198  1  0.12933260  0.28159846  0.25452250  1
  O  O199  1  0.13916050  0.28200359  0.58671085  1
  O  O200  1  0.12156480  0.28272075  0.93277824  1
  O  O201  1  0.13511822  0.78144586  0.25107362  1
  O  O202  1  0.11816132  0.78499258  0.59504409  1
  O  O203  1  0.13798876  0.77324905  0.91118703  1
  O  O204  1  0.64093132  0.27822508  0.25377314  1
  O  O205  1  0.62731103  0.28309191  0.59170796  1
  O  O206  1  0.63425708  0.27791527  0.91707945  1
  O  O207  1  0.63313500  0.77732461  0.26268615  1
  O  O208  1  0.63440866  0.78036354  0.59492529  1
  O  O209  1  0.62878623  0.78053242  0.92555112  1
  O  O210  1  0.21633194  0.36951920  0.23689906  1
  O  O211  1  0.21812485  0.37559450  0.56686114  1
  O  O212  1  0.21065913  0.36326315  0.90760952  1
  O  O213  1  0.22077409  0.87276830  0.23637060  1
  O  O214  1  0.20763531  0.86315602  0.56630501  1
  O  O215  1  0.23486630  0.86919042  0.92088928  1
  O  O216  1  0.71967345  0.37246958  0.23467716  1
  O  O217  1  0.71570011  0.37046560  0.57516078  1
  O  O218  1  0.72000214  0.37044373  0.90407309  1
  O  O219  1  0.72837451  0.86208141  0.25347818  1
  O  O220  1  0.72133682  0.86718541  0.57717499  1
  O  O221  1  0.72031061  0.86623840  0.91221355  1
  O  O222  1  0.41397352  0.14039656  0.14525404  1
  O  O223  1  0.41748799  0.13973112  0.48802027  1
  O  O224  1  0.41620523  0.13835324  0.82021252  1
  O  O225  1  0.41875166  0.63370997  0.15137978  1
  O  O226  1  0.42108306  0.62883905  0.48413015  1
  O  O227  1  0.42116789  0.62926772  0.81532125  1
  O  O228  1  0.91555614  0.12885072  0.15006212  1
  O  O229  1  0.90989971  0.12996033  0.48484811  1
  O  O230  1  0.91952547  0.12995516  0.82033083  1
  O  O231  1  0.92415376  0.62832491  0.14892311  1
  O  O232  1  0.92518476  0.63113228  0.47834993  1
  O  O233  1  0.92141957  0.62744229  0.81721431  1
  O  O234  1  0.36713922  0.08034395  0.01056155  1
  O  O235  1  0.36768758  0.08982320  0.35079957  1
  O  O236  1  0.37077598  0.09310858  0.68508673  1
  O  O237  1  0.36858542  0.58226695  0.01641525  1
  O  O238  1  0.36899656  0.58210571  0.34868654  1
  O  O239  1  0.36904984  0.58229972  0.67972260  1
  O  O240  1  0.85781085  0.08301963  0.01380253  1
  O  O241  1  0.86730239  0.07897184  0.34945613  1
  O  O242  1  0.86709857  0.07911951  0.68391183  1
  O  O243  1  0.86747935  0.58138380  0.01340148  1
  O  O244  1  0.86336896  0.57826186  0.34368433  1
  O  O245  1  0.86331038  0.57892149  0.68214292  1
  O  O246  1  0.07757822  0.37332031  0.18397084  1
  O  O247  1  0.07888278  0.36999332  0.51569160  1
  O  O248  1  0.07219923  0.36897350  0.85358698  1
  O  O249  1  0.08158768  0.87368778  0.18229104  1
  O  O250  1  0.06945546  0.87418674  0.52000880  1
  O  O251  1  0.10277709  0.86286981  0.83790306  1
  O  O252  1  0.58143471  0.36633247  0.18183142  1
  O  O253  1  0.57792451  0.37157012  0.51638270  1
  O  O254  1  0.58183857  0.36811639  0.84502993  1
  O  O255  1  0.59135665  0.86667821  0.18809501  1
  O  O256  1  0.58368450  0.86477972  0.51592440  1
  O  O257  1  0.58275931  0.86742465  0.84805269  1
  O  O258  1  0.13674174  0.41894648  0.32006476  1
  O  O259  1  0.13692797  0.41923247  0.65106025  1
  O  O260  1  0.12937244  0.42153521  0.98757276  1
  O  O261  1  0.13699472  0.91858799  0.31748897  1
  O  O262  1  0.13325128  0.92305053  0.65291138  1
  O  O263  1  0.12786555  0.90967327  0.97364517  1
  O  O264  1  0.63647825  0.41589726  0.31645989  1
  O  O265  1  0.62894153  0.42123548  0.65163519  1
  O  O266  1  0.63422007  0.41508795  0.98170617  1
  O  O267  1  0.63660949  0.91565310  0.32353811  1
  O  O268  1  0.63299232  0.91887466  0.65165046  1
  O  O269  1  0.62968015  0.91877426  0.98370001  1
  O  O270  1  0.01826977  0.20912668  0.10366070  1
  O  O271  1  0.02724808  0.19466477  0.42938087  1
  O  O272  1  0.03537878  0.19987281  0.77891180  1
  O  O273  1  0.03414172  0.70090642  0.10271154  1
  O  O274  1  0.03901150  0.70681220  0.43607180  1
  O  O275  1  0.02641586  0.67955042  0.76118459  1
  O  O276  1  0.53622995  0.19745519  0.09999408  1
  O  O277  1  0.53204272  0.20020694  0.44191041  1
  O  O278  1  0.52632521  0.20226982  0.76981152  1
  O  O279  1  0.53790846  0.69199651  0.10293209  1
  O  O280  1  0.52608244  0.70837397  0.43873643  1
  O  O281  1  0.53198711  0.70032672  0.77291291  1
  O  O282  1  0.30539712  0.46457631  0.06642930  1
  O  O283  1  0.30058882  0.46878077  0.39417398  1
  O  O284  1  0.30168882  0.47030348  0.72276891  1
  O  O285  1  0.30892367  0.97862999  0.06499830  1
  O  O286  1  0.30156457  0.97230209  0.38849767  1
  O  O287  1  0.30437490  0.97463943  0.73879685  1
  O  O288  1  0.79879996  0.47052209  0.06113787  1
  O  O289  1  0.80808697  0.46093096  0.39706487  1
  O  O290  1  0.79947424  0.46266346  0.72792649  1
  O  O291  1  0.79946243  0.96508461  0.06389908  1
  O  O292  1  0.79970150  0.97064874  0.39870241  1
  O  O293  1  0.78979738  0.97096994  0.72890631  1
  O  O294  1  0.46423366  0.31197941  0.23037677  1
  O  O295  1  0.46809515  0.30454447  0.56123782  1
  O  O296  1  0.47863027  0.29813966  0.89646973  1
  O  O297  1  0.47187580  0.80176882  0.23517804  1
  O  O298  1  0.47420373  0.79341644  0.56246610  1
  O  O299  1  0.46591348  0.80554797  0.89067115  1
  O  O300  1  0.96647258  0.29519343  0.22985213  1
  O  O301  1  0.96881855  0.30991222  0.56644174  1
  O  O302  1  0.96146423  0.30141159  0.89752706  1
  O  O303  1  0.97474883  0.80087460  0.22899803  1
  O  O304  1  0.95739945  0.79185223  0.55418789  1
  O  O305  1  0.97004154  0.79755990  0.89976414  1
  O  O306  1  0.20522007  0.03702609  0.27761100  1
  O  O307  1  0.20197728  0.02979290  0.60371218  1
  O  O308  1  0.20635100  0.02361891  0.93250588  1
  O  O309  1  0.20016297  0.53125240  0.27004936  1
  O  O310  1  0.20079064  0.53382999  0.60327922  1
  O  O311  1  0.18561921  0.53132950  0.93377663  1
  O  O312  1  0.70594485  0.01882543  0.27169771  1
  O  O313  1  0.70581185  0.03061044  0.60721237  1
  O  O314  1  0.69727671  0.02703875  0.93624603  1
  O  O315  1  0.69484511  0.53341246  0.26453516  1
  O  O316  1  0.69874484  0.53381814  0.60891802  1
  O  O317  1  0.69924180  0.53221306  0.93755678  1
  O  O318  1  0.07862022  0.09689868  0.05023622  1
  O  O319  1  0.08554520  0.08688300  0.36546161  1
  O  O320  1  0.09733943  0.09326534  0.71260781  1
  O  O321  1  0.09193191  0.59142710  0.03837696  1
  O  O322  1  0.09266899  0.59534270  0.37150723  1
  O  O323  1  0.07983845  0.57308251  0.68905593  1
  O  O324  1  0.58519879  0.08281877  0.03483993  1
  O  O325  1  0.58906350  0.08874358  0.37664115  1
  O  O326  1  0.58280155  0.08996745  0.70949025  1
  O  O327  1  0.58593025  0.58326706  0.02619088  1
  O  O328  1  0.57010522  0.59002908  0.37417520  1
  O  O329  1  0.58010037  0.58397530  0.70628589  1
  O  O330  1  0.41715966  0.41346042  0.13366441  1
  O  O331  1  0.41429873  0.41748942  0.46163369  1
  O  O332  1  0.41603069  0.42008675  0.79077008  1
  O  O333  1  0.42254514  0.93288546  0.13487255  1
  O  O334  1  0.41185504  0.91676782  0.45688966  1
  O  O335  1  0.41448837  0.91945446  0.80113584  1
  O  O336  1  0.90671888  0.41345618  0.12688004  1
  O  O337  1  0.91082638  0.40360689  0.47002985  1
  O  O338  1  0.91454484  0.41545356  0.79891199  1
  O  O339  1  0.91072436  0.91098633  0.13162383  1
  O  O340  1  0.91240579  0.91635667  0.46203219  1
  O  O341  1  0.89739946  0.90702733  0.78540444  1
  O  O342  1  0.41385114  0.41813983  0.30695043  1
  O  O343  1  0.41788417  0.41808404  0.62830265  1
  O  O344  1  0.43583568  0.41554880  0.96457032  1
  O  O345  1  0.41423751  0.91145076  0.29412271  1
  O  O346  1  0.42185979  0.90858974  0.62027532  1
  O  O347  1  0.40784881  0.91314616  0.96061853  1
  O  O348  1  0.90187966  0.40101233  0.28867323  1
  O  O349  1  0.91457619  0.41751143  0.63775574  1
  O  O350  1  0.91580011  0.41790177  0.96642074  1
  O  O351  1  0.91862141  0.91189673  0.29407511  1
  O  O352  1  0.90790642  0.90665585  0.62038581  1
  O  O353  1  0.90607296  0.90376385  0.95859130  1
  O  O354  1  0.09527678  0.09254304  0.21243271  1
  O  O355  1  0.08587240  0.07808420  0.54046938  1
  O  O356  1  0.09384473  0.07939321  0.87366077  1
  O  O357  1  0.09136933  0.58748568  0.20161106  1
  O  O358  1  0.08623750  0.58256954  0.53563286  1
  O  O359  1  0.08305882  0.58796741  0.86245112  1
  O  O360  1  0.58741784  0.06414451  0.21010908  1
  O  O361  1  0.59665294  0.08979107  0.54660784  1
  O  O362  1  0.58582047  0.08183338  0.87090561  1
  O  O363  1  0.58473949  0.58772937  0.19915648  1
  O  O364  1  0.58483069  0.58699240  0.54439191  1
  O  O365  1  0.58517701  0.58478595  0.87103902  1
  O  O366  1  0.13144862  0.22971648  0.06625419  1
  O  O367  1  0.13592918  0.22268752  0.38805140  1
  O  O368  1  0.12713650  0.22852991  0.72010279  1
  O  O369  1  0.14228920  0.72711701  0.05921902  1
  O  O370  1  0.14117012  0.72757869  0.38344756  1
  O  O371  1  0.13626941  0.70817799  0.72077476  1
  O  O372  1  0.64089445  0.21420867  0.04956147  1
  O  O373  1  0.63597744  0.22312662  0.39459061  1
  O  O374  1  0.63825746  0.22244648  0.72987060  1
  O  O375  1  0.64026753  0.71822435  0.05354257  1
  O  O376  1  0.63672537  0.71891900  0.39488171  1
  O  O377  1  0.63965067  0.71507252  0.72531012  1
  O  O378  1  0.28365939  0.35692369  0.11154918  1
  O  O379  1  0.28072504  0.36370283  0.44255019  1
  O  O380  1  0.28289714  0.36972171  0.77643267  1
  O  O381  1  0.28980609  0.86834383  0.10689235  1
  O  O382  1  0.27870189  0.86742518  0.43537240  1
  O  O383  1  0.28110628  0.86247322  0.77904506  1
  O  O384  1  0.77212339  0.36087047  0.10170689  1
  O  O385  1  0.77382950  0.35712528  0.44205470  1
  O  O386  1  0.78177306  0.36046534  0.78015399  1
  O  O387  1  0.77660794  0.85850406  0.10971140  1
  O  O388  1  0.77954415  0.86040733  0.44169593  1
  O  O389  1  0.76480332  0.86288409  0.77239397  1
  O  O390  1  0.35996254  0.28246405  0.27693641  1
  O  O391  1  0.36053610  0.28532853  0.60789800  1
  O  O392  1  0.36751540  0.28671311  0.93992034  1
  O  O393  1  0.36085678  0.77886126  0.27629270  1
  O  O394  1  0.36599139  0.77905964  0.60974278  1
  O  O395  1  0.36318109  0.77594035  0.93740659  1
  O  O396  1  0.85623683  0.26586502  0.26936365  1
  O  O397  1  0.86145880  0.28212991  0.60938782  1
  O  O398  1  0.85732264  0.28574555  0.94812733  1
  O  O399  1  0.86592277  0.77690953  0.27082659  1
  O  O400  1  0.86028712  0.77483241  0.61107462  1
  O  O401  1  0.86215837  0.76989542  0.94262307  1
  O  O402  1  0.22818513  0.14144700  0.22892475  1
  O  O403  1  0.21726879  0.14006057  0.56125029  1
  O  O404  1  0.22510921  0.13794438  0.89451107  1
  O  O405  1  0.22625895  0.63941043  0.22758209  1
  O  O406  1  0.21668215  0.63939811  0.55314189  1
  O  O407  1  0.22101457  0.63865444  0.89311588  1
  O  O408  1  0.71625878  0.12968145  0.22809622  1
  O  O409  1  0.72925334  0.13566059  0.55879991  1
  O  O410  1  0.71989654  0.13584592  0.89261359  1
  O  O411  1  0.71922419  0.64042367  0.21929128  1
  O  O412  1  0.71750331  0.63508641  0.55591279  1
  O  O413  1  0.71819045  0.63880802  0.89066361  1
  O  O414  1  0.49872866  0.32816588  0.03017701  1
  O  O415  1  0.49236881  0.33229424  0.36295722  1
  O  O416  1  0.49230245  0.33645919  0.69497655  1
  O  O417  1  0.49388856  0.83591138  0.02451819  1
  O  O418  1  0.48964005  0.83447774  0.36754670  1
  O  O419  1  0.49495253  0.83425160  0.69731004  1
  O  O420  1  0.98974625  0.33825062  0.03362510  1
  O  O421  1  0.98283389  0.32659613  0.36186038  1
  O  O422  1  0.99213810  0.33347324  0.69865135  1
  O  O423  1  0.98974686  0.83322207  0.03272913  1
  O  O424  1  0.99501834  0.83296513  0.36218570  1
  O  O425  1  0.99390387  0.83513318  0.69068422  1
  O  O426  1  0.17079295  0.00975347  0.14311086  1
  O  O427  1  0.16691181  0.01109902  0.46954577  1
  O  O428  1  0.17227810  0.00880887  0.80105224  1
  O  O429  1  0.17167408  0.50884243  0.13718058  1
  O  O430  1  0.16735378  0.50628208  0.46930285  1
  O  O431  1  0.16730239  0.50967750  0.80246025  1
  O  O432  1  0.66876008  0.00015684  0.13715765  1
  O  O433  1  0.66854353  0.00632707  0.47343562  1
  O  O434  1  0.66556429  0.00666049  0.80266423  1
  O  O435  1  0.66364344  0.51012281  0.13074654  1
  O  O436  1  0.65577782  0.50263990  0.47313052  1
  O  O437  1  0.66450011  0.50679435  0.80401004  1
  O  O438  1  0.00714637  0.16382263  0.29622052  1
  O  O439  1  -0.00131276  0.15396646  0.64312987  1
  O  O440  1  0.00665362  0.17163763  0.97135536  1
  O  O441  1  0.01047786  0.66934063  0.30110458  1
  O  O442  1  0.00536165  0.66042163  0.63020751  1
  O  O443  1  0.01352593  0.66895732  0.96926354  1
  O  O444  1  0.50515321  0.16298112  0.30731064  1
  O  O445  1  0.50972515  0.16961319  0.63778546  1
  O  O446  1  0.50859935  0.15998068  0.96465436  1
  O  O447  1  0.50657126  0.67322792  0.30385152  1
  O  O448  1  0.50682678  0.66550589  0.63890523  1
  O  O449  1  0.50665501  0.66754760  0.96906387  1
  O  O450  1  0.33512831  0.48876748  0.19972911  1
  O  O451  1  0.33571202  0.49555680  0.52842941  1
  O  O452  1  0.34180822  0.50273405  0.85842163  1
  O  O453  1  0.33442052  0.99818773  0.19795387  1
  O  O454  1  0.33279857  0.99912304  0.52184233  1
  O  O455  1  0.33495860  0.99146512  0.87158965  1
  O  O456  1  0.82569963  0.48994030  0.19369579  1
  O  O457  1  0.82922791  0.48770553  0.52889619  1
  O  O458  1  0.83293083  0.49368261  0.86262356  1
  O  O459  1  0.83150627  0.98939231  0.19761789  1
  O  O460  1  0.83286820  0.99110128  0.53132394  1
  O  O461  1  0.82727241  0.98978340  0.86238737  1
