# generated using pymatgen
data_Na31Fe20(SO4)36
_symmetry_space_group_name_H-M   'P 1'
_cell_length_a   18.08336551
_cell_length_b   18.08392833
_cell_length_c   19.72449854
_cell_angle_alpha   107.56509435
_cell_angle_beta   107.57775303
_cell_angle_gamma   90.73352463
_symmetry_Int_Tables_number   1
_chemical_formula_structural   Na31Fe20(SO4)36
_chemical_formula_sum   'Na62 Fe40 S72 O288'
_cell_volume   5823.92743683
_cell_formula_units_Z   2
loop_
 _symmetry_equiv_pos_site_id
 _symmetry_equiv_pos_as_xyz
  1  'x, y, z'
loop_
 _atom_site_type_symbol
 _atom_site_label
 _atom_site_symmetry_multiplicity
 _atom_site_fract_x
 _atom_site_fract_y
 _atom_site_fract_z
 _atom_site_occupancy
  Na  Na0  1  0.13894485  0.36719930  0.08589723  1
  Na  Na1  1  0.12865671  0.37539056  0.41981864  1
  Na  Na2  1  0.14371371  0.36117251  0.75385475  1
  Na  Na3  1  0.18200813  0.85132562  0.10179272  1
  Na  Na4  1  0.11688477  0.85041632  0.39685312  1
  Na  Na5  1  0.12948239  0.86270458  0.74805792  1
  Na  Na6  1  0.63248638  0.35221136  0.07970370  1
  Na  Na7  1  0.63226908  0.37227835  0.41777345  1
  Na  Na8  1  0.63665076  0.36682551  0.75454622  1
  Na  Na9  1  0.63315359  0.87350615  0.08417200  1
  Na  Na10  1  0.62996132  0.87031626  0.41793869  1
  Na  Na11  1  0.62899870  0.86046400  0.74087699  1
  Na  Na12  1  0.36333863  0.13475373  0.24960055  1
  Na  Na13  1  0.37233167  0.12947069  0.58551476  1
  Na  Na14  1  0.37193824  0.13704716  0.92735139  1
  Na  Na15  1  0.35577500  0.64373251  0.24145725  1
  Na  Na16  1  0.36484145  0.63788100  0.58740400  1
  Na  Na17  1  0.33066765  0.65280239  0.90035600  1
  Na  Na18  1  0.85943177  0.12138295  0.23475406  1
  Na  Na19  1  0.87277143  0.12065933  0.58378631  1
  Na  Na20  1  0.86824989  0.13435496  0.92506525  1
  Na  Na21  1  0.87703942  0.65061266  0.26508630  1
  Na  Na22  1  0.86607255  0.64966659  0.58700547  1
  Na  Na23  1  0.86509248  0.63325089  0.91623659  1
  Na  Na24  1  0.49994384  0.49333328  0.09076066  1
  Na  Na25  1  1.04008722  0.48232279  0.70901452  1
  Na  Na26  1  0.99195106  0.54710189  0.09589153  1
  Na  Na27  1  0.95469248  -0.00267322  0.74537374  1
  Na  Na28  1  0.50676475  0.00810374  0.72975347  1
  Na  Na29  1  0.50246196  0.01646747  0.08313855  1
  Na  Na30  1  0.48588946  0.51114198  0.74801735  1
  Na  Na31  1  0.99481073  -0.01738314  0.10534535  1
  Na  Na32  1  0.45716645  0.00608741  0.41536847  1
  Na  Na33  1  0.50129161  0.99792451  0.25628528  1
  Na  Na34  1  0.01113236  0.49019044  0.91545223  1
  Na  Na35  1  0.50472006  0.50402426  0.56471824  1
  Na  Na36  1  0.50620058  0.46777664  0.25412058  1
  Na  Na37  1  -0.01456197  0.54649912  0.53723087  1
  Na  Na38  1  0.47545056  0.51776563  0.92335572  1
  Na  Na39  1  -0.00485894  0.51069270  0.25515047  1
  Na  Na40  1  -0.01869949  0.86526943  0.50721154  1
  Na  Na41  1  0.53670602  0.99029844  0.91916480  1
  Na  Na42  1  0.75848409  0.76676304  0.65910739  1
  Na  Na43  1  0.74444847  0.24053308  0.67177541  1
  Na  Na44  1  0.25814308  0.25671031  0.00166927  1
  Na  Na45  1  0.22554203  0.72321485  0.68456153  1
  Na  Na46  1  0.75238039  0.75159250  -0.00551465  1
  Na  Na47  1  0.24988856  0.25021256  0.66687846  1
  Na  Na48  1  0.23900147  0.75523057  0.31963991  1
  Na  Na49  1  0.75504487  0.25360571  0.32527438  1
  Na  Na50  1  0.24594647  0.24820962  0.33670121  1
  Na  Na51  1  0.76112576  0.76114109  0.33227534  1
  Na  Na52  1  0.26104711  0.24899622  0.16454411  1
  Na  Na53  1  0.25425104  0.24627937  0.83676449  1
  Na  Na54  1  0.75428889  0.25061378  0.15220321  1
  Na  Na55  1  0.75302762  0.75750604  0.82518423  1
  Na  Na56  1  0.22145281  0.73353471  0.50353583  1
  Na  Na57  1  0.74418357  0.23849069  0.84995273  1
  Na  Na58  1  0.24677553  0.24581374  0.50224954  1
  Na  Na59  1  0.74848744  0.25010528  0.50283946  1
  Na  Na60  1  0.74986256  0.75598028  0.16259463  1
  Na  Na61  1  0.77651358  0.77921491  0.49972134  1
  Fe  Fe62  1  0.96779676  0.30707018  0.11869994  1
  Fe  Fe63  1  0.45545229  0.81300183  0.11719239  1
  Fe  Fe64  1  0.96658014  0.30772345  0.45310960  1
  Fe  Fe65  1  0.96569281  0.30411111  0.78454165  1
  Fe  Fe66  1  0.96934506  0.80041009  0.13089526  1
  Fe  Fe67  1  0.46415983  0.30932962  0.45365638  1
  Fe  Fe68  1  0.46133686  0.80755441  0.44852707  1
  Fe  Fe69  1  0.46742515  0.30996321  0.78937664  1
  Fe  Fe70  1  0.96688592  0.81148363  0.79700272  1
  Fe  Fe71  1  0.46169737  0.80672841  0.78289131  1
  Fe  Fe72  1  0.19602174  0.53428639  0.37896308  1
  Fe  Fe73  1  0.69200447  0.53248750  0.04814150  1
  Fe  Fe74  1  0.69293591  0.53551076  0.71688373  1
  Fe  Fe75  1  0.68717835  0.04043820  0.38058350  1
  Fe  Fe76  1  0.19693727  0.03049205  0.37309963  1
  Fe  Fe77  1  0.69596105  0.02878687  0.70567821  1
  Fe  Fe78  1  0.19469743  0.03149222  0.70917480  1
  Fe  Fe79  1  0.19290994  0.54203343  0.05308212  1
  Fe  Fe80  1  0.19504411  0.02664489  0.04534252  1
  Fe  Fe81  1  0.69305793  0.53945679  0.38365508  1
  Fe  Fe82  1  0.53350920  0.69160845  0.54401992  1
  Fe  Fe83  1  0.53190272  0.69237940  0.88317780  1
  Fe  Fe84  1  0.53347316  0.19681515  0.54799748  1
  Fe  Fe85  1  0.53168853  0.20221699  0.20971746  1
  Fe  Fe86  1  0.03897733  0.19152584  0.21124300  1
  Fe  Fe87  1  0.03474910  0.18255547  0.53915896  1
  Fe  Fe88  1  0.53694807  0.19333600  0.88565484  1
  Fe  Fe89  1  0.03688682  0.19008357  0.87912941  1
  Fe  Fe90  1  0.04038115  0.68577996  0.88046872  1
  Fe  Fe91  1  0.53307119  0.69457483  0.21491785  1
  Fe  Fe92  1  0.31343978  0.96603179  0.61994356  1
  Fe  Fe93  1  0.31096142  0.95643539  0.95045197  1
  Fe  Fe94  1  0.31147364  0.46628176  0.28569416  1
  Fe  Fe95  1  0.80962965  0.46903692  0.62263589  1
  Fe  Fe96  1  0.80939333  0.46227765  0.95449610  1
  Fe  Fe97  1  0.81153653  0.46978158  0.29032281  1
  Fe  Fe98  1  0.30210329  0.46828540  0.95150812  1
  Fe  Fe99  1  0.30053601  0.46669946  0.62057262  1
  Fe  Fe100  1  0.80775842  0.96714961  0.29035484  1
  Fe  Fe101  1  0.79778618  0.96780953  0.96019136  1
  S  S102  1  0.35904850  0.13491187  0.08178634  1
  S  S103  1  0.35985933  0.14530216  0.41969138  1
  S  S104  1  0.36352098  0.14090938  0.74978447  1
  S  S105  1  0.36276318  0.63881871  0.07958754  1
  S  S106  1  0.35940963  0.64090182  0.41627016  1
  S  S107  1  0.36204257  0.63718080  0.75001651  1
  S  S108  1  0.86610014  0.13829525  0.08577005  1
  S  S109  1  0.85746057  0.14487115  0.41521498  1
  S  S110  1  0.85983917  0.14283335  0.75340081  1
  S  S111  1  0.85398312  0.63829779  0.08194651  1
  S  S112  1  0.85588751  0.64153062  0.41990959  1
  S  S113  1  0.85680632  0.64202338  0.75429519  1
  S  S114  1  0.14335599  0.35923536  0.24963803  1
  S  S115  1  0.13703847  0.35388855  0.58419740  1
  S  S116  1  0.13927245  0.35862470  0.91619175  1
  S  S117  1  0.13500267  0.86668063  0.24601754  1
  S  S118  1  0.15741531  0.85766634  0.58910607  1
  S  S119  1  0.14281722  0.85729557  0.92137763  1
  S  S120  1  0.64464624  0.36566666  0.25273265  1
  S  S121  1  0.64105163  0.36333826  0.58575937  1
  S  S122  1  0.64212244  0.35928447  0.91809959  1
  S  S123  1  0.63323048  0.86197074  0.24813088  1
  S  S124  1  0.63613469  0.85660777  0.58107929  1
  S  S125  1  0.63679899  0.85279252  0.91280721  1
  S  S126  1  0.07792783  0.17337289  0.04434590  1
  S  S127  1  0.07368025  0.17463167  0.37666134  1
  S  S128  1  0.07133814  0.17013108  0.70948503  1
  S  S129  1  0.06358614  0.67033332  0.04254850  1
  S  S130  1  0.07491280  0.66349498  0.37083684  1
  S  S131  1  0.05886847  0.67051768  0.71602725  1
  S  S132  1  0.56420637  0.16875771  0.04317843  1
  S  S133  1  0.56479219  0.17837413  0.37626232  1
  S  S134  1  0.57104742  0.17481686  0.71265831  1
  S  S135  1  0.56713577  0.66726161  0.04283189  1
  S  S136  1  0.56605022  0.66792271  0.37338509  1
  S  S137  1  0.56511770  0.66246896  0.70632049  1
  S  S138  1  0.33369654  0.43995957  0.12507689  1
  S  S139  1  0.32926303  0.43359782  0.45922482  1
  S  S140  1  0.33245477  0.43077937  0.79092833  1
  S  S141  1  0.35051129  0.94112227  0.12739353  1
  S  S142  1  0.32615409  0.93242617  0.45505128  1
  S  S143  1  0.33769973  0.93480124  0.79280871  1
  S  S144  1  0.83097838  0.43235223  0.12564218  1
  S  S145  1  0.82959841  0.43234938  0.45917410  1
  S  S146  1  0.83003282  0.43070368  0.79092288  1
  S  S147  1  0.82571109  0.92373258  0.12395083  1
  S  S148  1  0.81756509  0.93913879  0.45022161  1
  S  S149  1  0.82214222  0.93209039  0.79618906  1
  S  S150  1  0.43385848  0.33207838  0.29462696  1
  S  S151  1  0.43311754  0.33358893  0.62656604  1
  S  S152  1  0.43559506  0.33716269  0.95827465  1
  S  S153  1  0.43459844  0.83214709  0.29018754  1
  S  S154  1  0.43138891  0.82554405  0.62033550  1
  S  S155  1  0.43609949  0.83092026  0.95584060  1
  S  S156  1  0.93196509  0.32807223  0.28772479  1
  S  S157  1  0.93029655  0.32673228  0.62357346  1
  S  S158  1  0.93768891  0.33360502  0.95908088  1
  S  S159  1  0.92429129  0.82958482  0.28918250  1
  S  S160  1  0.93654958  0.83172481  0.63239313  1
  S  S161  1  0.92356723  0.82497693  0.96167047  1
  S  S162  1  0.17483512  0.07417599  0.20916053  1
  S  S163  1  0.17971578  0.07030933  0.54216093  1
  S  S164  1  0.17402892  0.06929950  0.87469503  1
  S  S165  1  0.16878057  0.55893554  0.20937023  1
  S  S166  1  0.17696054  0.56490922  0.54218131  1
  S  S167  1  0.16010981  0.55682682  0.87619413  1
  S  S168  1  0.66379954  0.06973266  0.21062703  1
  S  S169  1  0.65971530  0.07180031  0.53843078  1
  S  S170  1  0.66622282  0.06264534  0.86874551  1
  S  S171  1  0.67019507  0.56932193  0.20979088  1
  S  S172  1  0.67193374  0.56999152  0.54714734  1
  S  S173  1  0.66555189  0.56335979  0.87659817  1
  O  O174  1  0.36111963  0.21007395  0.06861143  1
  O  O175  1  0.36573755  0.22805563  0.41831226  1
  O  O176  1  0.37241977  0.21798687  0.73755310  1
  O  O177  1  0.37560602  0.71571969  0.07048044  1
  O  O178  1  0.36607097  0.71995746  0.40809737  1
  O  O179  1  0.37560243  0.71378788  0.73757614  1
  O  O180  1  0.88014475  0.21646595  0.07690277  1
  O  O181  1  0.86895880  0.22515389  0.40933484  1
  O  O182  1  0.86872321  0.22408234  0.74834595  1
  O  O183  1  0.86722412  0.71771329  0.07468460  1
  O  O184  1  0.86530535  0.72073320  0.41561714  1
  O  O185  1  0.86099316  0.72294895  0.75022787  1
  O  O186  1  0.28177779  0.12050462  0.09268365  1
  O  O187  1  0.28015886  0.13207360  0.42502934  1
  O  O188  1  0.28195404  0.13124268  0.75160353  1
  O  O189  1  0.28652583  0.63175238  0.09213447  1
  O  O190  1  0.28112038  0.62909240  0.42559018  1
  O  O191  1  0.28471405  0.62991768  0.75627745  1
  O  O192  1  0.79393327  0.13308972  0.10324305  1
  O  O193  1  0.77898838  0.13884696  0.42487590  1
  O  O194  1  0.77893465  0.13329820  0.75741158  1
  O  O195  1  0.77135142  0.63189666  0.08232939  1
  O  O196  1  0.77453198  0.63181942  0.42692355  1
  O  O197  1  0.77882755  0.62853214  0.76507118  1
  O  O198  1  0.13287120  0.28071392  0.25793508  1
  O  O199  1  0.12788187  0.27106596  0.58557148  1
  O  O200  1  0.13279961  0.27885238  0.92331206  1
  O  O201  1  0.12439157  0.79219680  0.25843156  1
  O  O202  1  0.15049050  0.78267056  0.60138338  1
  O  O203  1  0.13077162  0.77772575  0.92515912  1
  O  O204  1  0.63304590  0.28687376  0.26067738  1
  O  O205  1  0.63150867  0.28345501  0.59162148  1
  O  O206  1  0.63221175  0.27923058  0.92216160  1
  O  O207  1  0.62828966  0.78473023  0.26126865  1
  O  O208  1  0.62358867  0.78002632  0.59551770  1
  O  O209  1  0.62923626  0.77150321  0.91785064  1
  O  O210  1  0.22128384  0.36575083  0.23868359  1
  O  O211  1  0.21748714  0.36313589  0.57869675  1
  O  O212  1  0.21829267  0.36837894  0.90762651  1
  O  O213  1  0.20675551  0.87965883  0.23048802  1
  O  O214  1  0.24015348  0.87124920  0.58910523  1
  O  O215  1  0.21901429  0.86881454  0.90904056  1
  O  O216  1  0.72656334  0.37230573  0.24920943  1
  O  O217  1  0.71899115  0.37194337  0.57571810  1
  O  O218  1  0.72087890  0.36871162  0.90884750  1
  O  O219  1  0.71174530  0.87269961  0.24025837  1
  O  O220  1  0.71429461  0.86248718  0.57520643  1
  O  O221  1  0.71753336  0.86353293  0.90948906  1
  O  O222  1  0.42055453  0.13346293  0.15175845  1
  O  O223  1  0.41777438  0.13812278  0.48968738  1
  O  O224  1  0.41841108  0.13812681  0.82171031  1
  O  O225  1  0.42396923  0.62681177  0.14520573  1
  O  O226  1  0.41894780  0.63376707  0.48470459  1
  O  O227  1  0.42187521  0.63068266  0.82028504  1
  O  O228  1  0.93190144  0.12508242  0.14807245  1
  O  O229  1  0.91674468  0.13623498  0.48279833  1
  O  O230  1  0.91670611  0.13777685  0.82488660  1
  O  O231  1  0.90788547  0.62685317  0.14869520  1
  O  O232  1  0.91171870  0.62665577  0.48364581  1
  O  O233  1  0.91737781  0.63198140  0.81957754  1
  O  O234  1  0.37054543  0.07227996  0.01705853  1
  O  O235  1  0.37393515  0.09143787  0.35424361  1
  O  O236  1  0.37860241  0.07973823  0.68648649  1
  O  O237  1  0.36740033  0.57857164  0.00959347  1
  O  O238  1  0.36713738  0.58296165  0.34811951  1
  O  O239  1  0.37553404  0.57488752  0.68561787  1
  O  O240  1  0.86568484  0.07838800  0.01457448  1
  O  O241  1  0.86236330  0.08747983  0.34572364  1
  O  O242  1  0.87256022  0.08561175  0.68918018  1
  O  O243  1  0.86329575  0.57975082  0.01295739  1
  O  O244  1  0.85893649  0.58388656  0.34737221  1
  O  O245  1  0.86036998  0.58623690  0.68286666  1
  O  O246  1  0.08262372  0.36876431  0.18344589  1
  O  O247  1  0.08037044  0.36325489  0.51510882  1
  O  O248  1  0.07987178  0.36552220  0.84755220  1
  O  O249  1  0.06650153  0.87238136  0.17905983  1
  O  O250  1  0.10581928  0.86203373  0.51735023  1
  O  O251  1  0.08093956  0.87300063  0.85955255  1
  O  O252  1  0.58860678  0.37761239  0.18707436  1
  O  O253  1  0.58022000  0.37477258  0.52045050  1
  O  O254  1  0.58332532  0.37077038  0.85163648  1
  O  O255  1  0.57422867  0.86325358  0.17722166  1
  O  O256  1  0.57697007  0.86022456  0.51119013  1
  O  O257  1  0.58102094  0.85818583  0.84102073  1
  O  O258  1  0.13920470  0.41818194  0.31921028  1
  O  O259  1  0.12712988  0.40756398  0.65181848  1
  O  O260  1  0.12952376  0.41672710  0.98327284  1
  O  O261  1  0.12849020  0.93018096  0.31411453  1
  O  O262  1  0.14258352  0.92015472  0.65309426  1
  O  O263  1  0.14241806  0.91322456  0.99530834  1
  O  O264  1  0.63690162  0.42433608  0.32249732  1
  O  O265  1  0.63553561  0.42031323  0.65593169  1
  O  O266  1  0.63628345  0.41610436  0.98807493  1
  O  O267  1  0.61979404  0.92343099  0.31181550  1
  O  O268  1  0.62638934  0.91880964  0.64681691  1
  O  O269  1  0.62287968  0.90954365  0.97678714  1
  O  O270  1  0.04140719  0.20583195  0.10498028  1
  O  O271  1  0.03107379  0.20081779  0.43373010  1
  O  O272  1  0.03159451  0.19923907  0.76891078  1
  O  O273  1  0.02356005  0.69901063  0.10064658  1
  O  O274  1  0.06073117  0.69022536  0.44215153  1
  O  O275  1  0.02301228  0.70727987  0.77946044  1
  O  O276  1  0.53255376  0.20301772  0.10537139  1
  O  O277  1  0.52832672  0.20709122  0.43795353  1
  O  O278  1  0.53394638  0.20240567  0.77357457  1
  O  O279  1  0.53666210  0.69948786  0.10640475  1
  O  O280  1  0.52917644  0.69661963  0.43416476  1
  O  O281  1  0.53119347  0.69206006  0.76812857  1
  O  O282  1  0.29455806  0.47161302  0.06171343  1
  O  O283  1  0.30107001  0.46917424  0.39729596  1
  O  O284  1  0.30449019  0.45827521  0.72622501  1
  O  O285  1  0.30526488  0.96229642  0.05880512  1
  O  O286  1  0.29946054  0.97426903  0.39879018  1
  O  O287  1  0.30979449  0.97608405  0.73568462  1
  O  O288  1  0.80042600  0.46851292  0.06385098  1
  O  O289  1  0.80025791  0.46944377  0.39907766  1
  O  O290  1  0.80213569  0.46817743  0.73059139  1
  O  O291  1  0.80411535  0.95979442  0.06411863  1
  O  O292  1  0.78102489  0.97584591  0.38758739  1
  O  O293  1  0.79779228  0.97139384  0.73812416  1
  O  O294  1  0.46991919  0.30352417  0.23518937  1
  O  O295  1  0.47162905  0.30443841  0.56716244  1
  O  O296  1  0.46661003  0.30246858  0.89297598  1
  O  O297  1  0.46568509  0.79380525  0.22541368  1
  O  O298  1  0.46692280  0.79750809  0.55861302  1
  O  O299  1  0.47131283  0.79859684  0.89329201  1
  O  O300  1  0.97135435  0.29792755  0.22897948  1
  O  O301  1  0.96539431  0.29807691  0.56225769  1
  O  O302  1  0.97433662  0.30334735  0.89838076  1
  O  O303  1  0.95395904  0.79805625  0.22299818  1
  O  O304  1  0.97437535  0.79120642  0.57854797  1
  O  O305  1  0.96544028  0.80162513  0.90514254  1
  O  O306  1  0.20047820  0.05113514  0.27727784  1
  O  O307  1  0.20943697  0.03184878  0.60186235  1
  O  O308  1  0.20109513  0.03341449  0.93580377  1
  O  O309  1  0.20770026  0.52332304  0.27082174  1
  O  O310  1  0.20410268  0.52240828  0.59749638  1
  O  O311  1  0.19701391  0.52942486  0.94460862  1
  O  O312  1  0.69602548  0.03812136  0.27557518  1
  O  O313  1  0.68499861  0.03902474  0.60020448  1
  O  O314  1  0.69063328  0.02385653  0.92670042  1
  O  O315  1  0.69941466  0.53324944  0.27060319  1
  O  O316  1  0.70014339  0.53108735  0.60697441  1
  O  O317  1  0.69590731  0.52600657  0.93634212  1
  O  O318  1  0.09812299  0.09436611  0.04240340  1
  O  O319  1  0.10268080  0.09963603  0.37943423  1
  O  O320  1  0.09277143  0.09130051  0.70729623  1
  O  O321  1  0.07977817  0.58721389  0.04091715  1
  O  O322  1  0.09844247  0.57836405  0.35869121  1
  O  O323  1  0.09045850  0.59967683  0.72757244  1
  O  O324  1  0.57015962  0.08495545  0.03190100  1
  O  O325  1  0.58119051  0.09614126  0.37003118  1
  O  O326  1  0.59006337  0.09410011  0.70612061  1
  O  O327  1  0.58341279  0.58421250  0.03752218  1
  O  O328  1  0.58382005  0.58591241  0.36698028  1
  O  O329  1  0.57984876  0.57857112  0.69940213  1
  O  O330  1  0.41538215  0.43124278  0.12900107  1
  O  O331  1  0.40986632  0.41264993  0.46332122  1
  O  O332  1  0.41805407  0.41883888  0.80390613  1
  O  O333  1  0.43403223  0.93173364  0.12537566  1
  O  O334  1  0.40538563  0.90965674  0.45345348  1
  O  O335  1  0.42113787  0.91939383  0.79828054  1
  O  O336  1  0.91254032  0.41412667  0.12912760  1
  O  O337  1  0.91069467  0.41359348  0.46395397  1
  O  O338  1  0.91163771  0.41198736  0.79800351  1
  O  O339  1  0.90663877  0.89988058  0.13306558  1
  O  O340  1  0.89159477  0.91654441  0.44062026  1
  O  O341  1  0.90283097  0.91150648  0.80232952  1
  O  O342  1  0.41306710  0.41272410  0.29601561  1
  O  O343  1  0.41352351  0.41425318  0.62972643  1
  O  O344  1  0.41148021  0.41672512  0.95673326  1
  O  O345  1  0.43008743  0.91484050  0.29586583  1
  O  O346  1  0.41768790  0.90883471  0.63041852  1
  O  O347  1  0.42669531  0.91512934  0.96301518  1
  O  O348  1  0.91298712  0.40843367  0.28949041  1
  O  O349  1  0.91066276  0.40813496  0.62928524  1
  O  O350  1  0.92123464  0.41637359  0.96380048  1
  O  O351  1  0.90426995  0.90974289  0.29269276  1
  O  O352  1  0.92112255  0.91058072  0.62831451  1
  O  O353  1  0.90499857  0.90670046  0.97291361  1
  O  O354  1  0.09018206  0.08758612  0.19205616  1
  O  O355  1  0.10025999  0.09013887  0.54039312  1
  O  O356  1  0.09205133  0.08794876  0.86546544  1
  O  O357  1  0.08673446  0.56291144  0.20451989  1
  O  O358  1  0.09867591  0.58474192  0.53740976  1
  O  O359  1  0.07772701  0.57226527  0.87477289  1
  O  O360  1  0.58484834  0.09549434  0.21252137  1
  O  O361  1  0.57660707  0.09063983  0.52672153  1
  O  O362  1  0.58340049  0.08290294  0.86290014  1
  O  O363  1  0.58794089  0.58647761  0.20352978  1
  O  O364  1  0.59009792  0.58684976  0.54199853  1
  O  O365  1  0.58312475  0.57993798  0.87131668  1
  O  O366  1  0.14783672  0.22755422  0.05882280  1
  O  O367  1  0.13975292  0.23508920  0.39486545  1
  O  O368  1  0.14183623  0.22555407  0.72867665  1
  O  O369  1  0.13498522  0.71868625  0.05783931  1
  O  O370  1  0.14241528  0.71249603  0.37157864  1
  O  O371  1  0.12028336  0.72940763  0.72365960  1
  O  O372  1  0.63868981  0.21397308  0.05624365  1
  O  O373  1  0.63707127  0.22994712  0.39510493  1
  O  O374  1  0.64225342  0.22868228  0.73110770  1
  O  O375  1  0.63737000  0.71671120  0.05216717  1
  O  O376  1  0.63656730  0.72032491  0.38920422  1
  O  O377  1  0.63745823  0.71137238  0.72050904  1
  O  O378  1  0.28764960  0.36545645  0.11199348  1
  O  O379  1  0.27522788  0.36441700  0.44428624  1
  O  O380  1  0.28614539  0.35684719  0.77947861  1
  O  O381  1  0.31676940  0.86518112  0.12336970  1
  O  O382  1  0.27136986  0.86392768  0.43901812  1
  O  O383  1  0.28773797  0.86239382  0.77392504  1
  O  O384  1  0.77884141  0.36300415  0.11197068  1
  O  O385  1  0.77637813  0.36176199  0.44308946  1
  O  O386  1  0.77643778  0.36044704  0.77361790  1
  O  O387  1  0.76963849  0.85401950  0.10553230  1
  O  O388  1  0.76225576  0.86863406  0.43366523  1
  O  O389  1  0.76722728  0.86044976  0.77519918  1
  O  O390  1  0.36325084  0.28026961  0.28189501  1
  O  O391  1  0.36340165  0.27985531  0.61039168  1
  O  O392  1  0.36613227  0.28468636  0.94696428  1
  O  O393  1  0.36088891  0.78764521  0.27869817  1
  O  O394  1  0.36079744  0.77403830  0.60389863  1
  O  O395  1  0.36193766  0.78600988  0.93945633  1
  O  O396  1  0.86094064  0.27459801  0.26981135  1
  O  O397  1  0.86073348  0.27373025  0.61035729  1
  O  O398  1  0.86623442  0.28318365  0.94350353  1
  O  O399  1  0.85137001  0.77725551  0.27186822  1
  O  O400  1  0.86141721  0.78414461  0.61951287  1
  O  O401  1  0.85157533  0.76964662  0.93706498  1
  O  O402  1  0.22354960  0.14724351  0.22188114  1
  O  O403  1  0.23413508  0.14197451  0.56206432  1
  O  O404  1  0.22730481  0.14132143  0.89270125  1
  O  O405  1  0.21401542  0.63364610  0.22524094  1
  O  O406  1  0.23308698  0.63514855  0.56296592  1
  O  O407  1  0.20541205  0.62781265  0.88509372  1
  O  O408  1  0.71814435  0.13766047  0.22195322  1
  O  O409  1  0.71245451  0.14305161  0.55398450  1
  O  O410  1  0.71962206  0.13233625  0.88518157  1
  O  O411  1  0.72110361  0.64032808  0.22384028  1
  O  O412  1  0.72345335  0.64163532  0.56570421  1
  O  O413  1  0.71662573  0.63466933  0.89223461  1
  O  O414  1  0.49873235  0.34840515  0.02827749  1
  O  O415  1  0.49278563  0.33934862  0.36926763  1
  O  O416  1  0.49224486  0.33873302  0.70050573  1
  O  O417  1  0.49488395  0.82722475  0.02627251  1
  O  O418  1  0.49467044  0.82815101  0.36099348  1
  O  O419  1  0.49161746  0.82455931  0.69196422  1
  O  O420  1  0.99665365  0.33608316  0.03173681  1
  O  O421  1  0.98906082  0.33161493  0.36156519  1
  O  O422  1  0.99166499  0.33188431  0.69641729  1
  O  O423  1  0.97742849  0.82088019  0.03482946  1
  O  O424  1  0.98383222  0.82793175  0.35704179  1
  O  O425  1  0.98936087  0.84114763  0.71180864  1
  O  O426  1  0.18185790  0.01035167  0.14388227  1
  O  O427  1  0.17792052  0.01433868  0.46899806  1
  O  O428  1  0.17565118  0.01072448  0.80358263  1
  O  O429  1  0.17211262  0.50313562  0.13624513  1
  O  O430  1  0.17760071  0.50917103  0.46688657  1
  O  O431  1  0.15561745  0.49087391  0.80942835  1
  O  O432  1  0.65214804  0.00664527  0.14028173  1
  O  O433  1  0.65904713  0.01212751  0.46652995  1
  O  O434  1  0.65892240  0.00491826  0.79280990  1
  O  O435  1  0.66718160  0.50835572  0.13736039  1
  O  O436  1  0.67112568  0.51186077  0.47491356  1
  O  O437  1  0.66296331  0.50513700  0.80324822  1
  O  O438  1  0.01577778  0.16656945  0.30208176  1
  O  O439  1  0.01360509  0.16810025  0.63661578  1
  O  O440  1  0.01745466  0.17012263  0.97186957  1
  O  O441  1  0.00574504  0.65284839  0.30470431  1
  O  O442  1  -0.00553144  0.65138866  0.64453093  1
  O  O443  1  0.00552967  0.66264321  0.96716283  1
  O  O444  1  0.50655104  0.17853936  0.30490573  1
  O  O445  1  0.51215122  0.17629248  0.64145341  1
  O  O446  1  0.50605203  0.17547144  0.97167637  1
  O  O447  1  0.50568222  0.66512211  0.30093810  1
  O  O448  1  0.50588899  0.65992899  0.63353214  1
  O  O449  1  0.50448830  0.66148449  0.97060946  1
  O  O450  1  0.33290727  0.49836888  0.19737624  1
  O  O451  1  0.33599758  0.49359286  0.53231224  1
  O  O452  1  0.32909955  0.49261790  0.86013959  1
  O  O453  1  0.35611203  1.00504224  0.19558006  1
  O  O454  1  0.33757354  0.99026755  0.53131719  1
  O  O455  1  0.33945426  0.99124545  0.86692348  1
  O  O456  1  0.83657947  0.49415891  0.19807631  1
  O  O457  1  0.83329896  0.49197127  0.53230153  1
  O  O458  1  0.83110175  0.48992011  0.86331119  1
  O  O459  1  0.82463276  0.98378066  0.19452168  1
  O  O460  1  0.82373187  0.99666914  0.52185221  1
  O  O461  1  0.82297404  0.98770572  0.86974657  1
