# generated using pymatgen
data_Na31Fe20(SO4)36
_symmetry_space_group_name_H-M   'P 1'
_cell_length_a   18.06681651
_cell_length_b   18.07233734
_cell_length_c   19.70337041
_cell_angle_alpha   107.57969080
_cell_angle_beta   107.54951122
_cell_angle_gamma   90.77438716
_symmetry_Int_Tables_number   1
_chemical_formula_structural   Na31Fe20(SO4)36
_chemical_formula_sum   'Na62 Fe40 S72 O288'
_cell_volume   5808.60415311
_cell_formula_units_Z   2
loop_
 _symmetry_equiv_pos_site_id
 _symmetry_equiv_pos_as_xyz
  1  'x, y, z'
loop_
 _atom_site_type_symbol
 _atom_site_label
 _atom_site_symmetry_multiplicity
 _atom_site_fract_x
 _atom_site_fract_y
 _atom_site_fract_z
 _atom_site_occupancy
  Na  Na0  1  0.14139430  0.35947169  0.08505342  1
  Na  Na1  1  0.12677675  0.37417051  0.42055902  1
  Na  Na2  1  0.11283755  0.34022448  0.73095781  1
  Na  Na3  1  0.13485318  0.86494418  0.08284996  1
  Na  Na4  1  0.13331375  0.87302679  0.42331999  1
  Na  Na5  1  0.10897521  0.80658726  0.70521628  1
  Na  Na6  1  0.63707166  0.36571847  0.08725534  1
  Na  Na7  1  0.63820760  0.36723006  0.42752413  1
  Na  Na8  1  0.63638165  0.36313183  0.74722221  1
  Na  Na9  1  0.63334380  0.87691007  0.08862786  1
  Na  Na10  1  0.64845807  0.87060561  0.42010927  1
  Na  Na11  1  0.63927398  0.87124207  0.74652815  1
  Na  Na12  1  0.36266347  0.13869709  0.24678922  1
  Na  Na13  1  0.36597386  0.13671155  0.58833258  1
  Na  Na14  1  0.35678346  0.13936195  0.91069192  1
  Na  Na15  1  0.36758875  0.63818926  0.25343361  1
  Na  Na16  1  0.36472720  0.64059340  0.59089612  1
  Na  Na17  1  0.36360653  0.63152616  0.90978352  1
  Na  Na18  1  0.86819282  0.12761383  0.24769652  1
  Na  Na19  1  0.86497236  0.12997261  0.57133853  1
  Na  Na20  1  0.85911626  0.12842597  0.90083998  1
  Na  Na21  1  0.87519023  0.62987253  0.25492231  1
  Na  Na22  1  0.88075573  0.63045497  0.59367623  1
  Na  Na23  1  0.86203015  0.62960667  0.90990538  1
  Na  Na24  1  0.99115419  0.49875399  0.10105333  1
  Na  Na25  1  0.94625430  0.49018047  0.71174351  1
  Na  Na26  1  0.93866971  0.01302502  0.38901781  1
  Na  Na27  1  0.99207934  -0.00063786  0.74986671  1
  Na  Na28  1  0.48595801  0.50970459  0.08236629  1
  Na  Na29  1  0.52139663  -0.00516929  0.40963591  1
  Na  Na30  1  0.48915795  0.50747926  0.74825260  1
  Na  Na31  1  0.48942604  0.51078896  0.41361133  1
  Na  Na32  1  0.98332311  0.00704786  0.09358351  1
  Na  Na33  1  0.51706697  0.48780906  0.25103836  1
  Na  Na34  1  0.54380975  0.99693492  0.60730433  1
  Na  Na35  1  0.01181802  0.95214086  0.90221092  1
  Na  Na36  1  0.54988026  0.99875107  0.25130558  1
  Na  Na37  1  0.50594613  0.99359436  0.91261445  1
  Na  Na38  1  0.51940468  0.49292968  0.58330240  1
  Na  Na39  1  0.51368905  0.48739816  0.91832396  1
  Na  Na40  1  0.01038697  0.45087297  0.90004455  1
  Na  Na41  1  0.00537673  1.01093697  0.57601188  1
  Na  Na42  1  0.77503623  0.25759168  0.66500657  1
  Na  Na43  1  0.24301680  0.74640523  0.34520654  1
  Na  Na44  1  0.23603426  0.23889672  0.67765591  1
  Na  Na45  1  0.75096180  0.24653815  -0.00238920  1
  Na  Na46  1  0.75844878  0.75676740  0.32800112  1
  Na  Na47  1  0.24840420  0.25002501  0.00053103  1
  Na  Na48  1  0.73977419  0.23186308  0.33896562  1
  Na  Na49  1  0.24992494  0.25522948  0.32934552  1
  Na  Na50  1  0.75918377  0.75879488  -0.00841019  1
  Na  Na51  1  0.25955442  0.76071585  -0.00258350  1
  Na  Na52  1  0.74478024  0.24273916  0.17165269  1
  Na  Na53  1  0.76043201  0.77129923  0.16458791  1
  Na  Na54  1  0.76294687  0.26817532  0.50494125  1
  Na  Na55  1  0.25304833  0.75079558  0.81999042  1
  Na  Na56  1  0.23156426  0.74087067  0.51869431  1
  Na  Na57  1  0.24831530  0.74796221  0.16935523  1
  Na  Na58  1  0.76834953  0.76150677  0.81139153  1
  Na  Na59  1  0.23139303  0.24134492  0.50796495  1
  Na  Na60  1  0.75706547  0.25080720  0.82648855  1
  Na  Na61  1  0.75167236  0.74218019  0.51710202  1
  Fe  Fe62  1  0.46682312  0.80871816  0.11971382  1
  Fe  Fe63  1  0.46170766  0.30623822  0.78354046  1
  Fe  Fe64  1  0.46112087  0.30877584  0.45034746  1
  Fe  Fe65  1  0.96403060  0.81608413  0.13101000  1
  Fe  Fe66  1  0.46293257  0.30747993  0.11450532  1
  Fe  Fe67  1  0.96764125  0.80308274  0.46380826  1
  Fe  Fe68  1  0.46323517  0.80399330  0.78102324  1
  Fe  Fe69  1  0.46659539  0.80913243  0.45281363  1
  Fe  Fe70  1  0.96857378  0.30898136  0.12601061  1
  Fe  Fe71  1  0.96673082  0.30663341  0.46094238  1
  Fe  Fe72  1  0.18916245  0.53714274  0.38462996  1
  Fe  Fe73  1  0.69980548  0.53352238  0.71477227  1
  Fe  Fe74  1  0.69479363  0.53619085  0.05242444  1
  Fe  Fe75  1  0.69998621  0.53414443  0.38961101  1
  Fe  Fe76  1  0.69294462  0.03610496  0.04549512  1
  Fe  Fe77  1  0.18735420  0.03694194  0.37977484  1
  Fe  Fe78  1  0.19206914  0.53588716  0.04125374  1
  Fe  Fe79  1  0.16780473  0.54773941  0.70071691  1
  Fe  Fe80  1  0.19410754  0.03201847  0.71569979  1
  Fe  Fe81  1  0.19067677  0.03727064  0.04615186  1
  Fe  Fe82  1  0.03100570  0.69625608  0.87965382  1
  Fe  Fe83  1  0.03914541  0.19402650  0.21368156  1
  Fe  Fe84  1  0.53029780  0.19382841  0.21123345  1
  Fe  Fe85  1  0.03807994  0.69342061  0.21491286  1
  Fe  Fe86  1  0.03297276  0.19588253  0.87754888  1
  Fe  Fe87  1  0.53375008  0.69179293  0.21531413  1
  Fe  Fe88  1  0.53810254  0.69309938  0.88279085  1
  Fe  Fe89  1  0.53503281  0.18931188  0.54721974  1
  Fe  Fe90  1  0.53679447  0.69485321  0.54986781  1
  Fe  Fe91  1  0.53672904  0.18692456  0.87503619  1
  Fe  Fe92  1  0.30948414  0.96832625  0.28816627  1
  Fe  Fe93  1  0.30461545  0.46329055  0.94431116  1
  Fe  Fe94  1  0.30721581  0.46691174  0.28379776  1
  Fe  Fe95  1  0.81542500  0.46401129  0.29307280  1
  Fe  Fe96  1  0.31050724  0.96570790  0.95412982  1
  Fe  Fe97  1  0.79904425  0.97199975  0.62500501  1
  Fe  Fe98  1  0.30337678  0.46730029  0.61562085  1
  Fe  Fe99  1  0.31025377  0.96389790  0.61823515  1
  Fe  Fe100  1  0.80495707  0.96672265  0.94616643  1
  Fe  Fe101  1  0.80782632  0.46490753  0.95460455  1
  S  S102  1  0.35713397  0.14229220  0.08023981  1
  S  S103  1  0.35664199  0.14350560  0.41759527  1
  S  S104  1  0.36016779  0.13724466  0.75013447  1
  S  S105  1  0.36048588  0.64002167  0.08018138  1
  S  S106  1  0.35977914  0.64213880  0.41708122  1
  S  S107  1  0.36539505  0.63471894  0.75229692  1
  S  S108  1  0.86228966  0.14088910  0.08230294  1
  S  S109  1  0.85553421  0.14738071  0.41280255  1
  S  S110  1  0.86385349  0.14004565  0.75186470  1
  S  S111  1  0.85992292  0.64134433  0.08639330  1
  S  S112  1  0.85805088  0.64083022  0.41818922  1
  S  S113  1  0.86025227  0.64150220  0.75648732  1
  S  S114  1  0.14341154  0.36307214  0.24938092  1
  S  S115  1  0.14232589  0.36390328  0.58335708  1
  S  S116  1  0.14649910  0.35951080  0.92038029  1
  S  S117  1  0.14493525  0.85952987  0.25121612  1
  S  S118  1  0.14184854  0.86087140  0.58278762  1
  S  S119  1  0.14697248  0.85738376  0.91965836  1
  S  S120  1  0.63818637  0.36160892  0.25053474  1
  S  S121  1  0.63304338  0.36105929  0.58488604  1
  S  S122  1  0.63943615  0.36081347  0.91829342  1
  S  S123  1  0.63767193  0.85564099  0.25241112  1
  S  S124  1  0.64014038  0.85625642  0.57789379  1
  S  S125  1  0.63877814  0.85840274  0.91304696  1
  S  S126  1  0.06726681  0.16968905  0.04041855  1
  S  S127  1  0.07051249  0.17777458  0.37508534  1
  S  S128  1  0.06591799  0.15680876  0.70815335  1
  S  S129  1  0.06769410  0.67090212  0.04371377  1
  S  S130  1  0.07015104  0.67743373  0.37876572  1
  S  S131  1  0.05829832  0.65353004  0.71107735  1
  S  S132  1  0.56691600  0.17461371  0.04060504  1
  S  S133  1  0.55872837  0.17264396  0.37580103  1
  S  S134  1  0.56569933  0.17555422  0.71361470  1
  S  S135  1  0.56725916  0.66754450  0.04341477  1
  S  S136  1  0.56539821  0.66683097  0.37611504  1
  S  S137  1  0.56855852  0.66784358  0.71033650  1
  S  S138  1  0.33468601  0.43966423  0.12428565  1
  S  S139  1  0.33387564  0.43869967  0.45693408  1
  S  S140  1  0.33576662  0.43067458  0.78956565  1
  S  S141  1  0.33435704  0.93514945  0.12737400  1
  S  S142  1  0.33744598  0.93632851  0.45776377  1
  S  S143  1  0.32990926  0.92761046  0.79166805  1
  S  S144  1  0.82832932  0.43168722  0.12471303  1
  S  S145  1  0.82696950  0.42869115  0.45517753  1
  S  S146  1  0.82697580  0.43175006  0.79331481  1
  S  S147  1  0.82530870  0.93609680  0.11975439  1
  S  S148  1  0.83359258  0.92821359  0.46124578  1
  S  S149  1  0.82897604  0.93632065  0.78778459  1
  S  S150  1  0.43358723  0.33523169  0.29231824  1
  S  S151  1  0.42896027  0.33379203  0.62315350  1
  S  S152  1  0.43519088  0.33476123  0.95918339  1
  S  S153  1  0.43141990  0.82943053  0.28968962  1
  S  S154  1  0.43360841  0.82953447  0.62062271  1
  S  S155  1  0.43410745  0.82775461  0.95467837  1
  S  S156  1  0.93143684  0.32389270  0.28954636  1
  S  S157  1  0.92634563  0.32794258  0.61549727  1
  S  S158  1  0.93456766  0.33225700  0.96355350  1
  S  S159  1  0.93211126  0.82387544  0.29166302  1
  S  S160  1  0.92943021  0.83683144  0.62803648  1
  S  S161  1  0.93561578  0.83133364  0.96360474  1
  S  S162  1  0.17144191  0.06666460  0.20912388  1
  S  S163  1  0.17219234  0.06467979  0.54337819  1
  S  S164  1  0.17132456  0.06288140  0.87894785  1
  S  S165  1  0.17462519  0.56958017  0.20822824  1
  S  S166  1  0.17288402  0.57103545  0.54473417  1
  S  S167  1  0.17379182  0.57530877  0.87721328  1
  S  S168  1  0.65963297  0.07136514  0.20064978  1
  S  S169  1  0.66853799  0.06602135  0.54248339  1
  S  S170  1  0.66600976  0.06425144  0.87620836  1
  S  S171  1  0.66583438  0.56520881  0.20970648  1
  S  S172  1  0.66232730  0.56696018  0.54078716  1
  S  S173  1  0.66713140  0.56471090  0.87869268  1
  O  O174  1  0.36806844  0.22174608  0.07218991  1
  O  O175  1  0.36448164  0.22269284  0.40895438  1
  O  O176  1  0.36642592  0.21485549  0.73798771  1
  O  O177  1  0.37147630  0.71914037  0.07305121  1
  O  O178  1  0.37074332  0.71967798  0.40634692  1
  O  O179  1  0.37211199  0.71395662  0.74492032  1
  O  O180  1  0.87195672  0.22189619  0.07882671  1
  O  O181  1  0.87583539  0.22943776  0.40702593  1
  O  O182  1  0.87806902  0.21592918  0.74376025  1
  O  O183  1  0.86955022  0.72316815  0.08468885  1
  O  O184  1  0.87082181  0.72106645  0.40956144  1
  O  O185  1  0.86624531  0.72155060  0.75637641  1
  O  O186  1  0.27734330  0.13237560  0.08502360  1
  O  O187  1  0.27751498  0.13326198  0.42485232  1
  O  O188  1  0.28242710  0.12613133  0.75933458  1
  O  O189  1  0.28089129  0.63250422  0.08731138  1
  O  O190  1  0.27883889  0.63433754  0.42023264  1
  O  O191  1  0.29085744  0.62188730  0.76539007  1
  O  O192  1  0.78410089  0.13229134  0.09212417  1
  O  O193  1  0.77855033  0.15273557  0.42384647  1
  O  O194  1  0.79232697  0.13316179  0.77128801  1
  O  O195  1  0.78200663  0.63217454  0.09723709  1
  O  O196  1  0.77410300  0.63488627  0.41804078  1
  O  O197  1  0.78478916  0.62642956  0.77316451  1
  O  O198  1  0.13450136  0.28236344  0.25324738  1
  O  O199  1  0.14130769  0.28716967  0.59362466  1
  O  O200  1  0.13229734  0.28391779  0.93316964  1
  O  O201  1  0.13887936  0.77860184  0.25606648  1
  O  O202  1  0.13737142  0.78326884  0.59002250  1
  O  O203  1  0.13248615  0.78043223  0.93129204  1
  O  O204  1  0.62829062  0.28288297  0.25843261  1
  O  O205  1  0.62075945  0.28397094  0.59643247  1
  O  O206  1  0.62851722  0.28216472  0.92587300  1
  O  O207  1  0.62484525  0.77532080  0.26020653  1
  O  O208  1  0.63465056  0.77374892  0.57762342  1
  O  O209  1  0.63124094  0.78022054  0.92442985  1
  O  O210  1  0.22099552  0.37393099  0.23914133  1
  O  O211  1  0.21531837  0.37631671  0.56322136  1
  O  O212  1  0.23007914  0.36733914  0.92399025  1
  O  O213  1  0.22265013  0.87097515  0.24066014  1
  O  O214  1  0.21684531  0.87501864  0.56715364  1
  O  O215  1  0.23167132  0.86302459  0.92369729  1
  O  O216  1  0.71447615  0.36975719  0.23753925  1
  O  O217  1  0.70775265  0.36709918  0.57246676  1
  O  O218  1  0.71904493  0.36837292  0.91138190  1
  O  O219  1  0.71633493  0.86324791  0.24807408  1
  O  O220  1  0.72012989  0.87203193  0.57226022  1
  O  O221  1  0.71818592  0.86681090  0.90601133  1
  O  O222  1  0.41420173  0.13766056  0.15042163  1
  O  O223  1  0.41545802  0.13658937  0.48612413  1
  O  O224  1  0.41990276  0.13445547  0.82007531  1
  O  O225  1  0.41845698  0.63075563  0.14876035  1
  O  O226  1  0.41625078  0.63564574  0.48700160  1
  O  O227  1  0.42944613  0.62578975  0.81827057  1
  O  O228  1  0.92307909  0.12839074  0.14732706  1
  O  O229  1  0.91472763  0.13077945  0.47468516  1
  O  O230  1  0.92996427  0.12300529  0.81214213  1
  O  O231  1  0.92113758  0.62656017  0.14971712  1
  O  O232  1  0.91121103  0.63331278  0.48594796  1
  O  O233  1  0.92391727  0.62976330  0.82298848  1
  O  O234  1  0.36780806  0.08371683  0.01321367  1
  O  O235  1  0.36548862  0.08543587  0.34935429  1
  O  O236  1  0.37049334  0.07719492  0.68392211  1
  O  O237  1  0.36979799  0.58058374  0.01297937  1
  O  O238  1  0.37162442  0.58104703  0.35127105  1
  O  O239  1  0.37461825  0.57682857  0.68364126  1
  O  O240  1  0.86808441  0.08438825  0.01204051  1
  O  O241  1  0.85385587  0.09162065  0.34035774  1
  O  O242  1  0.86139556  0.07699322  0.67885058  1
  O  O243  1  0.86315379  0.58611372  0.01452985  1
  O  O244  1  0.86380294  0.58302490  0.34784009  1
  O  O245  1  0.86292365  0.58347449  0.68736599  1
  O  O246  1  0.08236877  0.37350416  0.18362994  1
  O  O247  1  0.07639864  0.36958938  0.51730884  1
  O  O248  1  0.09427342  0.36688952  0.85076495  1
  O  O249  1  0.08369070  0.86726157  0.18466212  1
  O  O250  1  0.07730648  0.86866742  0.51578929  1
  O  O251  1  0.09630069  0.86464490  0.84962873  1
  O  O252  1  0.57572094  0.37100330  0.18406703  1
  O  O253  1  0.56977816  0.37126260  0.51871107  1
  O  O254  1  0.58102741  0.37226486  0.85149340  1
  O  O255  1  0.58019075  0.85994392  0.17943181  1
  O  O256  1  0.58243188  0.86524113  0.50820222  1
  O  O257  1  0.57983752  0.86303206  0.84353968  1
  O  O258  1  0.13856780  0.41900357  0.32035751  1
  O  O259  1  0.14098149  0.42451049  0.65314126  1
  O  O260  1  0.13352284  0.42224175  0.98619260  1
  O  O261  1  0.13936145  0.91566593  0.32141224  1
  O  O262  1  0.13561522  0.92052687  0.65104550  1
  O  O263  1  0.13474497  0.91903249  0.98582253  1
  O  O264  1  0.63141012  0.42145467  0.31885841  1
  O  O265  1  0.62568787  0.42287538  0.65275344  1
  O  O266  1  0.63178209  0.42037517  0.98698590  1
  O  O267  1  0.62117561  0.91399394  0.31472001  1
  O  O268  1  0.62695200  0.90958880  0.64400950  1
  O  O269  1  0.62757532  0.91859031  0.97874316  1
  O  O270  1  0.03268912  0.20161597  0.10336952  1
  O  O271  1  0.03373484  0.21128004  0.43337583  1
  O  O272  1  0.05223540  0.19255285  0.78085677  1
  O  O273  1  0.03026576  0.69857113  0.10416833  1
  O  O274  1  0.02849389  0.70746574  0.43413006  1
  O  O275  1  0.04225780  0.69463713  0.78215811  1
  O  O276  1  0.53076170  0.20518291  0.10197697  1
  O  O277  1  0.52339048  0.20666353  0.43824505  1
  O  O278  1  0.52742855  0.21123442  0.77438428  1
  O  O279  1  0.53095537  0.69702536  0.10419997  1
  O  O280  1  0.52586381  0.69585770  0.43461205  1
  O  O281  1  0.53157122  0.69947957  0.77081379  1
  O  O282  1  0.30645051  0.47780521  0.06486646  1
  O  O283  1  0.30212144  0.47457985  0.39573575  1
  O  O284  1  0.31257328  0.46120733  0.72602192  1
  O  O285  1  0.30629776  0.97238863  0.06725143  1
  O  O286  1  0.30574105  0.97258565  0.39669424  1
  O  O287  1  0.30080493  0.96183682  0.72926336  1
  O  O288  1  0.80029581  0.47109045  0.06494624  1
  O  O289  1  0.79678652  0.46248533  0.38911083  1
  O  O290  1  0.78954752  0.46369563  0.73213850  1
  O  O291  1  0.79727968  0.96757983  0.05335720  1
  O  O292  1  0.82151477  0.96657812  0.40498224  1
  O  O293  1  0.79573194  0.96920622  0.72534544  1
  O  O294  1  0.46599541  0.30214224  0.22893970  1
  O  O295  1  0.46110046  0.29989241  0.56042505  1
  O  O296  1  0.46820988  0.30316847  0.89657565  1
  O  O297  1  0.46324934  0.79641510  0.22593398  1
  O  O298  1  0.47315172  0.79854578  0.56096659  1
  O  O299  1  0.47183835  0.79708940  0.89448987  1
  O  O300  1  0.97511957  0.29696875  0.23285318  1
  O  O301  1  0.96781116  0.29898761  0.55697053  1
  O  O302  1  0.97075153  0.30404954  0.90433110  1
  O  O303  1  0.97709758  0.79410723  0.23551825  1
  O  O304  1  0.96356270  0.81256515  0.56434676  1
  O  O305  1  0.97657343  0.80271828  0.90762085  1
  O  O306  1  0.19746651  0.02869023  0.26962588  1
  O  O307  1  0.20968482  0.03114289  0.60592164  1
  O  O308  1  0.20348683  0.02398594  0.93917487  1
  O  O309  1  0.20232277  0.53418670  0.26994203  1
  O  O310  1  0.20845968  0.53643760  0.60862988  1
  O  O311  1  0.20246606  0.52928453  0.93217261  1
  O  O312  1  0.67846464  0.03629850  0.25969877  1
  O  O313  1  0.70042612  0.03007629  0.60368423  1
  O  O314  1  0.70202990  0.03249407  0.94194254  1
  O  O315  1  0.69423467  0.52995230  0.27049823  1
  O  O316  1  0.68363255  0.53601956  0.60394513  1
  O  O317  1  0.69703441  0.52887691  0.94046718  1
  O  O318  1  0.08082425  0.08645769  0.03565275  1
  O  O319  1  0.09269960  0.09930473  0.37818245  1
  O  O320  1  0.08699289  0.07382190  0.70385452  1
  O  O321  1  0.08438425  0.58830108  0.03596307  1
  O  O322  1  0.09532443  0.60065086  0.38161915  1
  O  O323  1  0.04569266  0.56653613  0.69278008  1
  O  O324  1  0.58361076  0.09282984  0.03235713  1
  O  O325  1  0.56722330  0.09044265  0.36911961  1
  O  O326  1  0.58054456  0.09727939  0.71453588  1
  O  O327  1  0.58254849  0.58418504  0.03807815  1
  O  O328  1  0.58225934  0.58432795  0.37122158  1
  O  O329  1  0.58427029  0.58573475  0.70780817  1
  O  O330  1  0.41792597  0.42304561  0.12970320  1
  O  O331  1  0.41729268  0.42436779  0.46128145  1
  O  O332  1  0.42158631  0.41641650  0.80325417  1
  O  O333  1  0.41558254  0.91555142  0.13405265  1
  O  O334  1  0.41944782  0.91928532  0.46089717  1
  O  O335  1  0.41185334  0.90834114  0.79681689  1
  O  O336  1  0.90971236  0.41456331  0.12974943  1
  O  O337  1  0.90409613  0.40048545  0.45361532  1
  O  O338  1  0.90819155  0.42218630  0.79679394  1
  O  O339  1  0.90664515  0.91492576  0.12377111  1
  O  O340  1  0.91772014  0.90657866  0.47927497  1
  O  O341  1  0.91134113  0.92584736  0.79636370  1
  O  O342  1  0.41794664  0.41799482  0.29430932  1
  O  O343  1  0.41471545  0.41667283  0.62640766  1
  O  O344  1  0.41764102  0.41735415  0.96204401  1
  O  O345  1  0.41598091  0.91184814  0.29607900  1
  O  O346  1  0.41703401  0.91034854  0.62322373  1
  O  O347  1  0.41572415  0.90830377  0.95758636  1
  O  O348  1  0.91077722  0.40275160  0.28983950  1
  O  O349  1  0.88497869  0.39404170  0.60245907  1
  O  O350  1  0.91798392  0.41606228  0.97072783  1
  O  O351  1  0.91310771  0.90103810  0.28998063  1
  O  O352  1  0.89644492  0.91468845  0.62976156  1
  O  O353  1  0.91696774  0.91312148  0.96566620  1
  O  O354  1  0.08946187  0.08503129  0.20001624  1
  O  O355  1  0.09037456  0.07229912  0.53648617  1
  O  O356  1  0.08918353  0.07645495  0.87533731  1
  O  O357  1  0.09264453  0.58767856  0.20016942  1
  O  O358  1  0.09691770  0.59181760  0.54581884  1
  O  O359  1  0.09581532  0.59691237  0.88121794  1
  O  O360  1  0.57621213  0.09145606  0.18733071  1
  O  O361  1  0.58646670  0.08529905  0.54476938  1
  O  O362  1  0.58625709  0.08438067  0.88051338  1
  O  O363  1  0.58147265  0.57961559  0.20183575  1
  O  O364  1  0.57727533  0.58443662  0.52860624  1
  O  O365  1  0.58361352  0.57966864  0.87326524  1
  O  O366  1  0.13965092  0.21855142  0.05569167  1
  O  O367  1  0.14093845  0.23031387  0.38692008  1
  O  O368  1  0.13202134  0.20423151  0.70657882  1
  O  O369  1  0.14035767  0.72277226  0.06289799  1
  O  O370  1  0.13931448  0.73382246  0.39486993  1
  O  O371  1  0.14510403  0.67176306  0.72553288  1
  O  O372  1  0.63977043  0.22623770  0.05878900  1
  O  O373  1  0.63214248  0.22192021  0.39321388  1
  O  O374  1  0.63664263  0.22830157  0.73018224  1
  O  O375  1  0.63931497  0.71707641  0.05822102  1
  O  O376  1  0.63626748  0.71839332  0.39266984  1
  O  O377  1  0.63896238  0.71847064  0.72415009  1
  O  O378  1  0.28441667  0.36800999  0.10779027  1
  O  O379  1  0.28585507  0.36556370  0.44103796  1
  O  O380  1  0.28674545  0.35983533  0.77766692  1
  O  O381  1  0.28097927  0.86386165  0.11038658  1
  O  O382  1  0.28674825  0.86451116  0.44211347  1
  O  O383  1  0.27786576  0.85909896  0.78061431  1
  O  O384  1  0.77568826  0.35966227  0.10449339  1
  O  O385  1  0.76898843  0.36075104  0.43771598  1
  O  O386  1  0.78037535  0.35732241  0.78130611  1
  O  O387  1  0.77241183  0.86337944  0.10120280  1
  O  O388  1  0.77942643  0.85636577  0.43917350  1
  O  O389  1  0.77878667  0.86521238  0.77436189  1
  O  O390  1  0.36292256  0.28730343  0.28276950  1
  O  O391  1  0.35696744  0.28574964  0.61220781  1
  O  O392  1  0.36649780  0.28491334  0.95067555  1
  O  O393  1  0.35969342  0.77942234  0.27668435  1
  O  O394  1  0.36242848  0.77741591  0.60275017  1
  O  O395  1  0.36326710  0.77411130  0.93721442  1
  O  O396  1  0.86139013  0.26799931  0.26718232  1
  O  O397  1  0.86795361  0.26266543  0.60499279  1
  O  O398  1  0.86167958  0.28254013  0.94851226  1
  O  O399  1  0.86237388  0.76618014  0.26862523  1
  O  O400  1  0.86705840  0.77656284  0.61464288  1
  O  O401  1  0.86317002  0.77931024  0.94514396  1
  O  O402  1  0.22503302  0.13714068  0.22814763  1
  O  O403  1  0.22040937  0.13947240  0.55996734  1
  O  O404  1  0.22146046  0.13630434  0.89922587  1
  O  O405  1  0.22728843  0.64153693  0.22615431  1
  O  O406  1  0.23085327  0.63591247  0.55582230  1
  O  O407  1  0.23067539  0.64523989  0.90058996  1
  O  O408  1  0.71285576  0.14255219  0.21646672  1
  O  O409  1  0.71769276  0.13855867  0.55727322  1
  O  O410  1  0.71579577  0.13691706  0.89076236  1
  O  O411  1  0.71460858  0.63719219  0.22326833  1
  O  O412  1  0.71378116  0.63529850  0.55158730  1
  O  O413  1  0.71636351  0.63768226  0.89632074  1
  O  O414  1  0.49789019  0.34333361  0.03261042  1
  O  O415  1  0.49551989  0.34207631  0.36503928  1
  O  O416  1  0.48972845  0.33878496  0.69615564  1
  O  O417  1  0.49220784  0.82986626  0.02768400  1
  O  O418  1  0.49266117  0.83051361  0.36059734  1
  O  O419  1  0.49172420  0.83033847  0.69322522  1
  O  O420  1  0.99294006  0.33677563  0.03821228  1
  O  O421  1  0.98688699  0.32705628  0.36412261  1
  O  O422  1  0.98671530  0.35055836  0.68956804  1
  O  O423  1  0.99098651  0.83714542  0.03972370  1
  O  O424  1  0.98520362  0.82586407  0.36762545  1
  O  O425  1  0.99424807  0.85345570  0.69816316  1
  O  O426  1  0.17143625  0.00757171  0.13688820  1
  O  O427  1  0.17813219  0.00797552  0.47158633  1
  O  O428  1  0.17273099  0.00624403  0.80738233  1
  O  O429  1  0.17446455  0.51079215  0.13633614  1
  O  O430  1  0.17063844  0.50711940  0.47301920  1
  O  O431  1  0.16914410  0.52292277  0.80182889  1
  O  O432  1  0.66046824  0.01254540  0.12744660  1
  O  O433  1  0.65761836  0.00741021  0.46910760  1
  O  O434  1  0.65937019  0.00353503  0.80689869  1
  O  O435  1  0.66380084  0.50569845  0.13656073  1
  O  O436  1  0.65967303  0.50354432  0.46937020  1
  O  O437  1  0.66498718  0.50667621  0.80624441  1
  O  O438  1  0.01265644  0.16698676  0.29884659  1
  O  O439  1  -0.00448168  0.14619105  0.64373307  1
  O  O440  1  0.00737104  0.16975475  0.96905572  1
  O  O441  1  0.01456245  0.66645828  0.30145962  1
  O  O442  1  0.01238277  0.68154325  0.65165369  1
  O  O443  1  0.01015547  0.67301578  0.97205198  1
  O  O444  1  0.50153625  0.17661048  0.30377812  1
  O  O445  1  0.50676670  0.17480311  0.64066332  1
  O  O446  1  0.50776337  0.17682856  0.96975746  1
  O  O447  1  0.50620299  0.66247145  0.30200710  1
  O  O448  1  0.50852542  0.66293655  0.63672875  1
  O  O449  1  0.50788625  0.66499397  0.97083403  1
  O  O450  1  0.33830851  0.49797020  0.19822877  1
  O  O451  1  0.33668332  0.49720751  0.52967245  1
  O  O452  1  0.33515284  0.49326089  0.86004922  1
  O  O453  1  0.33520306  0.99399744  0.19994677  1
  O  O454  1  0.34050622  0.99486664  0.53066267  1
  O  O455  1  0.33694250  0.99093920  0.86440892  1
  O  O456  1  0.82719122  0.48884044  0.19664962  1
  O  O457  1  0.83200882  0.49252111  0.52211721  1
  O  O458  1  0.82680410  0.49011600  0.86745269  1
  O  O459  1  0.82551930  0.99574389  0.18765302  1
  O  O460  1  0.82687933  0.98487692  0.53339765  1
  O  O461  1  0.82653209  0.99560897  0.86063597  1
