# generated using pymatgen
data_Na31Fe20(SO4)36
_symmetry_space_group_name_H-M   'P 1'
_cell_length_a   18.06912067
_cell_length_b   18.06825728
_cell_length_c   19.70437680
_cell_angle_alpha   107.59871189
_cell_angle_beta   107.58471153
_cell_angle_gamma   90.68024081
_symmetry_Int_Tables_number   1
_chemical_formula_structural   Na31Fe20(SO4)36
_chemical_formula_sum   'Na62 Fe40 S72 O288'
_cell_volume   5807.58079458
_cell_formula_units_Z   2
loop_
 _symmetry_equiv_pos_site_id
 _symmetry_equiv_pos_as_xyz
  1  'x, y, z'
loop_
 _atom_site_type_symbol
 _atom_site_label
 _atom_site_symmetry_multiplicity
 _atom_site_fract_x
 _atom_site_fract_y
 _atom_site_fract_z
 _atom_site_occupancy
  Na  Na0  1  0.13467905  0.37340533  0.08511496  1
  Na  Na1  1  0.13621276  0.35845051  0.40967476  1
  Na  Na2  1  0.13011265  0.36386276  0.74683872  1
  Na  Na3  1  0.12684361  0.84112244  0.06579444  1
  Na  Na4  1  0.13313326  0.86738660  0.41306488  1
  Na  Na5  1  0.14728130  0.86358072  0.75421028  1
  Na  Na6  1  0.62066338  0.35918426  0.06361735  1
  Na  Na7  1  0.63502774  0.36810746  0.42092783  1
  Na  Na8  1  0.63818347  0.38257221  0.75984455  1
  Na  Na9  1  0.65042863  0.85377312  0.08846959  1
  Na  Na10  1  0.63289409  0.86403020  0.41533347  1
  Na  Na11  1  0.63129463  0.86831466  0.76160874  1
  Na  Na12  1  0.34733886  0.13710475  0.24885563  1
  Na  Na13  1  0.37084072  0.12792102  0.58013713  1
  Na  Na14  1  0.37224315  0.13542053  0.91708628  1
  Na  Na15  1  0.35381831  0.62978833  0.23323596  1
  Na  Na16  1  0.38069967  0.63673357  0.60153052  1
  Na  Na17  1  0.36211122  0.63914676  0.92270762  1
  Na  Na18  1  0.86852710  0.13229568  0.25111342  1
  Na  Na19  1  0.86456655  0.13721277  0.58621293  1
  Na  Na20  1  0.84947313  0.12982869  0.90994753  1
  Na  Na21  1  0.86169997  0.63206645  0.24314351  1
  Na  Na22  1  0.86671823  0.63918992  0.58551899  1
  Na  Na23  1  0.87750806  0.64477603  0.92238116  1
  Na  Na24  1  0.46277696  0.00389650  0.42138806  1
  Na  Na25  1  0.99699628  0.51261339  0.09202008  1
  Na  Na26  1  0.48819787  0.50748135  0.42968081  1
  Na  Na27  1  0.98027152  0.53963359  0.76544392  1
  Na  Na28  1  0.99146399  0.00489015  0.75085226  1
  Na  Na29  1  0.95874973  0.00115064  0.07664278  1
  Na  Na30  1  0.49078350  0.03460270  0.74723197  1
  Na  Na31  1  0.51639169  -0.01369581  0.07806671  1
  Na  Na32  1  0.99680741  0.51205615  0.39941385  1
  Na  Na33  1  0.49540971  0.50989162  0.23188446  1
  Na  Na34  1  0.52037915  0.97532542  0.90091469  1
  Na  Na35  1  0.04240427  0.50185053  0.93182333  1
  Na  Na36  1  0.51463872  0.50260311  0.90062649  1
  Na  Na37  1  0.00775967  0.48889727  0.58617135  1
  Na  Na38  1  -0.00519153  0.98403044  0.92239469  1
  Na  Na39  1  0.47482996  1.00704094  0.25721669  1
  Na  Na40  1  0.01549017  0.95334267  0.24672523  1
  Na  Na41  1  0.01585427  0.99286820  0.56702899  1
  Na  Na42  1  0.26343001  0.75551073  0.66876997  1
  Na  Na43  1  0.77907934  0.77049443  0.00624694  1
  Na  Na44  1  0.74079275  0.24883094  0.68454079  1
  Na  Na45  1  0.74977014  0.24997189  0.33227568  1
  Na  Na46  1  0.73716031  0.74023890  0.67596485  1
  Na  Na47  1  0.74376615  0.25130982  -0.01554785  1
  Na  Na48  1  0.75832404  0.75748636  0.32066511  1
  Na  Na49  1  0.26258536  0.76102381  0.32125077  1
  Na  Na50  1  0.25273294  0.25398262  -0.00148740  1
  Na  Na51  1  0.25873466  0.25562109  0.65787128  1
  Na  Na52  1  0.74901675  0.25212987  0.15811926  1
  Na  Na53  1  0.23358121  0.73819714  0.85569759  1
  Na  Na54  1  0.24052228  0.24789629  0.17574111  1
  Na  Na55  1  0.26253142  0.25557978  0.48183135  1
  Na  Na56  1  0.74342546  0.74260308  0.49972149  1
  Na  Na57  1  0.25129556  0.25317660  0.82935720  1
  Na  Na58  1  0.74098327  0.24465997  0.50780264  1
  Na  Na59  1  0.75018403  0.74714919  0.83794813  1
  Na  Na60  1  0.25828409  0.75852369  0.14984075  1
  Na  Na61  1  0.26300245  0.75896474  0.49865436  1
  Fe  Fe62  1  0.46443004  0.80885853  0.11675720  1
  Fe  Fe63  1  0.96477798  0.80511706  0.45044699  1
  Fe  Fe64  1  0.46801641  0.30022832  0.79081661  1
  Fe  Fe65  1  0.96419922  0.30376541  0.45108579  1
  Fe  Fe66  1  0.96184002  0.30999986  0.78732518  1
  Fe  Fe67  1  0.46557269  0.80795251  0.45513046  1
  Fe  Fe68  1  0.96317714  0.30969190  0.11888369  1
  Fe  Fe69  1  0.97006030  0.80256913  0.78662094  1
  Fe  Fe70  1  0.46621002  0.30255172  0.11837323  1
  Fe  Fe71  1  0.46528048  0.31322448  0.45835025  1
  Fe  Fe72  1  0.68829989  0.53394299  0.37710412  1
  Fe  Fe73  1  0.19107985  0.53667205  0.38246266  1
  Fe  Fe74  1  0.19278295  0.03254969  0.04756547  1
  Fe  Fe75  1  0.69163473  0.54478580  0.05022506  1
  Fe  Fe76  1  0.69131876  0.03286383  0.71598422  1
  Fe  Fe77  1  0.69113590  0.03376471  0.37963856  1
  Fe  Fe78  1  0.19106548  0.03720226  0.71461929  1
  Fe  Fe79  1  0.19974165  0.03071742  0.37418187  1
  Fe  Fe80  1  0.19418462  0.53245920  0.71774559  1
  Fe  Fe81  1  0.69893512  0.02924363  0.04387827  1
  Fe  Fe82  1  0.53688953  0.69310331  0.21036525  1
  Fe  Fe83  1  0.53821087  0.19351424  0.54935067  1
  Fe  Fe84  1  0.02963522  0.19471242  0.88182849  1
  Fe  Fe85  1  0.03576205  0.18838665  0.54327986  1
  Fe  Fe86  1  0.53349561  0.19030659  0.21233050  1
  Fe  Fe87  1  0.03617800  0.69142875  0.54615037  1
  Fe  Fe88  1  0.03490883  0.69979044  0.21273172  1
  Fe  Fe89  1  0.03593645  0.19006725  0.21264584  1
  Fe  Fe90  1  0.53443599  0.69712259  0.55634116  1
  Fe  Fe91  1  0.53160487  0.69644402  0.87367471  1
  Fe  Fe92  1  0.31189622  0.46208444  0.62340790  1
  Fe  Fe93  1  0.80335129  0.46340520  0.28287992  1
  Fe  Fe94  1  0.80046302  0.47287291  0.62362035  1
  Fe  Fe95  1  0.30255069  0.46683132  0.28689339  1
  Fe  Fe96  1  0.31151198  0.96370230  0.95081846  1
  Fe  Fe97  1  0.80759170  0.96267238  0.61804402  1
  Fe  Fe98  1  0.80338036  0.47157812  0.94948905  1
  Fe  Fe99  1  0.81226396  0.96249427  0.28796373  1
  Fe  Fe100  1  0.30143808  0.46895203  0.96063423  1
  Fe  Fe101  1  0.30862301  0.96500651  0.62121989  1
  S  S102  1  0.35867152  0.13892011  0.08497364  1
  S  S103  1  0.36510281  0.14146771  0.41535652  1
  S  S104  1  0.35550933  0.14148887  0.74693718  1
  S  S105  1  0.36506473  0.63960610  0.08615515  1
  S  S106  1  0.36051326  0.63977221  0.41971126  1
  S  S107  1  0.35917199  0.63641308  0.75314326  1
  S  S108  1  0.85943327  0.14587531  0.08360899  1
  S  S109  1  0.85766260  0.14074516  0.41942483  1
  S  S110  1  0.85969921  0.13815569  0.74750193  1
  S  S111  1  0.86459868  0.63508524  0.08927205  1
  S  S112  1  0.85895967  0.63760533  0.41432116  1
  S  S113  1  0.85818869  0.64745235  0.74311775  1
  S  S114  1  0.13505508  0.36205078  0.25115476  1
  S  S115  1  0.13897850  0.35797327  0.58024841  1
  S  S116  1  0.13721051  0.35362335  0.91597752  1
  S  S117  1  0.14655681  0.85487191  0.25187459  1
  S  S118  1  0.14083529  0.86015240  0.58511018  1
  S  S119  1  0.13956776  0.86464154  0.91009603  1
  S  S120  1  0.63954223  0.35686037  0.24925554  1
  S  S121  1  0.64252496  0.35763446  0.58346852  1
  S  S122  1  0.63577208  0.37309707  0.91611077  1
  S  S123  1  0.64023352  0.86091913  0.25020308  1
  S  S124  1  0.64187748  0.85837968  0.58166645  1
  S  S125  1  0.64179702  0.85586222  0.92599733  1
  S  S126  1  0.06548606  0.17072721  0.04198705  1
  S  S127  1  0.06892454  0.16792725  0.37626278  1
  S  S128  1  0.06293670  0.16639238  0.70595489  1
  S  S129  1  0.06562763  0.66157025  0.05056122  1
  S  S130  1  0.06988113  0.67425054  0.37973810  1
  S  S131  1  0.06969850  0.66901360  0.70641715  1
  S  S132  1  0.56502766  0.16324250  0.04193960  1
  S  S133  1  0.56701132  0.16951375  0.37518250  1
  S  S134  1  0.56917724  0.17293622  0.70901803  1
  S  S135  1  0.57044227  0.67270260  0.04022104  1
  S  S136  1  0.56248358  0.66713566  0.37336372  1
  S  S137  1  0.57384472  0.67044802  0.71523017  1
  S  S138  1  0.32846748  0.42626422  0.12713276  1
  S  S139  1  0.32893166  0.43501701  0.45937156  1
  S  S140  1  0.32655524  0.42602818  0.79246971  1
  S  S141  1  0.33151261  0.93680508  0.12241246  1
  S  S142  1  0.32881433  0.93184147  0.45796492  1
  S  S143  1  0.33317513  0.94320438  0.78966484  1
  S  S144  1  0.82240467  0.42769317  0.12035333  1
  S  S145  1  0.82945260  0.43236413  0.45708795  1
  S  S146  1  0.84371500  0.43994753  0.79623248  1
  S  S147  1  0.83459310  0.94177888  0.13230734  1
  S  S148  1  0.82906315  0.93132684  0.45716223  1
  S  S149  1  0.83729588  0.93274275  0.78740945  1
  S  S150  1  0.43271129  0.33169364  0.29218738  1
  S  S151  1  0.43097847  0.32343395  0.62253509  1
  S  S152  1  0.42357722  0.32892529  0.95745768  1
  S  S153  1  0.43897929  0.83026744  0.29107867  1
  S  S154  1  0.43608897  0.83237127  0.62738788  1
  S  S155  1  0.43338200  0.82975292  0.95553393  1
  S  S156  1  0.92980536  0.32939422  0.29088196  1
  S  S157  1  0.93237606  0.33186296  0.62231475  1
  S  S158  1  0.92727807  0.32946791  0.95734129  1
  S  S159  1  0.93440092  0.82755484  0.29472274  1
  S  S160  1  0.93504936  0.82931802  0.62031532  1
  S  S161  1  0.93547911  0.83727952  0.95320359  1
  S  S162  1  0.16010272  0.06520110  0.20134574  1
  S  S163  1  0.17200475  0.06600919  0.54071279  1
  S  S164  1  0.16657061  0.07096934  0.87426143  1
  S  S165  1  0.16888795  0.57036031  0.21543397  1
  S  S166  1  0.16763744  0.56567409  0.54305137  1
  S  S167  1  0.16773730  0.55771507  0.87198484  1
  S  S168  1  0.66951365  0.06656837  0.21114658  1
  S  S169  1  0.67115145  0.06580140  0.54235649  1
  S  S170  1  0.66636027  0.05866501  0.87553004  1
  S  S171  1  0.66902076  0.56596674  0.21085515  1
  S  S172  1  0.67013274  0.56912820  0.53902221  1
  S  S173  1  0.67640123  0.58063830  0.88116030  1
  O  O174  1  0.36754970  0.21777533  0.07648159  1
  O  O175  1  0.37337813  0.22467312  0.41698720  1
  O  O176  1  0.36593999  0.22032687  0.73833847  1
  O  O177  1  0.37665474  0.71933882  0.07928595  1
  O  O178  1  0.36829257  0.71905722  0.41162155  1
  O  O179  1  0.36464504  0.71016363  0.73880074  1
  O  O180  1  0.86596550  0.22808282  0.08026202  1
  O  O181  1  0.86610104  0.22029735  0.41123391  1
  O  O182  1  0.86908026  0.21645536  0.73756653  1
  O  O183  1  0.86734455  0.70731579  0.07243696  1
  O  O184  1  0.86698904  0.71687550  0.40707959  1
  O  O185  1  0.87732107  0.72206598  0.72695241  1
  O  O186  1  0.27937042  0.13039236  0.09298198  1
  O  O187  1  0.28509274  0.12862831  0.42053248  1
  O  O188  1  0.27266961  0.13445407  0.74826651  1
  O  O189  1  0.29326582  0.63235635  0.10393316  1
  O  O190  1  0.28341257  0.63152663  0.43141329  1
  O  O191  1  0.28299069  0.62439850  0.76688836  1
  O  O192  1  0.77935218  0.13412490  0.08876042  1
  O  O193  1  0.77888963  0.13224497  0.42868085  1
  O  O194  1  0.78012187  0.12728717  0.75161942  1
  O  O195  1  0.79145143  0.62086850  0.10631489  1
  O  O196  1  0.77975012  0.62723255  0.42123400  1
  O  O197  1  0.77710990  0.64744998  0.74188145  1
  O  O198  1  0.12591161  0.28307457  0.25873374  1
  O  O199  1  0.12984764  0.27986525  0.59034057  1
  O  O200  1  0.12774570  0.27289888  0.92252653  1
  O  O201  1  0.12731183  0.77945796  0.26820024  1
  O  O202  1  0.13103728  0.78129001  0.59295722  1
  O  O203  1  0.13760619  0.78938079  0.92176323  1
  O  O204  1  0.62957708  0.27816335  0.25795562  1
  O  O205  1  0.63877155  0.27242523  0.58056816  1
  O  O206  1  0.63176037  0.30009894  0.93267407  1
  O  O207  1  0.63192910  0.78181640  0.25898019  1
  O  O208  1  0.63397226  0.77760645  0.58668950  1
  O  O209  1  0.62037598  0.77748985  0.93440677  1
  O  O210  1  0.21484836  0.37244781  0.24474295  1
  O  O211  1  0.21909883  0.36727798  0.57498435  1
  O  O212  1  0.21811756  0.36231614  0.91261340  1
  O  O213  1  0.22694773  0.85303489  0.25085062  1
  O  O214  1  0.22052652  0.86787510  0.57834988  1
  O  O215  1  0.21581370  0.88043787  0.89699599  1
  O  O216  1  0.72035735  0.36450037  0.24455215  1
  O  O217  1  0.72000903  0.37176433  0.57203048  1
  O  O218  1  0.71099049  0.38604483  0.90175989  1
  O  O219  1  0.72001363  0.87164364  0.24564583  1
  O  O220  1  0.71928306  0.86674769  0.56929470  1
  O  O221  1  0.72244569  0.85471277  0.92556557  1
  O  O222  1  0.41707049  0.13258385  0.15409699  1
  O  O223  1  0.42289892  0.12967255  0.48356957  1
  O  O224  1  0.41044386  0.13239345  0.81417685  1
  O  O225  1  0.43120337  0.62709405  0.14892716  1
  O  O226  1  0.42198879  0.63038049  0.48599874  1
  O  O227  1  0.42197571  0.63247140  0.82259407  1
  O  O228  1  0.91679469  0.14028960  0.15482339  1
  O  O229  1  0.91689916  0.13451001  0.48793831  1
  O  O230  1  0.91773271  0.13204592  0.81721721  1
  O  O231  1  0.92892282  0.63367558  0.15994942  1
  O  O232  1  0.91826215  0.62935687  0.48234614  1
  O  O233  1  0.91228127  0.64139255  0.81263894  1
  O  O234  1  0.36733752  0.07996246  0.01742056  1
  O  O235  1  0.37728093  0.08769399  0.34822511  1
  O  O236  1  0.36509152  0.08238756  0.67870628  1
  O  O237  1  0.36581023  0.58172559  0.01423100  1
  O  O238  1  0.36693854  0.58062035  0.35075655  1
  O  O239  1  0.36569748  0.57208122  0.68722310  1
  O  O240  1  0.87365430  0.09074983  0.01884255  1
  O  O241  1  0.86455430  0.08252571  0.35145880  1
  O  O242  1  0.87288577  0.07832011  0.68178060  1
  O  O243  1  0.87659762  0.56841140  0.02746701  1
  O  O244  1  0.86895623  0.57859863  0.34671163  1
  O  O245  1  0.86925894  0.58294078  0.67761701  1
  O  O246  1  0.07737174  0.36881278  0.18176286  1
  O  O247  1  0.08119185  0.36387479  0.51028753  1
  O  O248  1  0.08165527  0.35683006  0.84330371  1
  O  O249  1  0.09092755  0.86283489  0.18429239  1
  O  O250  1  0.08263151  0.87011348  0.51739691  1
  O  O251  1  0.07816873  0.86895178  0.83963902  1
  O  O252  1  0.58303415  0.36468900  0.18008451  1
  O  O253  1  0.58127698  0.36571139  0.51568056  1
  O  O254  1  0.57219142  0.37544199  0.84723366  1
  O  O255  1  0.58221396  0.86811461  0.18120115  1
  O  O256  1  0.58137140  0.86707688  0.51505834  1
  O  O257  1  0.58761441  0.86852607  0.85956793  1
  O  O258  1  0.12630539  0.42101952  0.31886417  1
  O  O259  1  0.12691832  0.41850870  0.64545446  1
  O  O260  1  0.12297222  0.41124380  0.97934878  1
  O  O261  1  0.13794978  0.91844663  0.31911169  1
  O  O262  1  0.13163978  0.91949584  0.65270354  1
  O  O263  1  0.12731256  0.92740500  0.97428048  1
  O  O264  1  0.63062601  0.41610811  0.31668089  1
  O  O265  1  0.63654642  0.40775785  0.65332566  1
  O  O266  1  0.62512305  0.43823625  0.98006759  1
  O  O267  1  0.62969861  0.91932653  0.31784617  1
  O  O268  1  0.63786861  0.91505467  0.65189591  1
  O  O269  1  0.63321511  0.91621606  0.99502221  1
  O  O270  1  0.02988859  0.20142093  0.10371553  1
  O  O271  1  0.02743155  0.19503135  0.43497883  1
  O  O272  1  0.02613023  0.19501600  0.76606487  1
  O  O273  1  0.03538114  0.69976370  0.11636027  1
  O  O274  1  0.02907463  0.70201656  0.43873598  1
  O  O275  1  0.03473559  0.70165744  0.76619793  1
  O  O276  1  0.53172776  0.19649472  0.10721667  1
  O  O277  1  0.53196100  0.20028431  0.43627185  1
  O  O278  1  0.52953655  0.19984505  0.76632749  1
  O  O279  1  0.53442480  0.70481689  0.10135543  1
  O  O280  1  0.52853811  0.69828952  0.43563539  1
  O  O281  1  0.53430911  0.69658102  0.77527505  1
  O  O282  1  0.30147264  0.45872343  0.06567904  1
  O  O283  1  0.29695197  0.47082212  0.39773127  1
  O  O284  1  0.29580586  0.45992081  0.72911277  1
  O  O285  1  0.29655743  0.96444776  0.05437282  1
  O  O286  1  0.30385839  0.97076023  0.40017368  1
  O  O287  1  0.29243698  0.97788203  0.72785736  1
  O  O288  1  0.78872652  0.46049199  0.05815226  1
  O  O289  1  0.80062377  0.46776095  0.39515733  1
  O  O290  1  0.82586297  0.47414071  0.73465326  1
  O  O291  1  0.80362847  0.97989020  0.07411150  1
  O  O292  1  0.80057182  0.96908817  0.39714678  1
  O  O293  1  0.80226345  0.96249641  0.72087283  1
  O  O294  1  0.47066428  0.30253998  0.23202780  1
  O  O295  1  0.47415546  0.29700786  0.56574927  1
  O  O296  1  0.45835423  0.30614596  0.89678877  1
  O  O297  1  0.47595913  0.79772479  0.23027140  1
  O  O298  1  0.46815728  0.79924496  0.56141270  1
  O  O299  1  0.46656880  0.79363167  0.89498733  1
  O  O300  1  0.96622147  0.30232961  0.23051798  1
  O  O301  1  0.97063836  0.30115776  0.56218269  1
  O  O302  1  0.96333319  0.29862866  0.89517662  1
  O  O303  1  0.97141315  0.79626332  0.23561898  1
  O  O304  1  0.97098627  0.79838250  0.55853674  1
  O  O305  1  0.96622551  0.81079186  0.88671273  1
  O  O306  1  0.18602038  0.03492692  0.26504304  1
  O  O307  1  0.19922189  0.02703741  0.60050532  1
  O  O308  1  0.20018006  0.04176154  0.93881212  1
  O  O309  1  0.19974534  0.53911837  0.28187873  1
  O  O310  1  0.19707217  0.53025088  0.60438176  1
  O  O311  1  0.19950927  0.52062039  0.93108658  1
  O  O312  1  0.70027828  0.03374380  0.27473564  1
  O  O313  1  0.69847842  0.02796235  0.60231592  1
  O  O314  1  0.69684480  0.02318338  0.93586642  1
  O  O315  1  0.69812581  0.52483448  0.26958734  1
  O  O316  1  0.69812345  0.53146034  0.59672581  1
  O  O317  1  0.70897728  0.55338518  0.94965416  1
  O  O318  1  0.08382082  0.08909262  0.03588239  1
  O  O319  1  0.08970239  0.08791962  0.37047067  1
  O  O320  1  0.07894981  0.08292479  0.69924184  1
  O  O321  1  0.07892265  0.58099050  0.05166999  1
  O  O322  1  0.08457360  0.59210773  0.37526503  1
  O  O323  1  0.08428746  0.58592463  0.70200393  1
  O  O324  1  0.59017386  0.08460518  0.04479134  1
  O  O325  1  0.58386654  0.08717856  0.36982333  1
  O  O326  1  0.59212660  0.09328579  0.70855664  1
  O  O327  1  0.58038329  0.58857962  0.03152545  1
  O  O328  1  0.57731525  0.58364492  0.36650970  1
  O  O329  1  0.59764837  0.59392877  0.70821335  1
  O  O330  1  0.41063777  0.40571620  0.13745718  1
  O  O331  1  0.41014112  0.41772365  0.46071668  1
  O  O332  1  0.40700880  0.40602157  0.79671153  1
  O  O333  1  0.41379988  0.91746855  0.12430632  1
  O  O334  1  0.40975349  0.91051891  0.46212887  1
  O  O335  1  0.41465619  0.94003946  0.79227398  1
  O  O336  1  0.90381726  0.41125979  0.12363081  1
  O  O337  1  0.91223256  0.41492892  0.46395116  1
  O  O338  1  0.92843949  0.42237390  0.81197295  1
  O  O339  1  0.91640518  0.92933521  0.13847521  1
  O  O340  1  0.91043050  0.91246815  0.46362732  1
  O  O341  1  0.91703893  0.90844319  0.78375638  1
  O  O342  1  0.41544091  0.41432343  0.29949929  1
  O  O343  1  0.40798434  0.40166471  0.62287772  1
  O  O344  1  0.40105941  0.40926022  0.96855983  1
  O  O345  1  0.42757381  0.91221300  0.29737875  1
  O  O346  1  0.41069711  0.91072433  0.62573493  1
  O  O347  1  0.41872473  0.91236145  0.95573660  1
  O  O348  1  0.90972849  0.41085261  0.29807165  1
  O  O349  1  0.91750546  0.41409616  0.62722095  1
  O  O350  1  0.90851707  0.41031871  0.96173849  1
  O  O351  1  0.91523072  0.90768976  0.29480098  1
  O  O352  1  0.92218592  0.91299301  0.62719780  1
  O  O353  1  0.91217900  0.91653559  0.95774423  1
  O  O354  1  0.07521732  0.08006704  0.18789417  1
  O  O355  1  0.09015736  0.08394854  0.53757576  1
  O  O356  1  0.08372123  0.08702365  0.86910307  1
  O  O357  1  0.09043966  0.59881943  0.21553702  1
  O  O358  1  0.08320906  0.57877372  0.53411358  1
  O  O359  1  0.08697649  0.57263352  0.86812759  1
  O  O360  1  0.58646191  0.08231662  0.20482965  1
  O  O361  1  0.58954918  0.08439478  0.53295051  1
  O  O362  1  0.58224908  0.06536195  0.86242252  1
  O  O363  1  0.58939174  0.58635536  0.21105594  1
  O  O364  1  0.58980987  0.59192358  0.53359982  1
  O  O365  1  0.59503516  0.60324187  0.88071332  1
  O  O366  1  0.13648066  0.22308216  0.05782744  1
  O  O367  1  0.13777138  0.22423192  0.39655417  1
  O  O368  1  0.13462591  0.21710861  0.72180802  1
  O  O369  1  0.13810652  0.70976653  0.06347421  1
  O  O370  1  0.14267753  0.72539835  0.40163665  1
  O  O371  1  0.14301604  0.71687744  0.71999686  1
  O  O372  1  0.63341458  0.21819728  0.05554858  1
  O  O373  1  0.63888510  0.22034205  0.38976353  1
  O  O374  1  0.63659280  0.22826426  0.72233851  1
  O  O375  1  0.64474875  0.71825776  0.05710029  1
  O  O376  1  0.63570271  0.71621197  0.38860167  1
  O  O377  1  0.63870517  0.73279610  0.73299437  1
  O  O378  1  0.27532294  0.35673182  0.11509209  1
  O  O379  1  0.27797524  0.36399143  0.44431085  1
  O  O380  1  0.27244480  0.35527684  0.77578304  1
  O  O381  1  0.28216262  0.86780927  0.11388295  1
  O  O382  1  0.27546681  0.86049959  0.44082639  1
  O  O383  1  0.28889799  0.86704216  0.77250064  1
  O  O384  1  0.77145248  0.35649158  0.10780072  1
  O  O385  1  0.77792418  0.36035281  0.43994773  1
  O  O386  1  0.79148935  0.36839305  0.77704871  1
  O  O387  1  0.78558049  0.86888067  0.11663346  1
  O  O388  1  0.77601678  0.86024125  0.43938979  1
  O  O389  1  0.78530235  0.86496869  0.77891227  1
  O  O390  1  0.36147771  0.27969184  0.27445822  1
  O  O391  1  0.36027853  0.26672701  0.59932641  1
  O  O392  1  0.35477721  0.27206002  0.94119527  1
  O  O393  1  0.36627192  0.77918330  0.27255755  1
  O  O394  1  0.36620361  0.77743888  0.61227037  1
  O  O395  1  0.36113888  0.78375266  0.94633999  1
  O  O396  1  0.85949449  0.27585481  0.27533430  1
  O  O397  1  0.86018147  0.28054848  0.60456436  1
  O  O398  1  0.85881736  0.27609384  0.94401497  1
  O  O399  1  0.86526200  0.77601152  0.28360113  1
  O  O400  1  0.86116606  0.78074910  0.60131230  1
  O  O401  1  0.86730076  0.78051881  0.93761639  1
  O  O402  1  0.20848651  0.13814462  0.21488633  1
  O  O403  1  0.22373755  0.13799849  0.55927201  1
  O  O404  1  0.21581838  0.14136780  0.88306034  1
  O  O405  1  0.22487888  0.63690977  0.22777706  1
  O  O406  1  0.21618981  0.63874349  0.55887710  1
  O  O407  1  0.21894585  0.62803548  0.88508925  1
  O  O408  1  0.71964500  0.13878792  0.22595521  1
  O  O409  1  0.72529696  0.13710434  0.56199832  1
  O  O410  1  0.71298207  0.13386322  0.89312600  1
  O  O411  1  0.72317397  0.63603423  0.23089853  1
  O  O412  1  0.72444578  0.63875527  0.55278908  1
  O  O413  1  0.72817171  0.65042851  0.89271849  1
  O  O414  1  0.48463472  0.32737489  0.02866487  1
  O  O415  1  0.49170140  0.33331074  0.36516772  1
  O  O416  1  0.48551242  0.32618029  0.69641480  1
  O  O417  1  0.49366576  0.83929124  0.03086367  1
  O  O418  1  0.49508114  0.82826328  0.36452608  1
  O  O419  1  0.49778280  0.84036200  0.69672126  1
  O  O420  1  0.99008469  0.33417197  0.02948440  1
  O  O421  1  0.98973972  0.33223385  0.36371325  1
  O  O422  1  0.98952521  0.33098570  0.69491133  1
  O  O423  1  0.99807552  0.83995067  0.02131276  1
  O  O424  1  0.99475656  0.83603991  0.36968612  1
  O  O425  1  0.99336356  0.82699980  0.69134495  1
  O  O426  1  0.16394384  0.00381823  0.13191165  1
  O  O427  1  0.17073965  0.00925769  0.46795566  1
  O  O428  1  0.16140761  0.00836581  0.80212311  1
  O  O429  1  0.15904337  0.50474396  0.14784838  1
  O  O430  1  0.16702361  0.50690058  0.47034536  1
  O  O431  1  0.16414934  0.49837774  0.79666147  1
  O  O432  1  0.66799850  0.00611131  0.14019888  1
  O  O433  1  0.67205813  0.00748699  0.46996903  1
  O  O434  1  0.67579698  0.00301225  0.80405429  1
  O  O435  1  0.66425029  0.50931601  0.13706365  1
  O  O436  1  0.66338316  0.50944503  0.46357899  1
  O  O437  1  0.67026146  0.51564539  0.81463257  1
  O  O438  1  0.01027854  0.16776420  0.30380837  1
  O  O439  1  0.00509127  0.16373763  0.63233133  1
  O  O440  1  0.00470103  0.16824841  0.97018569  1
  O  O441  1  0.01371342  0.67646388  0.30768688  1
  O  O442  1  0.01051443  0.66424174  0.63188133  1
  O  O443  1  0.00553851  0.65895551  0.98059579  1
  O  O444  1  0.50748413  0.16594752  0.30205345  1
  O  O445  1  0.51041999  0.16319897  0.63275744  1
  O  O446  1  0.50326104  0.15395481  0.97192569  1
  O  O447  1  0.50394032  0.66529064  0.30064543  1
  O  O448  1  0.51243005  0.67262837  0.64338721  1
  O  O449  1  0.51071006  0.67443150  0.96790338  1
  O  O450  1  0.33190540  0.48899137  0.19956716  1
  O  O451  1  0.33235929  0.49415580  0.53220146  1
  O  O452  1  0.32922229  0.48635730  0.86388504  1
  O  O453  1  0.33986304  1.00289459  0.19041293  1
  O  O454  1  0.33196123  0.98930219  0.53195240  1
  O  O455  1  0.32832163  0.99826776  0.86225802  1
  O  O456  1  0.82591082  0.48771863  0.19350494  1
  O  O457  1  0.83024633  0.49143062  0.52882016  1
  O  O458  1  0.83930973  0.49987846  0.86586336  1
  O  O459  1  0.83379470  0.99873200  0.20685082  1
  O  O460  1  0.83141404  0.99047762  0.53006557  1
  O  O461  1  0.85093100  0.99838820  0.85610353  1
