# generated using pymatgen
data_Na31Fe20(SO4)36
_symmetry_space_group_name_H-M   'P 1'
_cell_length_a   18.07268463
_cell_length_b   18.07213214
_cell_length_c   19.70339429
_cell_angle_alpha   107.57226501
_cell_angle_beta   107.55737937
_cell_angle_gamma   90.70556666
_symmetry_Int_Tables_number   1
_chemical_formula_structural   Na31Fe20(SO4)36
_chemical_formula_sum   'Na62 Fe40 S72 O288'
_cell_volume   5811.30624132
_cell_formula_units_Z   2
loop_
 _symmetry_equiv_pos_site_id
 _symmetry_equiv_pos_as_xyz
  1  'x, y, z'
loop_
 _atom_site_type_symbol
 _atom_site_label
 _atom_site_symmetry_multiplicity
 _atom_site_fract_x
 _atom_site_fract_y
 _atom_site_fract_z
 _atom_site_occupancy
  Na  Na0  1  0.12723273  0.36298557  0.07860775  1
  Na  Na1  1  0.13691909  0.35408861  0.40571751  1
  Na  Na2  1  0.13624817  0.36731295  0.75052634  1
  Na  Na3  1  0.12830917  0.84323839  0.06570271  1
  Na  Na4  1  0.16642088  0.86494469  0.44353982  1
  Na  Na5  1  0.14233900  0.87037905  0.75895736  1
  Na  Na6  1  0.62806242  0.37770595  0.08019385  1
  Na  Na7  1  0.63331458  0.36483363  0.41520953  1
  Na  Na8  1  0.62123297  0.36974966  0.74556219  1
  Na  Na9  1  0.63126018  0.86471117  0.07976344  1
  Na  Na10  1  0.63404573  0.86754301  0.41499688  1
  Na  Na11  1  0.63273484  0.87170882  0.75263400  1
  Na  Na12  1  0.33213056  0.14341900  0.23919461  1
  Na  Na13  1  0.36328119  0.13345678  0.58557864  1
  Na  Na14  1  0.36779805  0.13687548  0.91882019  1
  Na  Na15  1  0.36304773  0.63768516  0.24642005  1
  Na  Na16  1  0.35423305  0.64410040  0.57619084  1
  Na  Na17  1  0.35591557  0.62826574  0.90723362  1
  Na  Na18  1  0.86955913  0.13152218  0.24775281  1
  Na  Na19  1  0.86889255  0.13368679  0.58453681  1
  Na  Na20  1  0.87153054  0.13601912  0.91813048  1
  Na  Na21  1  0.86710961  0.62146754  0.23773945  1
  Na  Na22  1  0.87147415  0.63282218  0.58663678  1
  Na  Na23  1  0.87854461  0.65110643  0.93531736  1
  Na  Na24  1  0.45341542  0.01280631  0.74183656  1
  Na  Na25  1  1.00628776  0.50653161  0.39451238  1
  Na  Na26  1  0.98887125  0.02902518  0.80697447  1
  Na  Na27  1  1.01398473  -0.01049128  0.05789284  1
  Na  Na28  1  0.52556789  0.47863113  0.91309793  1
  Na  Na29  1  0.44279150  0.00637109  0.39071302  1
  Na  Na30  1  1.02362857  -0.01568940  0.40300765  1
  Na  Na31  1  0.48599643  0.50679584  0.41798495  1
  Na  Na32  1  1.01198286  0.58453298  0.79230359  1
  Na  Na33  1  0.00534424  0.49290908  0.93111406  1
  Na  Na34  1  0.49634981  0.99741897  0.58182342  1
  Na  Na35  1  0.48208050  1.01517835  0.23205060  1
  Na  Na36  1  0.47518557  0.50784183  0.61667754  1
  Na  Na37  1  0.01674435  0.95669000  0.22304657  1
  Na  Na38  1  0.50145807  0.50744333  0.22424235  1
  Na  Na39  1  0.05790801  0.49852055  0.60568336  1
  Na  Na40  1  0.02012469  0.98974845  0.59034184  1
  Na  Na41  1  0.49755523  0.98789942  0.93450023  1
  Na  Na42  1  0.75326721  0.25324612  0.32864246  1
  Na  Na43  1  0.75360418  0.25742031  -0.00530720  1
  Na  Na44  1  0.26357160  0.25994529  0.66350719  1
  Na  Na45  1  0.23492669  0.23624795  0.01224694  1
  Na  Na46  1  0.75550766  0.75038612  0.33148578  1
  Na  Na47  1  0.75654445  0.74857524  0.00622861  1
  Na  Na48  1  0.25348312  0.75795308  0.33695896  1
  Na  Na49  1  0.25770966  0.76236418  0.65728602  1
  Na  Na50  1  0.74629869  0.24662101  0.66679647  1
  Na  Na51  1  0.74625809  0.74806417  0.66709913  1
  Na  Na52  1  0.74887530  0.74768322  0.49792102  1
  Na  Na53  1  0.25980331  0.76316917  0.15856231  1
  Na  Na54  1  0.74981365  0.25017580  0.49865648  1
  Na  Na55  1  0.75522830  0.25994435  0.16096441  1
  Na  Na56  1  0.75066160  0.74977253  0.83765644  1
  Na  Na57  1  0.74466583  0.25278544  0.83107795  1
  Na  Na58  1  0.22712751  0.73073839  0.84765602  1
  Na  Na59  1  0.26026533  0.25803237  0.48684568  1
  Na  Na60  1  0.25373982  0.25340820  0.83238089  1
  Na  Na61  1  0.74353152  0.73363321  0.16280124  1
  Fe  Fe62  1  0.46131949  0.30570092  0.11843010  1
  Fe  Fe63  1  0.96656706  0.30273899  0.45393069  1
  Fe  Fe64  1  0.46259499  0.80632747  0.11577436  1
  Fe  Fe65  1  0.96602381  0.80842120  0.78999828  1
  Fe  Fe66  1  0.46050381  0.31480301  0.45224743  1
  Fe  Fe67  1  0.96957696  0.30452222  0.12105824  1
  Fe  Fe68  1  0.46470832  0.80561504  0.78169498  1
  Fe  Fe69  1  0.46371282  0.80813124  0.44808796  1
  Fe  Fe70  1  0.97330574  0.29910222  0.79216680  1
  Fe  Fe71  1  0.96738437  0.80657239  0.45256236  1
  Fe  Fe72  1  0.69471379  0.53370224  0.71440604  1
  Fe  Fe73  1  0.69441683  0.53467811  0.38125763  1
  Fe  Fe74  1  0.20327979  0.02552267  0.37631472  1
  Fe  Fe75  1  0.19164600  0.53804050  0.04945665  1
  Fe  Fe76  1  0.69098098  0.03562823  0.71160375  1
  Fe  Fe77  1  0.20299472  0.03252060  0.71548750  1
  Fe  Fe78  1  0.19328700  0.03250682  0.04709106  1
  Fe  Fe79  1  0.68802429  0.03396626  0.37574221  1
  Fe  Fe80  1  0.69029561  0.03941182  0.04784175  1
  Fe  Fe81  1  0.19058312  0.53643364  0.37655132  1
  Fe  Fe82  1  0.04513023  0.18261633  0.21067799  1
  Fe  Fe83  1  0.03776347  0.69192720  0.54589688  1
  Fe  Fe84  1  0.03541025  0.18469581  0.54307678  1
  Fe  Fe85  1  0.53457119  0.69382969  0.54666384  1
  Fe  Fe86  1  0.03234998  0.69373413  0.20895075  1
  Fe  Fe87  1  0.52918838  0.20528611  0.87587067  1
  Fe  Fe88  1  0.52866259  0.19707249  0.54515435  1
  Fe  Fe89  1  0.53489986  0.68872822  0.87918689  1
  Fe  Fe90  1  0.53934213  0.68766165  0.20589610  1
  Fe  Fe91  1  0.53344023  0.19441212  0.21244841  1
  Fe  Fe92  1  0.80607413  0.46506813  0.28500373  1
  Fe  Fe93  1  0.30794294  0.95991465  0.95382459  1
  Fe  Fe94  1  0.30274954  0.46246765  0.28114206  1
  Fe  Fe95  1  0.80635926  0.96600734  0.61740609  1
  Fe  Fe96  1  0.80218748  0.97004199  0.95210434  1
  Fe  Fe97  1  0.29869252  0.46933978  0.63005652  1
  Fe  Fe98  1  0.81341932  0.46286112  0.62611200  1
  Fe  Fe99  1  0.80899790  0.96359376  0.28126497  1
  Fe  Fe100  1  0.30907468  0.46668570  0.95378590  1
  Fe  Fe101  1  0.80459969  0.46969688  0.96321846  1
  S  S102  1  0.36294659  0.13615566  0.08566961  1
  S  S103  1  0.35788607  0.14698732  0.41179035  1
  S  S104  1  0.35852526  0.14669982  0.75211353  1
  S  S105  1  0.36329227  0.63664877  0.08595613  1
  S  S106  1  0.36144198  0.63737756  0.41332971  1
  S  S107  1  0.35860375  0.64403729  0.74724375  1
  S  S108  1  0.85824450  0.14304784  0.08419167  1
  S  S109  1  0.85717664  0.13786393  0.41508226  1
  S  S110  1  0.85530095  0.13969393  0.74683091  1
  S  S111  1  0.86309504  0.63779055  0.08449756  1
  S  S112  1  0.86292902  0.63916414  0.41704829  1
  S  S113  1  0.85327663  0.64327844  0.74797337  1
  S  S114  1  0.13881589  0.35951969  0.25135694  1
  S  S115  1  0.13975878  0.35021978  0.57910627  1
  S  S116  1  0.14507011  0.35884466  0.91933732  1
  S  S117  1  0.14451175  0.85118604  0.25723400  1
  S  S118  1  0.13972050  0.86110038  0.58672253  1
  S  S119  1  0.13469834  0.86188113  0.91307906  1
  S  S120  1  0.63868113  0.36123365  0.25095900  1
  S  S121  1  0.63961917  0.36089765  0.58204736  1
  S  S122  1  0.64270816  0.36178161  0.91552705  1
  S  S123  1  0.64357557  0.85857408  0.24567361  1
  S  S124  1  0.64046439  0.85973677  0.57990461  1
  S  S125  1  0.63631747  0.86199995  0.91556993  1
  S  S126  1  0.06502830  0.16792079  0.04201539  1
  S  S127  1  0.06679687  0.16318904  0.37397034  1
  S  S128  1  0.06924395  0.16595963  0.70661704  1
  S  S129  1  0.07029084  0.66558655  0.04792671  1
  S  S130  1  0.07059003  0.67510139  0.37597054  1
  S  S131  1  0.06440423  0.67682548  0.71011033  1
  S  S132  1  0.56850464  0.17562911  0.04123256  1
  S  S133  1  0.56671383  0.17253176  0.37574912  1
  S  S134  1  0.56609631  0.16754911  0.70406984  1
  S  S135  1  0.56547444  0.66880437  0.03952574  1
  S  S136  1  0.56744782  0.66684453  0.37350905  1
  S  S137  1  0.56980550  0.67134433  0.70778839  1
  S  S138  1  0.32725750  0.43134159  0.12238497  1
  S  S139  1  0.32977694  0.43980442  0.46110569  1
  S  S140  1  0.33094416  0.43230795  0.79356910  1
  S  S141  1  0.32838354  0.93393640  0.12419500  1
  S  S142  1  0.34286098  0.93979640  0.46002895  1
  S  S143  1  0.33695962  0.93432622  0.79489355  1
  S  S144  1  0.82980101  0.42596041  0.12426725  1
  S  S145  1  0.83116090  0.43024528  0.45970827  1
  S  S146  1  0.82787736  0.42801880  0.79348419  1
  S  S147  1  0.82681994  0.93778621  0.11974637  1
  S  S148  1  0.83133193  0.93275525  0.45589662  1
  S  S149  1  0.82504766  0.93316093  0.78734316  1
  S  S150  1  0.43202254  0.33395383  0.29101350  1
  S  S151  1  0.42944029  0.33001729  0.62132752  1
  S  S152  1  0.43197895  0.33209070  0.96125716  1
  S  S153  1  0.44405628  0.82729078  0.28548977  1
  S  S154  1  0.44084300  0.83176736  0.62306753  1
  S  S155  1  0.43120259  0.82404217  0.95312921  1
  S  S156  1  0.92982102  0.32669066  0.29127772  1
  S  S157  1  0.93192651  0.32373029  0.62400109  1
  S  S158  1  0.92668009  0.33060064  0.95671960  1
  S  S159  1  0.93121017  0.82808590  0.28978311  1
  S  S160  1  0.92861638  0.83053019  0.62332831  1
  S  S161  1  0.92532840  0.83781176  0.95478833  1
  S  S162  1  0.15716587  0.05622806  0.20412586  1
  S  S163  1  0.17109972  0.06588123  0.54127598  1
  S  S164  1  0.18136537  0.06956758  0.88185045  1
  S  S165  1  0.17343917  0.57427871  0.21396586  1
  S  S166  1  0.16695213  0.56387331  0.53818575  1
  S  S167  1  0.16815595  0.55741828  0.88198326  1
  S  S168  1  0.66742950  0.06822583  0.20940359  1
  S  S169  1  0.66605519  0.06760971  0.53817609  1
  S  S170  1  0.66608681  0.07203118  0.87336864  1
  S  S171  1  0.67531917  0.56637212  0.21248845  1
  S  S172  1  0.67065213  0.56657182  0.54181643  1
  S  S173  1  0.67661882  0.56879129  0.87680791  1
  O  O174  1  0.36951353  0.21483873  0.07545523  1
  O  O175  1  0.36531119  0.23058406  0.41512811  1
  O  O176  1  0.36348332  0.22600698  0.74897530  1
  O  O177  1  0.37089215  0.71621692  0.08059305  1
  O  O178  1  0.37255505  0.71471039  0.40238197  1
  O  O179  1  0.37373865  0.72014839  0.73272458  1
  O  O180  1  0.86609652  0.22254451  0.07674789  1
  O  O181  1  0.86578423  0.21842078  0.40957531  1
  O  O182  1  0.86838780  0.21883846  0.74039126  1
  O  O183  1  0.87250647  0.71051982  0.06855903  1
  O  O184  1  0.87050925  0.71856653  0.40934821  1
  O  O185  1  0.86503098  0.71977667  0.73533562  1
  O  O186  1  0.28462397  0.12529298  0.09390875  1
  O  O187  1  0.27887755  0.13108338  0.41740401  1
  O  O188  1  0.28127425  0.13085833  0.76362339  1
  O  O189  1  0.28766214  0.62686238  0.10012933  1
  O  O190  1  0.28443545  0.63023916  0.42389871  1
  O  O191  1  0.28304649  0.64194848  0.75879518  1
  O  O192  1  0.77947448  0.13467898  0.09413906  1
  O  O193  1  0.77736360  0.12817220  0.42197496  1
  O  O194  1  0.77282071  0.13392680  0.74932844  1
  O  O195  1  0.79007761  0.62768851  0.09992080  1
  O  O196  1  0.78393664  0.62995945  0.42557958  1
  O  O197  1  0.76956807  0.63605549  0.74603875  1
  O  O198  1  0.12675232  0.28328900  0.26318030  1
  O  O199  1  0.13130230  0.26814082  0.58044088  1
  O  O200  1  0.14049855  0.28334062  0.93040137  1
  O  O201  1  0.12137137  0.77467111  0.26832100  1
  O  O202  1  0.12536847  0.78242113  0.59520183  1
  O  O203  1  0.12418145  0.78532619  0.92068480  1
  O  O204  1  0.62874471  0.28169786  0.25831611  1
  O  O205  1  0.63016714  0.28158236  0.58953691  1
  O  O206  1  0.63461810  0.27847283  0.91646369  1
  O  O207  1  0.63833088  0.77841328  0.25229269  1
  O  O208  1  0.63390092  0.77935624  0.58582714  1
  O  O209  1  0.63103232  0.78390897  0.92594597  1
  O  O210  1  0.21883017  0.37018868  0.24733431  1
  O  O211  1  0.22046770  0.36323868  0.57577567  1
  O  O212  1  0.22512988  0.37313845  0.91118560  1
  O  O213  1  0.22603988  0.84875927  0.25993872  1
  O  O214  1  0.21500613  0.86707151  0.57593823  1
  O  O215  1  0.21166649  0.87127284  0.89937322  1
  O  O216  1  0.71845165  0.36825539  0.24382000  1
  O  O217  1  0.72039246  0.37012938  0.57681146  1
  O  O218  1  0.72770437  0.37184070  0.91577628  1
  O  O219  1  0.72134363  0.86911305  0.23475139  1
  O  O220  1  0.71879709  0.87012131  0.57017644  1
  O  O221  1  0.71415629  0.87331782  0.90585546  1
  O  O222  1  0.42226168  0.13375564  0.15648762  1
  O  O223  1  0.41707292  0.13425752  0.47907418  1
  O  O224  1  0.41996447  0.13749033  0.82071659  1
  O  O225  1  0.42562784  0.62409794  0.15022719  1
  O  O226  1  0.42252607  0.62936771  0.48117261  1
  O  O227  1  0.42097329  0.63657343  0.81374931  1
  O  O228  1  0.91798488  0.13449445  0.15078337  1
  O  O229  1  0.91513939  0.12905707  0.48276432  1
  O  O230  1  0.90943892  0.12785640  0.81337923  1
  O  O231  1  0.92837377  0.63146190  0.15185943  1
  O  O232  1  0.92178831  0.63155232  0.48505884  1
  O  O233  1  0.90479260  0.63798264  0.81884534  1
  O  O234  1  0.37530718  0.07692597  0.02036303  1
  O  O235  1  0.36944140  0.09604358  0.34313734  1
  O  O236  1  0.36718388  0.08838810  0.68535147  1
  O  O237  1  0.36748967  0.57927134  0.01479915  1
  O  O238  1  0.36981301  0.57579157  0.34629171  1
  O  O239  1  0.36292185  0.58171805  0.67819491  1
  O  O240  1  0.86237261  0.08495518  0.01413459  1
  O  O241  1  0.86497533  0.08091387  0.34607280  1
  O  O242  1  0.86173199  0.08096270  0.67708955  1
  O  O243  1  0.86916925  0.57195722  0.01708513  1
  O  O244  1  0.87200607  0.58009917  0.34949711  1
  O  O245  1  0.86582406  0.58082278  0.68321387  1
  O  O246  1  0.08243143  0.36432883  0.18046759  1
  O  O247  1  0.08301622  0.35903449  0.50901805  1
  O  O248  1  0.08619750  0.36253261  0.84872663  1
  O  O249  1  0.09303968  0.86078662  0.18795315  1
  O  O250  1  0.07626326  0.87190970  0.52080404  1
  O  O251  1  0.07391862  0.87345965  0.84582864  1
  O  O252  1  0.57995999  0.37164070  0.18446903  1
  O  O253  1  0.58263327  0.36810858  0.51291814  1
  O  O254  1  0.59052942  0.37119389  0.84688466  1
  O  O255  1  0.58224664  0.86897433  0.18096075  1
  O  O256  1  0.58045583  0.86871268  0.51327192  1
  O  O257  1  0.57645752  0.86770676  0.84684963  1
  O  O258  1  0.12754859  0.42149596  0.31686530  1
  O  O259  1  0.12665304  0.40479563  0.64497727  1
  O  O260  1  0.13339499  0.42150786  0.98400742  1
  O  O261  1  0.13435070  0.91366198  0.32448262  1
  O  O262  1  0.13255243  0.92083476  0.65585224  1
  O  O263  1  0.12922480  0.92388453  0.98132618  1
  O  O264  1  0.63279881  0.41948263  0.32036687  1
  O  O265  1  0.63075030  0.42018201  0.64930182  1
  O  O266  1  0.63196169  0.41616715  0.98253489  1
  O  O267  1  0.63966699  0.91522402  0.31705386  1
  O  O268  1  0.63373393  0.91688253  0.64929094  1
  O  O269  1  0.62581636  0.92268257  0.98181329  1
  O  O270  1  0.03076064  0.19972536  0.10723052  1
  O  O271  1  0.02348739  0.19039021  0.43072712  1
  O  O272  1  0.02919128  0.19386285  0.76311745  1
  O  O273  1  0.04280084  0.69576790  0.11527983  1
  O  O274  1  0.03093978  0.70313964  0.43584763  1
  O  O275  1  0.02099473  0.70770778  0.76485292  1
  O  O276  1  0.53304337  0.20320946  0.10350331  1
  O  O277  1  0.53170266  0.20333958  0.43727636  1
  O  O278  1  0.53215269  0.18941676  0.76488176  1
  O  O279  1  0.53022836  0.70630545  0.10174853  1
  O  O280  1  0.53336388  0.70010524  0.43553151  1
  O  O281  1  0.53653987  0.70127119  0.77059843  1
  O  O282  1  0.30260904  0.46766185  0.06061720  1
  O  O283  1  0.29893645  0.47239393  0.39744281  1
  O  O284  1  0.30095184  0.47018121  0.73497712  1
  O  O285  1  0.29361202  0.95995490  0.05531533  1
  O  O286  1  0.31144909  0.97325286  0.39785805  1
  O  O287  1  0.30893804  0.97195291  0.73647212  1
  O  O288  1  0.80683358  0.46243981  0.06404477  1
  O  O289  1  0.80238988  0.46792001  0.39927451  1
  O  O290  1  0.80099755  0.46967996  0.73498767  1
  O  O291  1  0.78822750  0.97416843  0.05913019  1
  O  O292  1  0.80256856  0.96625632  0.39299484  1
  O  O293  1  0.79447057  0.96929746  0.72542675  1
  O  O294  1  0.47029466  0.30370046  0.23097151  1
  O  O295  1  0.46732780  0.30387020  0.55854662  1
  O  O296  1  0.47322225  0.30965340  0.90533801  1
  O  O297  1  0.48024478  0.78918123  0.22489852  1
  O  O298  1  0.47270564  0.79387727  0.55836666  1
  O  O299  1  0.47006487  0.79697224  0.89323540  1
  O  O300  1  0.96489751  0.29903402  0.23048907  1
  O  O301  1  0.96997340  0.29440450  0.56360676  1
  O  O302  1  0.96360309  0.31149721  0.89733619  1
  O  O303  1  0.96603679  0.79310178  0.23040356  1
  O  O304  1  0.96459317  0.79929733  0.56240997  1
  O  O305  1  0.94510326  0.80992797  0.88396811  1
  O  O306  1  0.18354238  0.02172200  0.26500431  1
  O  O307  1  0.19079099  0.03286395  0.60316144  1
  O  O308  1  0.21433539  0.03200699  0.94265182  1
  O  O309  1  0.20169289  0.53431854  0.27336328  1
  O  O310  1  0.19119264  0.52386517  0.59544437  1
  O  O311  1  0.21492439  0.52733496  0.94769985  1
  O  O312  1  0.69985678  0.03020009  0.26918045  1
  O  O313  1  0.69625673  0.03014080  0.59842393  1
  O  O314  1  0.69560097  0.03559189  0.93495647  1
  O  O315  1  0.70562291  0.53247528  0.27753473  1
  O  O316  1  0.69899508  0.52982036  0.60193263  1
  O  O317  1  0.70907589  0.53045297  0.93496859  1
  O  O318  1  0.09171816  0.09069335  0.04675909  1
  O  O319  1  0.08482696  0.08161340  0.36859977  1
  O  O320  1  0.09264644  0.08625956  0.70486609  1
  O  O321  1  0.08727668  0.58252612  0.04228117  1
  O  O322  1  0.08511847  0.59259826  0.37025089  1
  O  O323  1  0.08186301  0.59816930  0.71296948  1
  O  O324  1  0.58597628  0.09307388  0.03388276  1
  O  O325  1  0.58258307  0.08971525  0.36846015  1
  O  O326  1  0.58583542  0.08424929  0.69140940  1
  O  O327  1  0.57950960  0.58960422  0.03756880  1
  O  O328  1  0.58389207  0.58481814  0.37095617  1
  O  O329  1  0.59017184  0.59067311  0.70294527  1
  O  O330  1  0.40860115  0.41068647  0.13080751  1
  O  O331  1  0.41355055  0.42494379  0.46629332  1
  O  O332  1  0.41266957  0.42071531  0.80687366  1
  O  O333  1  0.40683948  0.90676887  0.12194667  1
  O  O334  1  0.42433216  0.91770323  0.45707505  1
  O  O335  1  0.42037572  0.91739715  0.79964308  1
  O  O336  1  0.90851534  0.40124988  0.13308826  1
  O  O337  1  0.91183095  0.41024240  0.46467291  1
  O  O338  1  0.90864817  0.40900354  0.79901381  1
  O  O339  1  0.90697427  0.92750601  0.12109063  1
  O  O340  1  0.91423118  0.91671620  0.46547226  1
  O  O341  1  0.90540825  0.91407128  0.78936765  1
  O  O342  1  0.41498345  0.41627340  0.29460850  1
  O  O343  1  0.39999421  0.40696914  0.61947647  1
  O  O344  1  0.40641873  0.41223320  0.96526852  1
  O  O345  1  0.43552865  0.90802444  0.28600923  1
  O  O346  1  0.43671433  0.91445490  0.62914533  1
  O  O347  1  0.41160056  0.90492400  0.95654816  1
  O  O348  1  0.90977076  0.40849893  0.29997601  1
  O  O349  1  0.91414988  0.40503507  0.62868490  1
  O  O350  1  0.90297800  0.41207432  0.96679367  1
  O  O351  1  0.91551529  0.91024136  0.28940188  1
  O  O352  1  0.91269411  0.91267172  0.62691099  1
  O  O353  1  0.90168092  0.91952865  0.96256667  1
  O  O354  1  0.06987760  0.06463812  0.18969386  1
  O  O355  1  0.08490057  0.07839736  0.52305280  1
  O  O356  1  0.10321953  0.08791471  0.88127565  1
  O  O357  1  0.09508016  0.59826244  0.21386694  1
  O  O358  1  0.08294998  0.58013339  0.52965156  1
  O  O359  1  0.09321069  0.57290047  0.89598452  1
  O  O360  1  0.58781816  0.08809018  0.21011749  1
  O  O361  1  0.58486761  0.08589855  0.53322529  1
  O  O362  1  0.58583014  0.09210902  0.86892133  1
  O  O363  1  0.59637646  0.59063221  0.21490200  1
  O  O364  1  0.58913828  0.58635849  0.53558087  1
  O  O365  1  0.59714937  0.58853899  0.87807337  1
  O  O366  1  0.13168518  0.22370798  0.05562340  1
  O  O367  1  0.13716981  0.21751488  0.39572246  1
  O  O368  1  0.13744000  0.22097993  0.71992224  1
  O  O369  1  0.14247272  0.71445066  0.06169592  1
  O  O370  1  0.14272942  0.72524499  0.39548573  1
  O  O371  1  0.13513289  0.72991785  0.72769806  1
  O  O372  1  0.63999332  0.22744723  0.05850054  1
  O  O373  1  0.63959495  0.22289613  0.39191624  1
  O  O374  1  0.63635393  0.22096997  0.71935438  1
  O  O375  1  0.63726980  0.72133157  0.05476922  1
  O  O376  1  0.63982728  0.71679886  0.38759583  1
  O  O377  1  0.63829780  0.72554130  0.72031700  1
  O  O378  1  0.27245287  0.36339040  0.10676574  1
  O  O379  1  0.28070626  0.36860071  0.44804155  1
  O  O380  1  0.27768646  0.36041295  0.77514764  1
  O  O381  1  0.27499919  0.87018547  0.12035743  1
  O  O382  1  0.29440498  0.86801516  0.44808747  1
  O  O383  1  0.28690417  0.86203216  0.77864611  1
  O  O384  1  0.77084753  0.35886177  0.10710672  1
  O  O385  1  0.77671286  0.35937881  0.44158179  1
  O  O386  1  0.77186481  0.35778837  0.77147978  1
  O  O387  1  0.77776411  0.86477828  0.10490911  1
  O  O388  1  0.78022302  0.86049208  0.44021041  1
  O  O389  1  0.77238852  0.86231272  0.77156354  1
  O  O390  1  0.36304309  0.28289216  0.27761691  1
  O  O391  1  0.36162469  0.27123072  0.60165270  1
  O  O392  1  0.36355038  0.27614234  0.94432368  1
  O  O393  1  0.37008278  0.77974870  0.26977999  1
  O  O394  1  0.36633244  0.78740553  0.60937572  1
  O  O395  1  0.36154808  0.77090638  0.93658380  1
  O  O396  1  0.85852861  0.27373837  0.27548204  1
  O  O397  1  0.85904260  0.27147736  0.60410725  1
  O  O398  1  0.85714064  0.27394493  0.93705598  1
  O  O399  1  0.85868797  0.78048587  0.27892241  1
  O  O400  1  0.85566082  0.77992736  0.60631886  1
  O  O401  1  0.85735982  0.78520928  0.94734738  1
  O  O402  1  0.19895649  0.13293774  0.22136184  1
  O  O403  1  0.22107156  0.13847460  0.55833631  1
  O  O404  1  0.23483006  0.14034268  0.89875915  1
  O  O405  1  0.22975000  0.64286250  0.23201970  1
  O  O406  1  0.21747208  0.63640105  0.55723916  1
  O  O407  1  0.21543091  0.62822656  0.89008855  1
  O  O408  1  0.71987274  0.13910208  0.22482812  1
  O  O409  1  0.71893441  0.13874605  0.55463023  1
  O  O410  1  0.72147550  0.14053259  0.88829019  1
  O  O411  1  0.72934469  0.63691102  0.22966323  1
  O  O412  1  0.72377275  0.63719220  0.55726086  1
  O  O413  1  0.72827408  0.64021594  0.89079095  1
  O  O414  1  0.48947084  0.33881280  0.03675569  1
  O  O415  1  0.49293213  0.34082343  0.36537075  1
  O  O416  1  0.48913536  0.33695144  0.69155490  1
  O  O417  1  0.49088925  0.82905860  0.02629863  1
  O  O418  1  0.49979756  0.82653386  0.35929294  1
  O  O419  1  0.49958419  0.82678924  0.69388457  1
  O  O420  1  0.98566302  0.32985688  0.02791990  1
  O  O421  1  0.98939767  0.32845862  0.36375050  1
  O  O422  1  0.98827337  0.32297641  0.69618720  1
  O  O423  1  0.99320452  0.84438896  0.02015037  1
  O  O424  1  0.98999479  0.83841160  0.36581284  1
  O  O425  1  0.98554679  0.83208469  0.69639794  1
  O  O426  1  0.16296823  -0.00069748  0.13308655  1
  O  O427  1  0.17697014  0.00616062  0.47127464  1
  O  O428  1  0.18022600  0.01079113  0.80878005  1
  O  O429  1  0.16947169  0.51413253  0.14211580  1
  O  O430  1  0.16448564  0.50754236  0.46325343  1
  O  O431  1  0.15611573  0.49628779  0.81054455  1
  O  O432  1  0.66176755  0.01033668  0.13545751  1
  O  O433  1  0.66514576  0.00850476  0.46563712  1
  O  O434  1  0.66331395  0.01112373  0.80100431  1
  O  O435  1  0.66896373  0.50641496  0.14289690  1
  O  O436  1  0.66773555  0.50720059  0.46882385  1
  O  O437  1  0.66909486  0.51101612  0.80148734  1
  O  O438  1  0.01127295  0.16304369  0.29997642  1
  O  O439  1  0.01055593  0.15546858  0.62942476  1
  O  O440  1  0.00226586  0.15668020  0.97193418  1
  O  O441  1  0.01154117  0.67547083  0.30364389  1
  O  O442  1  0.00946122  0.66880416  0.63269858  1
  O  O443  1  0.00772569  0.66461835  0.98071830  1
  O  O444  1  0.50795066  0.17218315  0.30402847  1
  O  O445  1  0.50561403  0.16685314  0.63193544  1
  O  O446  1  0.50931216  0.17518663  0.96995333  1
  O  O447  1  0.50831650  0.66203717  0.30051339  1
  O  O448  1  0.50746864  0.66448814  0.63499652  1
  O  O449  1  0.50610187  0.66942559  0.96726336  1
  O  O450  1  0.33093253  0.49349566  0.19417358  1
  O  O451  1  0.33358034  0.50086276  0.53318739  1
  O  O452  1  0.32334821  0.48982727  0.86660235  1
  O  O453  1  0.34347939  1.00312254  0.19111687  1
  O  O454  1  0.35558655  0.99955753  0.53304896  1
  O  O455  1  0.34324036  0.99150790  0.87044256  1
  O  O456  1  0.83115285  0.48651111  0.19635920  1
  O  O457  1  0.83229888  0.48857769  0.53232131  1
  O  O458  1  0.82812953  0.48442091  0.86713559  1
  O  O459  1  0.82636997  0.99544915  0.19322341  1
  O  O460  1  0.82941384  0.99266908  0.52657478  1
  O  O461  1  0.82671417  0.99331684  0.85858812  1
