# generated using pymatgen
data_Na31Fe20(SO4)36
_symmetry_space_group_name_H-M   'P 1'
_cell_length_a   18.08872688
_cell_length_b   18.08767924
_cell_length_c   19.72161511
_cell_angle_alpha   107.56923814
_cell_angle_beta   107.54624510
_cell_angle_gamma   90.79307908
_symmetry_Int_Tables_number   1
_chemical_formula_structural   Na31Fe20(SO4)36
_chemical_formula_sum   'Na62 Fe40 S72 O288'
_cell_volume   5826.23017813
_cell_formula_units_Z   2
loop_
 _symmetry_equiv_pos_site_id
 _symmetry_equiv_pos_as_xyz
  1  'x, y, z'
loop_
 _atom_site_type_symbol
 _atom_site_label
 _atom_site_symmetry_multiplicity
 _atom_site_fract_x
 _atom_site_fract_y
 _atom_site_fract_z
 _atom_site_occupancy
  Na  Na0  1  0.12886304  0.37039483  0.08187138  1
  Na  Na1  1  0.12589410  0.37268110  0.41703538  1
  Na  Na2  1  0.13928562  0.36537149  0.75043792  1
  Na  Na3  1  0.12693185  0.85714270  0.07530706  1
  Na  Na4  1  0.12505039  0.85718588  0.40147340  1
  Na  Na5  1  0.13932962  0.87272044  0.75274846  1
  Na  Na6  1  0.66233633  0.36608936  0.08167066  1
  Na  Na7  1  0.63005374  0.36646866  0.41562925  1
  Na  Na8  1  0.64585407  0.37040824  0.77406722  1
  Na  Na9  1  0.62772231  0.85273475  0.07123177  1
  Na  Na10  1  0.64712076  0.86178197  0.43062863  1
  Na  Na11  1  0.65606402  0.83647808  0.73966599  1
  Na  Na12  1  0.36653197  0.13369619  0.25010405  1
  Na  Na13  1  0.37200118  0.13787451  0.59659537  1
  Na  Na14  1  0.36363594  0.12840755  0.90747373  1
  Na  Na15  1  0.36926611  0.63096270  0.25042876  1
  Na  Na16  1  0.36726239  0.64137775  0.58493156  1
  Na  Na17  1  0.36829594  0.63390633  0.91918212  1
  Na  Na18  1  0.86544000  0.12244651  0.24000527  1
  Na  Na19  1  0.86538231  0.13429721  0.58351131  1
  Na  Na20  1  0.85779213  0.14303234  0.91948731  1
  Na  Na21  1  0.86917464  0.63261522  0.24144412  1
  Na  Na22  1  0.83981981  0.66052739  0.58690987  1
  Na  Na23  1  0.87360213  0.62750323  0.92653415  1
  Na  Na24  1  0.98032744  0.51080501  0.75589216  1
  Na  Na25  1  1.00171442  0.00834661  0.76467642  1
  Na  Na26  1  0.51025022  0.48327290  0.74759814  1
  Na  Na27  1  0.48977642  0.00127685  0.42235406  1
  Na  Na28  1  0.49635318  0.54653963  0.41601371  1
  Na  Na29  1  0.99453213  0.01419484  0.41752349  1
  Na  Na30  1  0.48480235  0.01330252  0.74839455  1
  Na  Na31  1  0.52915238  0.48393327  0.08408108  1
  Na  Na32  1  0.49587396  0.01027115  0.07885722  1
  Na  Na33  1  0.04189125  0.99066620  0.59879257  1
  Na  Na34  1  0.52932851  0.99149677  0.91078677  1
  Na  Na35  1  0.51282760  0.98322138  0.25093561  1
  Na  Na36  1  0.51036298  0.97235312  0.58831122  1
  Na  Na37  1  0.54199388  0.49041174  0.92123263  1
  Na  Na38  1  -0.04982800  1.00941241  0.97818260  1
  Na  Na39  1  -0.00119782  0.92148438  0.19582108  1
  Na  Na40  1  -0.03762400  0.53249577  0.09011924  1
  Na  Na41  1  0.49423100  0.51146428  0.57866918  1
  Na  Na42  1  0.24382160  0.74483109  0.00465140  1
  Na  Na43  1  0.24585729  0.74912134  0.67096177  1
  Na  Na44  1  0.75978107  0.25748124  0.32487312  1
  Na  Na45  1  0.25172006  0.24899578  -0.00083516  1
  Na  Na46  1  0.26252747  0.25507379  0.67046225  1
  Na  Na47  1  0.24949644  0.25068559  0.33490487  1
  Na  Na48  1  0.23553791  0.73382163  0.34050792  1
  Na  Na49  1  0.74597186  0.25091935  0.67337455  1
  Na  Na50  1  0.77201762  0.76684254  -0.02175174  1
  Na  Na51  1  0.74706792  0.74264225  0.33790344  1
  Na  Na52  1  0.24075337  0.74094551  0.50326879  1
  Na  Na53  1  0.74531887  0.25311958  0.85555145  1
  Na  Na54  1  0.76195579  0.75528739  0.15286320  1
  Na  Na55  1  0.24638257  0.23511976  0.83043513  1
  Na  Na56  1  0.25049010  0.24991252  0.16387740  1
  Na  Na57  1  0.25133901  0.24821025  0.50187456  1
  Na  Na58  1  0.24683558  0.74754977  0.83807212  1
  Na  Na59  1  0.76437538  0.25964587  0.15715779  1
  Na  Na60  1  0.75235050  0.25518431  0.49770333  1
  Na  Na61  1  0.22690008  0.73152817  0.17426463  1
  Fe  Fe62  1  0.96336576  0.80612706  0.45233572  1
  Fe  Fe63  1  0.47014465  0.80253398  0.78332092  1
  Fe  Fe64  1  0.47057316  0.79915841  0.45454533  1
  Fe  Fe65  1  0.96506612  0.31180012  0.45796296  1
  Fe  Fe66  1  0.96332092  0.31777577  0.79357869  1
  Fe  Fe67  1  0.46862174  0.30962415  0.12221171  1
  Fe  Fe68  1  0.95980967  0.81439787  0.78664761  1
  Fe  Fe69  1  0.46463392  0.30788545  0.45341790  1
  Fe  Fe70  1  0.46397486  0.80524918  0.11850679  1
  Fe  Fe71  1  0.96524845  0.31310073  0.12279805  1
  Fe  Fe72  1  0.69105109  0.53571763  0.38417620  1
  Fe  Fe73  1  0.18958400  0.53674611  0.70863122  1
  Fe  Fe74  1  0.69725798  0.03562263  0.71899468  1
  Fe  Fe75  1  0.18025232  0.53536967  0.37100192  1
  Fe  Fe76  1  0.18828368  0.03586246  0.04445268  1
  Fe  Fe77  1  0.69364302  0.03582183  0.04506600  1
  Fe  Fe78  1  0.69431565  0.03340593  0.38342025  1
  Fe  Fe79  1  0.69252429  0.53931880  0.71985771  1
  Fe  Fe80  1  0.19139536  0.03291836  0.37647970  1
  Fe  Fe81  1  0.19280776  0.53100651  0.04384369  1
  Fe  Fe82  1  0.03493729  0.19764160  0.88228593  1
  Fe  Fe83  1  0.53933689  0.68415009  0.21068390  1
  Fe  Fe84  1  0.53285290  0.19507568  0.55037257  1
  Fe  Fe85  1  0.53571584  0.19394213  0.21567042  1
  Fe  Fe86  1  0.03277884  0.68698141  0.54263213  1
  Fe  Fe87  1  0.03194387  0.18986531  0.21225083  1
  Fe  Fe88  1  0.52879433  0.20046691  0.87471016  1
  Fe  Fe89  1  0.03577795  0.19472718  0.55101865  1
  Fe  Fe90  1  0.53537763  0.68905648  0.88116454  1
  Fe  Fe91  1  0.03313714  0.69438823  0.87924177  1
  Fe  Fe92  1  0.30559139  0.46327450  0.28429492  1
  Fe  Fe93  1  0.81352562  0.96279868  0.62242998  1
  Fe  Fe94  1  0.29979493  0.96536270  0.62117543  1
  Fe  Fe95  1  0.80583980  0.96501485  0.28537933  1
  Fe  Fe96  1  0.80306059  0.46704336  0.61875308  1
  Fe  Fe97  1  0.30934860  0.46492787  0.94915093  1
  Fe  Fe98  1  0.30553583  0.96864795  0.95050966  1
  Fe  Fe99  1  0.81090278  0.46915808  0.29008540  1
  Fe  Fe100  1  0.30876730  0.46519897  0.62044199  1
  Fe  Fe101  1  0.31048798  0.96489269  0.28506607  1
  S  S102  1  0.36190866  0.14067453  0.08545233  1
  S  S103  1  0.36041856  0.13819450  0.41628741  1
  S  S104  1  0.36005663  0.13526622  0.74970375  1
  S  S105  1  0.35911647  0.63907125  0.08444549  1
  S  S106  1  0.35576973  0.63762973  0.41360657  1
  S  S107  1  0.35923806  0.64184880  0.74753254  1
  S  S108  1  0.86069475  0.14329471  0.08434116  1
  S  S109  1  0.85884830  0.14195461  0.41779823  1
  S  S110  1  0.85998096  0.14372064  0.75178070  1
  S  S111  1  0.85146024  0.64660204  0.08645637  1
  S  S112  1  0.85673175  0.64369582  0.42378942  1
  S  S113  1  0.86017615  0.63953784  0.74543518  1
  S  S114  1  0.14272973  0.35441169  0.25161251  1
  S  S115  1  0.14261566  0.35797339  0.58521867  1
  S  S116  1  0.14579423  0.35772801  0.91159798  1
  S  S117  1  0.15101256  0.85717712  0.25083277  1
  S  S118  1  0.14041951  0.85616536  0.58066304  1
  S  S119  1  0.14183443  0.86187111  0.91478659  1
  S  S120  1  0.64173837  0.35789577  0.25063276  1
  S  S121  1  0.63858764  0.35907022  0.58587773  1
  S  S122  1  0.63020312  0.35897209  0.91690606  1
  S  S123  1  0.63919887  0.85936992  0.25077711  1
  S  S124  1  0.64100908  0.86531571  0.58550432  1
  S  S125  1  0.63587296  0.86027695  0.91906590  1
  S  S126  1  0.06693720  0.17110968  0.04254702  1
  S  S127  1  0.06750983  0.17006745  0.37815212  1
  S  S128  1  0.06025868  0.17143205  0.71170597  1
  S  S129  1  0.07600324  0.66322145  0.03670730  1
  S  S130  1  0.06231449  0.67171704  0.37690808  1
  S  S131  1  0.07185263  0.67711979  0.71089173  1
  S  S132  1  0.56693429  0.17199817  0.04264934  1
  S  S133  1  0.56521128  0.16583419  0.37595503  1
  S  S134  1  0.56923629  0.16665227  0.70986775  1
  S  S135  1  0.56015001  0.66593266  0.04445076  1
  S  S136  1  0.56920178  0.67269758  0.37276816  1
  S  S137  1  0.56064286  0.66053609  0.70719313  1
  S  S138  1  0.33039160  0.43001806  0.12265725  1
  S  S139  1  0.32871028  0.43234207  0.45658269  1
  S  S140  1  0.33406058  0.44182347  0.78903038  1
  S  S141  1  0.33473059  0.93504859  0.12368441  1
  S  S142  1  0.33071925  0.93258432  0.45835200  1
  S  S143  1  0.33741485  0.92770242  0.79349947  1
  S  S144  1  0.84468176  0.43533169  0.13778762  1
  S  S145  1  0.82338644  0.42812324  0.45511665  1
  S  S146  1  0.82808442  0.43649175  0.78898747  1
  S  S147  1  0.81605888  0.93098210  0.11776418  1
  S  S148  1  0.83248737  0.93727339  0.45988354  1
  S  S149  1  0.83698639  0.94367425  0.79310318  1
  S  S150  1  0.43184028  0.32870081  0.29123735  1
  S  S151  1  0.43519477  0.33086200  0.62262689  1
  S  S152  1  0.42799265  0.32546238  0.95838950  1
  S  S153  1  0.43435498  0.82998991  0.29155177  1
  S  S154  1  0.42903645  0.83212619  0.62278734  1
  S  S155  1  0.42871302  0.83218672  0.95813815  1
  S  S156  1  0.93146868  0.32318330  0.29280716  1
  S  S157  1  0.93217251  0.33013457  0.62545267  1
  S  S158  1  0.93936121  0.33417613  0.95944660  1
  S  S159  1  0.93092320  0.83965152  0.29641039  1
  S  S160  1  0.93898984  0.84108612  0.62751156  1
  S  S161  1  0.93479720  0.82397212  0.94898067  1
  S  S162  1  0.17497402  0.07083783  0.21029051  1
  S  S163  1  0.17098443  0.06777889  0.54091588  1
  S  S164  1  0.17123626  0.06936223  0.87792385  1
  S  S165  1  0.16885743  0.56039337  0.20731194  1
  S  S166  1  0.17445246  0.56802725  0.54266347  1
  S  S167  1  0.17247756  0.56805480  0.87176874  1
  S  S168  1  0.66540745  0.06589206  0.20982967  1
  S  S169  1  0.66752282  0.07182272  0.54281778  1
  S  S170  1  0.66313275  0.07462015  0.87515417  1
  S  S171  1  0.67383848  0.56242904  0.21406165  1
  S  S172  1  0.66133130  0.55864911  0.54105387  1
  S  S173  1  0.66171178  0.56863878  0.87592885  1
  O  O174  1  0.36939673  0.22128143  0.08143457  1
  O  O175  1  0.36971274  0.21589296  0.40563928  1
  O  O176  1  0.36826390  0.20890711  0.73503433  1
  O  O177  1  0.36654076  0.71814527  0.07542433  1
  O  O178  1  0.36811219  0.71598500  0.40496149  1
  O  O179  1  0.37119672  0.71857396  0.73531882  1
  O  O180  1  0.87200842  0.22552752  0.08519076  1
  O  O181  1  0.86704507  0.22300787  0.41496127  1
  O  O182  1  0.86806023  0.22329291  0.74512502  1
  O  O183  1  0.84460549  0.72393387  0.07424414  1
  O  O184  1  0.86585007  0.72275380  0.41480964  1
  O  O185  1  0.87210205  0.71728347  0.73712493  1
  O  O186  1  0.28402968  0.12946531  0.09483162  1
  O  O187  1  0.27990291  0.12998436  0.42087464  1
  O  O188  1  0.28770963  0.12287775  0.76495026  1
  O  O189  1  0.28108090  0.62919568  0.09381334  1
  O  O190  1  0.27260200  0.63033188  0.41350113  1
  O  O191  1  0.27756028  0.63658491  0.75058741  1
  O  O192  1  0.78340485  0.13395243  0.09636484  1
  O  O193  1  0.78084695  0.13139255  0.42792226  1
  O  O194  1  0.78297480  0.13490566  0.76433291  1
  O  O195  1  0.78104371  0.62700612  0.10499265  1
  O  O196  1  0.77724709  0.63283919  0.42944545  1
  O  O197  1  0.78298063  0.62935342  0.75474212  1
  O  O198  1  0.13157710  0.27549728  0.25981480  1
  O  O199  1  0.13433394  0.27952545  0.59570948  1
  O  O200  1  0.13903252  0.27616264  0.91500201  1
  O  O201  1  0.14516123  0.78369911  0.26637226  1
  O  O202  1  0.13352696  0.77419096  0.58328805  1
  O  O203  1  0.13690786  0.78154625  0.92048020  1
  O  O204  1  0.62924029  0.27815224  0.25864268  1
  O  O205  1  0.62825199  0.27969506  0.59377926  1
  O  O206  1  0.61963718  0.27501769  0.92285052  1
  O  O207  1  0.62950420  0.78012173  0.25659027  1
  O  O208  1  0.63429352  0.79141564  0.59757618  1
  O  O209  1  0.61812583  0.78543689  0.93315495  1
  O  O210  1  0.22412724  0.36120750  0.24723841  1
  O  O211  1  0.22249708  0.36604287  0.57831634  1
  O  O212  1  0.22355024  0.36800252  0.90022096  1
  O  O213  1  0.23350165  0.87085807  0.24927907  1
  O  O214  1  0.21904059  0.86665745  0.57110019  1
  O  O215  1  0.22013791  0.87370738  0.90465774  1
  O  O216  1  0.72301694  0.36389933  0.24753932  1
  O  O217  1  0.71740323  0.36495558  0.57670098  1
  O  O218  1  0.70791376  0.36639305  0.90999013  1
  O  O219  1  0.71727538  0.86999686  0.24275057  1
  O  O220  1  0.71584575  0.88204077  0.57197155  1
  O  O221  1  0.71452437  0.86597490  0.91682437  1
  O  O222  1  0.42265931  0.13017752  0.15175414  1
  O  O223  1  0.41712371  0.13128288  0.48589105  1
  O  O224  1  0.42681168  0.12956786  0.81754618  1
  O  O225  1  0.41892336  0.63215150  0.15183268  1
  O  O226  1  0.40958278  0.62816147  0.48156571  1
  O  O227  1  0.41319710  0.63810477  0.81927269  1
  O  O228  1  0.92150774  0.13004436  0.14992176  1
  O  O229  1  0.92002277  0.13021906  0.48292691  1
  O  O230  1  0.92219272  0.13276876  0.81622509  1
  O  O231  1  0.91974619  0.64969018  0.15322815  1
  O  O232  1  0.91385715  0.64138517  0.49541314  1
  O  O233  1  0.92190725  0.62680462  0.81020118  1
  O  O234  1  0.37028187  0.08402487  0.01620301  1
  O  O235  1  0.37226688  0.07787792  0.35057780  1
  O  O236  1  0.37038937  0.07082908  0.68443855  1
  O  O237  1  0.36566112  0.58040674  0.01562041  1
  O  O238  1  0.36682874  0.57768874  0.34639111  1
  O  O239  1  0.36977179  0.57971242  0.68290613  1
  O  O240  1  0.86415461  0.08918333  0.01397998  1
  O  O241  1  0.86420235  0.08621996  0.34727846  1
  O  O242  1  0.86329604  0.08596596  0.68091359  1
  O  O243  1  0.86154448  0.58801441  0.02009575  1
  O  O244  1  0.86824250  0.58458727  0.35849844  1
  O  O245  1  0.86655103  0.57991134  0.67560624  1
  O  O246  1  0.08757880  0.36117307  0.18220725  1
  O  O247  1  0.08496260  0.36197924  0.51527535  1
  O  O248  1  0.08527744  0.36939249  0.84713110  1
  O  O249  1  0.09803363  0.85782075  0.17871031  1
  O  O250  1  0.08126570  0.86721489  0.51375081  1
  O  O251  1  0.08160391  0.87171686  0.84941910  1
  O  O252  1  0.58648895  0.36301935  0.17962808  1
  O  O253  1  0.58003840  0.36477344  0.51610002  1
  O  O254  1  0.56994316  0.36600748  0.84995704  1
  O  O255  1  0.57891681  0.87096303  0.18455905  1
  O  O256  1  0.57745335  0.87306990  0.51740670  1
  O  O257  1  0.57850570  0.86509981  0.84704307  1
  O  O258  1  0.13522441  0.41379404  0.31920925  1
  O  O259  1  0.13339067  0.41775320  0.65135269  1
  O  O260  1  0.14282719  0.41188624  0.98343024  1
  O  O261  1  0.13600052  0.92160134  0.31336682  1
  O  O262  1  0.13360999  0.91176472  0.64921431  1
  O  O263  1  0.13871830  0.91836607  0.98619260  1
  O  O264  1  0.63088864  0.41625879  0.31674095  1
  O  O265  1  0.63042498  0.41825205  0.65269048  1
  O  O266  1  0.61914840  0.41249630  0.98537929  1
  O  O267  1  0.63146321  0.91801892  0.32013449  1
  O  O268  1  0.63131530  0.92954090  0.65161124  1
  O  O269  1  0.61975156  0.92435349  0.98138100  1
  O  O270  1  0.03339784  0.20272905  0.10496245  1
  O  O271  1  0.03064981  0.20002097  0.43910755  1
  O  O272  1  0.02478003  0.21184212  0.77132265  1
  O  O273  1  0.04884713  0.67954150  0.10066439  1
  O  O274  1  0.02749298  0.70193378  0.44118692  1
  O  O275  1  0.03516853  0.70566120  0.77108141  1
  O  O276  1  0.52610411  0.20016275  0.10078035  1
  O  O277  1  0.53011845  0.19635501  0.43751907  1
  O  O278  1  0.53343431  0.19158334  0.77012932  1
  O  O279  1  0.52457765  0.70443963  0.10641010  1
  O  O280  1  0.53210554  0.70097286  0.43226664  1
  O  O281  1  0.53092127  0.69694224  0.77380652  1
  O  O282  1  0.30089515  0.46605330  0.06130238  1
  O  O283  1  0.29851218  0.46749592  0.39564944  1
  O  O284  1  0.29335933  0.47664689  0.72748842  1
  O  O285  1  0.30540872  0.97103714  0.06287586  1
  O  O286  1  0.30283408  0.97181102  0.39917967  1
  O  O287  1  0.30760653  0.95445710  0.72845910  1
  O  O288  1  0.82170603  0.46438924  0.07508659  1
  O  O289  1  0.79490381  0.46622717  0.39537654  1
  O  O290  1  0.79393059  0.46735764  0.72288414  1
  O  O291  1  0.78525697  0.97622061  0.06596918  1
  O  O292  1  0.80142050  0.97527464  0.39947436  1
  O  O293  1  0.80165423  0.97532083  0.72679984  1
  O  O294  1  0.46915749  0.30025281  0.23067029  1
  O  O295  1  0.46363261  0.29530259  0.55538926  1
  O  O296  1  0.45947248  0.28890529  0.89638396  1
  O  O297  1  0.47024209  0.80179741  0.23044759  1
  O  O298  1  0.46082533  0.80935188  0.56000646  1
  O  O299  1  0.45951261  0.80096574  0.89447595  1
  O  O300  1  0.97283502  0.29759981  0.23513166  1
  O  O301  1  0.97058053  0.30040212  0.56518653  1
  O  O302  1  0.97958213  0.30011639  0.89893577  1
  O  O303  1  0.96812993  0.82545249  0.23915488  1
  O  O304  1  0.97429277  0.80909579  0.56614697  1
  O  O305  1  0.97353334  0.79164692  0.88588730  1
  O  O306  1  0.20694263  0.03349145  0.27050475  1
  O  O307  1  0.19886195  0.03166096  0.60034729  1
  O  O308  1  0.20340093  0.03764300  0.94366629  1
  O  O309  1  0.20185248  0.51978433  0.26674370  1
  O  O310  1  0.20447066  0.52745389  0.60115650  1
  O  O311  1  0.20231293  0.53070057  0.93177922  1
  O  O312  1  0.69600633  0.03017122  0.27146120  1
  O  O313  1  0.69892052  0.04226320  0.60688063  1
  O  O314  1  0.67766713  0.04097051  0.93650985  1
  O  O315  1  0.70340682  0.52929040  0.27902175  1
  O  O316  1  0.69774177  0.52364256  0.60308990  1
  O  O317  1  0.68043406  0.53567118  0.93613865  1
  O  O318  1  0.08423691  0.08954882  0.03876879  1
  O  O319  1  0.08605803  0.08922405  0.37544725  1
  O  O320  1  0.06776775  0.09061615  0.71157510  1
  O  O321  1  0.09682316  0.58076376  0.01571497  1
  O  O322  1  0.08663980  0.59336765  0.37824404  1
  O  O323  1  0.09281517  0.59690817  0.70813001  1
  O  O324  1  0.57979295  0.08843542  0.03716227  1
  O  O325  1  0.58048259  0.08269656  0.36980074  1
  O  O326  1  0.58408096  0.08256829  0.69761623  1
  O  O327  1  0.56482385  0.58421488  0.04091324  1
  O  O328  1  0.58797428  0.59183470  0.37074285  1
  O  O329  1  0.57797432  0.57801219  0.70558100  1
  O  O330  1  0.41062740  0.41039755  0.12630587  1
  O  O331  1  0.41011849  0.41315816  0.46075111  1
  O  O332  1  0.41509294  0.43619335  0.79126617  1
  O  O333  1  0.41773735  0.91849549  0.12940220  1
  O  O334  1  0.41350296  0.91663224  0.46368444  1
  O  O335  1  0.42224899  0.91466352  0.80495575  1
  O  O336  1  0.92881984  0.41792704  0.15233671  1
  O  O337  1  0.90220222  0.40560335  0.45779153  1
  O  O338  1  0.90865420  0.41602730  0.78635218  1
  O  O339  1  0.88946708  0.90579982  0.10940575  1
  O  O340  1  0.91590669  0.92529329  0.46862267  1
  O  O341  1  0.91639273  0.92219088  0.78864925  1
  O  O342  1  0.41276619  0.40953936  0.29826170  1
  O  O343  1  0.41304284  0.41072543  0.62081240  1
  O  O344  1  0.41105421  0.40631475  0.95882732  1
  O  O345  1  0.41988136  0.91417262  0.29777786  1
  O  O346  1  0.41265575  0.91627727  0.63566148  1
  O  O347  1  0.41342681  0.91537684  0.96586378  1
  O  O348  1  0.90675795  0.40078457  0.29783908  1
  O  O349  1  0.91093875  0.40971252  0.62855107  1
  O  O350  1  0.92806019  0.41404791  0.96368502  1
  O  O351  1  0.91073417  0.92378684  0.31440249  1
  O  O352  1  0.92922441  0.92620671  0.63446377  1
  O  O353  1  0.89588716  0.88970730  0.93294239  1
  O  O354  1  0.09581939  0.09053820  0.20936575  1
  O  O355  1  0.08854914  0.08677509  0.53682858  1
  O  O356  1  0.09363627  0.09651558  0.87958126  1
  O  O357  1  0.09018070  0.57549796  0.20451845  1
  O  O358  1  0.09667911  0.58971921  0.54330700  1
  O  O359  1  0.09216913  0.58902586  0.86511602  1
  O  O360  1  0.58269611  0.08256958  0.20657639  1
  O  O361  1  0.58386376  0.08650686  0.53447409  1
  O  O362  1  0.57894271  0.09563858  0.86066520  1
  O  O363  1  0.59167637  0.58230795  0.20847819  1
  O  O364  1  0.57831497  0.56318445  0.53475421  1
  O  O365  1  0.57426165  0.58221099  0.85911096  1
  O  O366  1  0.13899399  0.22148648  0.05598771  1
  O  O367  1  0.13913350  0.22248024  0.39496037  1
  O  O368  1  0.13553533  0.21675353  0.72563184  1
  O  O369  1  0.14697155  0.71865369  0.05212557  1
  O  O370  1  0.13418264  0.72633908  0.39651055  1
  O  O371  1  0.14295524  0.73102779  0.72781570  1
  O  O372  1  0.63978277  0.22154872  0.06329435  1
  O  O373  1  0.63735632  0.21543395  0.39083945  1
  O  O374  1  0.64182573  0.21734734  0.72758332  1
  O  O375  1  0.63421079  0.71243500  0.06133712  1
  O  O376  1  0.63855097  0.72455953  0.38514830  1
  O  O377  1  0.63114920  0.70716303  0.71672269  1
  O  O378  1  0.27669193  0.35943089  0.10715905  1
  O  O379  1  0.27686791  0.36135434  0.44292238  1
  O  O380  1  0.28822743  0.36634502  0.77306893  1
  O  O381  1  0.28430710  0.86388264  0.10887557  1
  O  O382  1  0.27968514  0.86032828  0.43990101  1
  O  O383  1  0.29000376  0.85560863  0.78416258  1
  O  O384  1  0.79453662  0.36426630  0.12763000  1
  O  O385  1  0.76803744  0.35749996  0.43710991  1
  O  O386  1  0.77861530  0.36373991  0.77485556  1
  O  O387  1  0.75836284  0.86428108  0.10334084  1
  O  O388  1  0.78297079  0.86421125  0.44029756  1
  O  O389  1  0.78619898  0.87561800  0.78231886  1
  O  O390  1  0.36141838  0.27439954  0.27355603  1
  O  O391  1  0.36494835  0.27928455  0.61131791  1
  O  O392  1  0.35685723  0.27613181  0.94894441  1
  O  O393  1  0.36250562  0.77973375  0.27515534  1
  O  O394  1  0.35687104  0.78109221  0.60689821  1
  O  O395  1  0.35719503  0.78287926  0.94679950  1
  O  O396  1  0.86369194  0.26400383  0.27328451  1
  O  O397  1  0.86234169  0.27496961  0.60774239  1
  O  O398  1  0.86838054  0.28029616  0.93903771  1
  O  O399  1  0.85985618  0.78622776  0.27786356  1
  O  O400  1  0.86450434  0.79727519  0.61258857  1
  O  O401  1  0.87916892  0.75957016  0.94093790  1
  O  O402  1  0.22865412  0.14163021  0.22654738  1
  O  O403  1  0.22242698  0.13958870  0.55565916  1
  O  O404  1  0.22748755  0.13671244  0.89118037  1
  O  O405  1  0.22470482  0.63149734  0.22852446  1
  O  O406  1  0.23032156  0.63802072  0.56133030  1
  O  O407  1  0.22706671  0.63850788  0.88886417  1
  O  O408  1  0.71592663  0.13757062  0.22569236  1
  O  O409  1  0.71609433  0.14367097  0.55355378  1
  O  O410  1  0.71771839  0.14320227  0.89219096  1
  O  O411  1  0.72522946  0.63399402  0.23122408  1
  O  O412  1  0.70552985  0.63234161  0.55493661  1
  O  O413  1  0.70883247  0.64092543  0.88781342  1
  O  O414  1  0.48962957  0.33386099  0.03194114  1
  O  O415  1  0.49094286  0.32839724  0.36307413  1
  O  O416  1  0.49898198  0.33975824  0.69122279  1
  O  O417  1  0.48985258  0.83395107  0.02981359  1
  O  O418  1  0.49277703  0.83336370  0.36482854  1
  O  O419  1  0.48977282  0.82902784  0.69233434  1
  O  O420  1  0.99597512  0.32971574  0.03164359  1
  O  O421  1  0.99005240  0.32604549  0.36630744  1
  O  O422  1  0.99151084  0.33403106  0.69808089  1
  O  O423  1  0.99886248  0.84809829  0.02039367  1
  O  O424  1  0.98903534  0.83775341  0.36956464  1
  O  O425  1  0.99749653  0.84049918  0.69980196  1
  O  O426  1  0.17228437  0.01219224  0.13751086  1
  O  O427  1  0.16538390  0.00934636  0.46646060  1
  O  O428  1  0.16074320  0.00627607  0.80828860  1
  O  O429  1  0.17194506  0.50449317  0.13455420  1
  O  O430  1  0.17112855  0.51082665  0.46913039  1
  O  O431  1  0.16928188  0.50863271  0.79895495  1
  O  O432  1  0.65997927  0.00767839  0.13650619  1
  O  O433  1  0.66561923  0.00963443  0.47141721  1
  O  O434  1  0.66327998  0.01223106  0.80536729  1
  O  O435  1  0.66931977  0.50045325  0.14492021  1
  O  O436  1  0.66362959  0.50060042  0.46774716  1
  O  O437  1  0.66253976  0.50813982  0.80272638  1
  O  O438  1  0.00950169  0.16684784  0.30527811  1
  O  O439  1  0.00499934  0.16992881  0.63647709  1
  O  O440  1  0.00692460  0.16784577  0.97057410  1
  O  O441  1  0.00395418  0.66883778  0.30764922  1
  O  O442  1  0.01385109  0.67418944  0.63839346  1
  O  O443  1  0.01493114  0.66925219  0.96793856  1
  O  O444  1  0.50594611  0.16475133  0.30386865  1
  O  O445  1  0.50988523  0.16948132  0.63880156  1
  O  O446  1  0.51153834  0.17121004  0.96816678  1
  O  O447  1  0.50854400  0.66707511  0.29901265  1
  O  O448  1  0.49604321  0.65256123  0.63835911  1
  O  O449  1  0.50362432  0.66964207  0.97203625  1
  O  O450  1  0.33317752  0.48876833  0.19531605  1
  O  O451  1  0.33395476  0.49214166  0.52996281  1
  O  O452  1  0.33134314  0.49712368  0.86220365  1
  O  O453  1  0.33898999  0.99454770  0.19705727  1
  O  O454  1  0.33189430  0.98997655  0.53149232  1
  O  O455  1  0.33532749  0.99076874  0.86304975  1
  O  O456  1  0.84298734  0.49639693  0.20959079  1
  O  O457  1  0.82624035  0.48619338  0.52751959  1
  O  O458  1  0.83311518  0.49705519  0.85757442  1
  O  O459  1  0.82904852  0.98643886  0.19726166  1
  O  O460  1  0.82898658  0.99469285  0.53146149  1
  O  O461  1  0.84814999  1.00885560  0.86209929  1
