# generated using pymatgen
data_Na31Fe20(SO4)36
_symmetry_space_group_name_H-M   'P 1'
_cell_length_a   18.07120458
_cell_length_b   18.07102858
_cell_length_c   19.70451713
_cell_angle_alpha   107.57228845
_cell_angle_beta   107.57494405
_cell_angle_gamma   90.74429073
_symmetry_Int_Tables_number   1
_chemical_formula_structural   Na31Fe20(SO4)36
_chemical_formula_sum   'Na62 Fe40 S72 O288'
_cell_volume   5809.66942419
_cell_formula_units_Z   2
loop_
 _symmetry_equiv_pos_site_id
 _symmetry_equiv_pos_as_xyz
  1  'x, y, z'
loop_
 _atom_site_type_symbol
 _atom_site_label
 _atom_site_symmetry_multiplicity
 _atom_site_fract_x
 _atom_site_fract_y
 _atom_site_fract_z
 _atom_site_occupancy
  Na  Na0  1  0.14087625  0.37213023  0.08466486  1
  Na  Na1  1  0.13443206  0.36768693  0.41440806  1
  Na  Na2  1  0.13772427  0.36772326  0.74624096  1
  Na  Na3  1  0.13033048  0.86110831  0.07851375  1
  Na  Na4  1  0.13217146  0.87147502  0.43265234  1
  Na  Na5  1  0.16169608  0.83672777  0.74615162  1
  Na  Na6  1  0.62714510  0.35632675  0.07137751  1
  Na  Na7  1  0.63933519  0.36907677  0.42751071  1
  Na  Na8  1  0.62424581  0.36149436  0.74865566  1
  Na  Na9  1  0.63346595  0.86763069  0.07569035  1
  Na  Na10  1  0.63244898  0.86201748  0.41053902  1
  Na  Na11  1  0.63048581  0.86729557  0.74925650  1
  Na  Na12  1  0.36285284  0.14223676  0.25601341  1
  Na  Na13  1  0.37170078  0.12915304  0.59153355  1
  Na  Na14  1  0.37602976  0.13958605  0.92005560  1
  Na  Na15  1  0.35782082  0.63371955  0.24162836  1
  Na  Na16  1  0.36450304  0.65329440  0.59710387  1
  Na  Na17  1  0.36355851  0.63965919  0.91433791  1
  Na  Na18  1  0.86911806  0.12300163  0.24233385  1
  Na  Na19  1  0.87123385  0.13430177  0.58420859  1
  Na  Na20  1  0.87158371  0.13105086  0.91740927  1
  Na  Na21  1  0.86700131  0.64136100  0.25721066  1
  Na  Na22  1  0.85575446  0.62632523  0.57773975  1
  Na  Na23  1  0.86337265  0.63346193  0.92095903  1
  Na  Na24  1  1.02604847  -0.02216818  0.74810145  1
  Na  Na25  1  0.47812147  0.03883414  0.74708644  1
  Na  Na26  1  0.48323579  0.51456737  0.41673188  1
  Na  Na27  1  0.48521560  0.00703790  0.43448881  1
  Na  Na28  1  0.48680854  0.56024131  0.77866317  1
  Na  Na29  1  0.98093507  0.00017767  0.09151176  1
  Na  Na30  1  0.99723749  0.51165197  0.08654368  1
  Na  Na31  1  0.48636493  0.51880644  0.07786252  1
  Na  Na32  1  0.95918382  0.51174002  0.73551540  1
  Na  Na33  1  0.50852938  0.43977909  0.88651228  1
  Na  Na34  1  0.51739857  0.48811065  0.24855591  1
  Na  Na35  1  0.51276711  0.48928661  0.59199090  1
  Na  Na36  1  0.51145553  0.98858278  0.23731913  1
  Na  Na37  1  0.04215874  0.49106250  0.92483763  1
  Na  Na38  1  -0.00334211  0.49859852  0.56524458  1
  Na  Na39  1  0.53745869  0.99739439  0.93623159  1
  Na  Na40  1  0.00306116  0.48923225  0.26536069  1
  Na  Na41  1  0.01326959  0.98186549  0.53359121  1
  Na  Na42  1  0.72629475  0.21851132  0.00538750  1
  Na  Na43  1  0.24184716  0.74861308  0.34173771  1
  Na  Na44  1  0.74350421  0.24897488  0.67282240  1
  Na  Na45  1  0.76709409  0.76487866  0.32043927  1
  Na  Na46  1  0.74829477  0.74779611  0.66882803  1
  Na  Na47  1  0.26424452  0.25956531  0.66162414  1
  Na  Na48  1  0.73396559  0.73682411  0.01139457  1
  Na  Na49  1  0.25556154  0.25669316  -0.00092833  1
  Na  Na50  1  0.25846567  0.75734073  -0.01474032  1
  Na  Na51  1  0.74530301  0.24212397  0.33636223  1
  Na  Na52  1  0.73646860  0.23877342  0.84047362  1
  Na  Na53  1  0.24255232  0.24390186  0.17778303  1
  Na  Na54  1  0.27012237  0.26200286  0.82633900  1
  Na  Na55  1  0.73243214  0.73841177  0.84244691  1
  Na  Na56  1  0.76555431  0.75817535  0.49018273  1
  Na  Na57  1  0.26050254  0.26033377  0.48735036  1
  Na  Na58  1  0.74023732  0.23048887  0.17131196  1
  Na  Na59  1  0.24037023  0.74300046  0.16621534  1
  Na  Na60  1  0.75607796  0.25742954  0.50502458  1
  Na  Na61  1  0.24280315  0.75199198  0.51572463  1
  Fe  Fe62  1  0.96847958  0.30493260  0.78112717  1
  Fe  Fe63  1  0.46530208  0.81376625  0.45853814  1
  Fe  Fe64  1  0.46042954  0.31056837  0.45204770  1
  Fe  Fe65  1  0.96911085  0.30464347  0.11556276  1
  Fe  Fe66  1  0.46595101  0.80521815  0.78854971  1
  Fe  Fe67  1  0.96734985  0.30318239  0.44927441  1
  Fe  Fe68  1  0.96101246  0.81022563  0.12301656  1
  Fe  Fe69  1  0.46860990  0.80132245  0.11244345  1
  Fe  Fe70  1  0.96406625  0.81142004  0.79035428  1
  Fe  Fe71  1  0.46223438  0.30873238  0.11762545  1
  Fe  Fe72  1  0.69155281  0.03392402  0.70933130  1
  Fe  Fe73  1  0.70255450  0.52878860  0.71578144  1
  Fe  Fe74  1  0.18232039  0.54639549  0.71174327  1
  Fe  Fe75  1  0.19361896  0.03049297  0.04413804  1
  Fe  Fe76  1  0.69164632  0.03710257  0.37861730  1
  Fe  Fe77  1  0.69056942  0.53426338  0.04657516  1
  Fe  Fe78  1  0.69438388  0.52917633  0.38384228  1
  Fe  Fe79  1  0.20683320  0.02486646  0.71038384  1
  Fe  Fe80  1  0.19261180  0.53921396  0.38445260  1
  Fe  Fe81  1  0.19322666  0.03241908  0.38164938  1
  Fe  Fe82  1  0.03947253  0.19011000  0.54486927  1
  Fe  Fe83  1  0.04027865  0.19142077  0.21469553  1
  Fe  Fe84  1  0.03236766  0.69822841  0.21932533  1
  Fe  Fe85  1  0.53082645  0.19823265  0.55016130  1
  Fe  Fe86  1  0.53441086  0.18460147  0.20862545  1
  Fe  Fe87  1  0.53753681  0.69158927  0.21415708  1
  Fe  Fe88  1  0.02649550  0.69805211  0.54581840  1
  Fe  Fe89  1  0.03171283  0.69505975  0.88300730  1
  Fe  Fe90  1  0.53608802  0.69458473  0.55036671  1
  Fe  Fe91  1  0.03946757  0.18648147  0.87575273  1
  Fe  Fe92  1  0.30668932  0.96296630  0.28481335  1
  Fe  Fe93  1  0.30518012  0.47400701  0.62161651  1
  Fe  Fe94  1  0.80865673  0.45991716  0.28612958  1
  Fe  Fe95  1  0.29466029  0.47363659  0.95441878  1
  Fe  Fe96  1  0.30369496  0.46952808  0.28492898  1
  Fe  Fe97  1  0.80885772  0.96592473  0.61850345  1
  Fe  Fe98  1  0.81409709  0.46051617  0.95412398  1
  Fe  Fe99  1  0.81035738  0.96246302  0.28516173  1
  Fe  Fe100  1  0.79907425  0.96743161  0.95246842  1
  Fe  Fe101  1  0.31340455  0.96325486  0.95148892  1
  S  S102  1  0.35645454  0.14174638  0.08683618  1
  S  S103  1  0.36016150  0.13880329  0.41493607  1
  S  S104  1  0.35349138  0.14220899  0.75268183  1
  S  S105  1  0.35838496  0.64305548  0.08603016  1
  S  S106  1  0.36012720  0.64420665  0.41776520  1
  S  S107  1  0.34906522  0.64917967  0.74671569  1
  S  S108  1  0.86582839  0.13929618  0.07996036  1
  S  S109  1  0.86006587  0.13994266  0.41525170  1
  S  S110  1  0.86185681  0.14125868  0.74830585  1
  S  S111  1  0.86017830  0.63658161  0.08553079  1
  S  S112  1  0.85545828  0.63515753  0.41528969  1
  S  S113  1  0.85670385  0.64671482  0.75520951  1
  S  S114  1  0.13893516  0.36237377  0.24979024  1
  S  S115  1  0.14034492  0.36317438  0.58046238  1
  S  S116  1  0.14133565  0.35346172  0.91171565  1
  S  S117  1  0.14048438  0.86016797  0.24898310  1
  S  S118  1  0.13480875  0.86101623  0.59052493  1
  S  S119  1  0.14034702  0.85917316  0.91562825  1
  S  S120  1  0.64038208  0.35709053  0.25062893  1
  S  S121  1  0.63846907  0.36048601  0.58320144  1
  S  S122  1  0.65112535  0.35582847  0.92268760  1
  S  S123  1  0.63874564  0.86022559  0.25086229  1
  S  S124  1  0.64444365  0.85712258  0.57843987  1
  S  S125  1  0.64289225  0.85632733  0.91418942  1
  S  S126  1  0.07544554  0.17249481  0.04226305  1
  S  S127  1  0.07198713  0.17198071  0.37689449  1
  S  S128  1  0.07428354  0.16522574  0.70766059  1
  S  S129  1  0.05825166  0.67048398  0.04450628  1
  S  S130  1  0.06963798  0.67245261  0.37948581  1
  S  S131  1  0.05324922  0.66424472  0.70525999  1
  S  S132  1  0.56167386  0.17378743  0.04900600  1
  S  S133  1  0.56646729  0.17285853  0.37675225  1
  S  S134  1  0.57029849  0.16492219  0.70491578  1
  S  S135  1  0.56240553  0.66273739  0.03999732  1
  S  S136  1  0.56697681  0.66518978  0.37522909  1
  S  S137  1  0.56709716  0.66335744  0.70726771  1
  S  S138  1  0.33062025  0.43539522  0.12706972  1
  S  S139  1  0.33048534  0.43997196  0.45901402  1
  S  S140  1  0.32407880  0.44806822  0.78853532  1
  S  S141  1  0.32917697  0.92870853  0.12286575  1
  S  S142  1  0.32982576  0.93524340  0.45632452  1
  S  S143  1  0.34025808  0.93694105  0.80044910  1
  S  S144  1  0.83660548  0.42855893  0.12603352  1
  S  S145  1  0.83057165  0.42768606  0.45514395  1
  S  S146  1  0.83889093  0.43330203  0.79472824  1
  S  S147  1  0.82860658  0.93152273  0.12034512  1
  S  S148  1  0.82495035  0.93385481  0.45266718  1
  S  S149  1  0.82741415  0.93411878  0.78889485  1
  S  S150  1  0.43343519  0.33665097  0.29272875  1
  S  S151  1  0.43027901  0.33601864  0.62294185  1
  S  S152  1  0.42835654  0.34434614  0.96360914  1
  S  S153  1  0.43327193  0.82952808  0.29022054  1
  S  S154  1  0.44082693  0.83284375  0.62479304  1
  S  S155  1  0.43383093  0.83254560  0.95889622  1
  S  S156  1  0.93269796  0.32329379  0.28593912  1
  S  S157  1  0.94202736  0.32932088  0.62071705  1
  S  S158  1  0.93956850  0.32750300  0.95462220  1
  S  S159  1  0.93721533  0.83249894  0.29293791  1
  S  S160  1  0.92578182  0.82698734  0.62722836  1
  S  S161  1  0.92712915  0.83151515  0.95786407  1
  S  S162  1  0.17088256  0.06511964  0.20638105  1
  S  S163  1  0.17274895  0.06817232  0.54540735  1
  S  S164  1  0.17930136  0.06814908  0.87736409  1
  S  S165  1  0.16487660  0.56757633  0.21141869  1
  S  S166  1  0.16531059  0.57158557  0.54139683  1
  S  S167  1  0.16105573  0.56706576  0.87099561  1
  S  S168  1  0.66929079  0.06201531  0.20991004  1
  S  S169  1  0.67195287  0.07156155  0.54073609  1
  S  S170  1  0.66683805  0.06211442  0.86984192  1
  S  S171  1  0.66974931  0.56290779  0.21124684  1
  S  S172  1  0.66490067  0.56645330  0.54291827  1
  S  S173  1  0.67366805  0.55641784  0.87784127  1
  O  O174  1  0.36397810  0.22218801  0.08108361  1
  O  O175  1  0.36988332  0.21763797  0.40721923  1
  O  O176  1  0.35201494  0.22275705  0.75006744  1
  O  O177  1  0.37033109  0.72225248  0.07808167  1
  O  O178  1  0.37093718  0.72257532  0.40937360  1
  O  O179  1  0.36618680  0.72383071  0.73392555  1
  O  O180  1  0.88061424  0.21436533  0.06547357  1
  O  O181  1  0.87023643  0.21956471  0.40776603  1
  O  O182  1  0.87257010  0.21906149  0.73719350  1
  O  O183  1  0.86579080  0.71351307  0.07307565  1
  O  O184  1  0.85650085  0.71211109  0.40561518  1
  O  O185  1  0.86389383  0.72932907  0.75527072  1
  O  O186  1  0.27679938  0.13028369  0.09366367  1
  O  O187  1  0.28202288  0.12990615  0.42397685  1
  O  O188  1  0.27084571  0.12373667  0.75916070  1
  O  O189  1  0.28554382  0.63612199  0.10188506  1
  O  O190  1  0.28069649  0.63664996  0.42493615  1
  O  O191  1  0.26676394  0.64157966  0.74502469  1
  O  O192  1  0.78938980  0.13798551  0.09067615  1
  O  O193  1  0.78050935  0.13530799  0.42432188  1
  O  O194  1  0.78242475  0.13458002  0.75535226  1
  O  O195  1  0.78085601  0.62377963  0.09084517  1
  O  O196  1  0.77952133  0.62060282  0.43003718  1
  O  O197  1  0.77760964  0.63361062  0.76283093  1
  O  O198  1  0.13115282  0.28294012  0.25600210  1
  O  O199  1  0.13515173  0.28417274  0.58943372  1
  O  O200  1  0.13477660  0.27161769  0.91451756  1
  O  O201  1  0.13240802  0.77961278  0.25494139  1
  O  O202  1  0.11809181  0.78561274  0.60361150  1
  O  O203  1  0.12744209  0.78074890  0.92504423  1
  O  O204  1  0.63041489  0.27747803  0.25688249  1
  O  O205  1  0.62729571  0.28094370  0.59083778  1
  O  O206  1  0.64268176  0.28328178  0.93923411  1
  O  O207  1  0.62899954  0.78331924  0.26374544  1
  O  O208  1  0.63712913  0.77672458  0.58407901  1
  O  O209  1  0.64290087  0.77798079  0.92148559  1
  O  O210  1  0.21758780  0.37338180  0.24168792  1
  O  O211  1  0.21915708  0.37513974  0.57219666  1
  O  O212  1  0.22084128  0.36662025  0.90573586  1
  O  O213  1  0.21927047  0.86790431  0.23873794  1
  O  O214  1  0.21109913  0.86442371  0.58009288  1
  O  O215  1  0.22135504  0.86759700  0.91385982  1
  O  O216  1  0.71914846  0.36463944  0.24166237  1
  O  O217  1  0.71254890  0.36802491  0.56962517  1
  O  O218  1  0.73302753  0.36605806  0.91865514  1
  O  O219  1  0.71914550  0.86876660  0.24805891  1
  O  O220  1  0.72288195  0.86860024  0.56933902  1
  O  O221  1  0.72101234  0.87210086  0.90212505  1
  O  O222  1  0.41424009  0.13580002  0.15679821  1
  O  O223  1  0.42063459  0.12899544  0.48183700  1
  O  O224  1  0.41115571  0.13362907  0.81934386  1
  O  O225  1  0.42416625  0.63063206  0.14903038  1
  O  O226  1  0.41830013  0.63394713  0.48512298  1
  O  O227  1  0.40218019  0.64209704  0.81647069  1
  O  O228  1  0.92715037  0.13003637  0.14699066  1
  O  O229  1  0.91829403  0.13106493  0.48294966  1
  O  O230  1  0.92008977  0.13571458  0.81784194  1
  O  O231  1  0.91882440  0.63232262  0.15583531  1
  O  O232  1  0.91826819  0.62857415  0.48156805  1
  O  O233  1  0.91583606  0.63591117  0.82281845  1
  O  O234  1  0.36536523  0.08449667  0.01940898  1
  O  O235  1  0.36829968  0.07947636  0.34671739  1
  O  O236  1  0.36086181  0.08675926  0.68384771  1
  O  O237  1  0.36041101  0.58470690  0.01463154  1
  O  O238  1  0.36830098  0.58420477  0.34964769  1
  O  O239  1  0.36288684  0.58541369  0.68165816  1
  O  O240  1  0.87109421  0.07533594  0.01265596  1
  O  O241  1  0.86526100  0.08175203  0.34621135  1
  O  O242  1  0.87002379  0.08071848  0.68134585  1
  O  O243  1  0.87470874  0.57586725  0.02114846  1
  O  O244  1  0.86100064  0.57513126  0.34602841  1
  O  O245  1  0.86519342  0.59251716  0.68672061  1
  O  O246  1  0.07933144  0.37166882  0.18227647  1
  O  O247  1  0.08030375  0.36880671  0.51141549  1
  O  O248  1  0.08354408  0.36205401  0.84233610  1
  O  O249  1  0.08140849  0.86886465  0.18176385  1
  O  O250  1  0.07351431  0.87376696  0.52822780  1
  O  O251  1  0.08453823  0.86424757  0.84450928  1
  O  O252  1  0.58137341  0.37033408  0.18539555  1
  O  O253  1  0.57362643  0.37205268  0.51939217  1
  O  O254  1  0.59609592  0.35883781  0.85209952  1
  O  O255  1  0.58172144  0.86483104  0.18010712  1
  O  O256  1  0.58486174  0.86471944  0.51039358  1
  O  O257  1  0.58232850  0.85975639  0.84379214  1
  O  O258  1  0.12961435  0.42083145  0.31767875  1
  O  O259  1  0.12944333  0.42203039  0.64672799  1
  O  O260  1  0.12945046  0.40840761  0.97814146  1
  O  O261  1  0.13597835  0.91723575  0.31887367  1
  O  O262  1  0.13516513  0.92385704  0.66410651  1
  O  O263  1  0.12895776  0.91896043  0.98189263  1
  O  O264  1  0.63324591  0.41479207  0.32055170  1
  O  O265  1  0.63401055  0.41833325  0.65406789  1
  O  O266  1  0.63926839  0.42162981  0.98671758  1
  O  O267  1  0.62411150  0.92197344  0.31455328  1
  O  O268  1  0.63820597  0.91392871  0.64752155  1
  O  O269  1  0.63319367  0.91606219  0.97900149  1
  O  O270  1  0.03951439  0.20351829  0.10375941  1
  O  O271  1  0.03100265  0.20009370  0.43545033  1
  O  O272  1  0.03354747  0.19303251  0.76608206  1
  O  O273  1  0.02470422  0.70753369  0.10709065  1
  O  O274  1  0.03822007  0.69656624  0.44195451  1
  O  O275  1  0.01892569  0.69677033  0.76792824  1
  O  O276  1  0.52464837  0.20991551  0.11218517  1
  O  O277  1  0.53080487  0.20347638  0.43784801  1
  O  O278  1  0.53923005  0.17784696  0.76629432  1
  O  O279  1  0.53407175  0.69972258  0.10805856  1
  O  O280  1  0.52985139  0.69519122  0.43503960  1
  O  O281  1  0.52811889  0.69106335  0.76446791  1
  O  O282  1  0.30367823  0.46726071  0.06511802  1
  O  O283  1  0.29899765  0.47375061  0.39572347  1
  O  O284  1  0.28399175  0.48306504  0.72751574  1
  O  O285  1  0.30162316  0.96765359  0.06367639  1
  O  O286  1  0.29727848  0.96718630  0.39002376  1
  O  O287  1  0.30322916  0.96874363  0.73735340  1
  O  O288  1  0.80791714  0.46528753  0.06609262  1
  O  O289  1  0.79645897  0.45839390  0.38961724  1
  O  O290  1  0.80864242  0.47032713  0.73571301  1
  O  O291  1  0.80855210  0.97002030  0.06145275  1
  O  O292  1  0.79237013  0.97407334  0.39407738  1
  O  O293  1  0.79933318  0.97395683  0.72947459  1
  O  O294  1  0.47064992  0.30765199  0.23309519  1
  O  O295  1  0.46232539  0.30082794  0.55739814  1
  O  O296  1  0.46322493  0.32711810  0.90432006  1
  O  O297  1  0.46949384  0.79976824  0.22938477  1
  O  O298  1  0.48008610  0.79801278  0.56346782  1
  O  O299  1  0.46589598  0.80958406  0.89624001  1
  O  O300  1  0.96910299  0.29340169  0.22460716  1
  O  O301  1  0.97538378  0.28967206  0.55826426  1
  O  O302  1  0.97620801  0.29969315  0.89353181  1
  O  O303  1  0.96831906  0.79761016  0.22602087  1
  O  O304  1  0.95444612  0.79294134  0.56379898  1
  O  O305  1  0.96832607  0.80605464  0.89992959  1
  O  O306  1  0.19984943  0.03001356  0.26836169  1
  O  O307  1  0.19011008  0.03025802  0.60503272  1
  O  O308  1  0.20482493  0.02718466  0.93537695  1
  O  O309  1  0.19886625  0.53526451  0.27626002  1
  O  O310  1  0.19643348  0.53438054  0.60198177  1
  O  O311  1  0.18774711  0.52702143  0.92832520  1
  O  O312  1  0.70459617  0.02992890  0.27507282  1
  O  O313  1  0.70133003  0.03264775  0.59964147  1
  O  O314  1  0.70629487  0.02993112  0.93168065  1
  O  O315  1  0.69639148  0.52492249  0.27159766  1
  O  O316  1  0.68500006  0.53396535  0.60503843  1
  O  O317  1  0.71375761  0.52463340  0.94094973  1
  O  O318  1  0.09557735  0.09313359  0.04133894  1
  O  O319  1  0.09633689  0.09457829  0.37698263  1
  O  O320  1  0.09761183  0.08593327  0.70655586  1
  O  O321  1  0.06583312  0.58831590  0.03997357  1
  O  O322  1  0.08872292  0.58930768  0.36623005  1
  O  O323  1  0.06290241  0.57905316  0.69699930  1
  O  O324  1  0.57808447  0.09566164  0.05122584  1
  O  O325  1  0.58121329  0.08992611  0.36958730  1
  O  O326  1  0.59181099  0.08277583  0.68278619  1
  O  O327  1  0.58411317  0.58324215  0.04492117  1
  O  O328  1  0.58254436  0.58183449  0.36988982  1
  O  O329  1  0.59088676  0.58358934  0.70751691  1
  O  O330  1  0.41485410  0.41950308  0.14010248  1
  O  O331  1  0.41384522  0.42553667  0.46415720  1
  O  O332  1  0.40592527  0.44566441  0.79048193  1
  O  O333  1  0.40967115  0.90725561  0.12875301  1
  O  O334  1  0.40889516  0.91155474  0.45208929  1
  O  O335  1  0.42044734  0.91919896  0.79893886  1
  O  O336  1  0.92089918  0.41473619  0.13301915  1
  O  O337  1  0.90958051  0.40391652  0.45344631  1
  O  O338  1  0.92157194  0.41627903  0.79742856  1
  O  O339  1  0.91198336  0.91380956  0.13138306  1
  O  O340  1  0.90185963  0.91320555  0.45166654  1
  O  O341  1  0.90837722  0.91587650  0.79335102  1
  O  O342  1  0.41633574  0.41961869  0.29822758  1
  O  O343  1  0.41007600  0.41618131  0.62023400  1
  O  O344  1  0.40205143  0.42536407  0.97507195  1
  O  O345  1  0.41891221  0.91307777  0.29762991  1
  O  O346  1  0.43730383  0.91523756  0.63472118  1
  O  O347  1  0.41664885  0.91580686  0.97314940  1
  O  O348  1  0.91376187  0.40401982  0.28888261  1
  O  O349  1  0.93478530  0.41054811  0.62294769  1
  O  O350  1  0.92405146  0.41077308  0.96351169  1
  O  O351  1  0.90800817  0.90759963  0.28631069  1
  O  O352  1  0.91055062  0.91008630  0.63272259  1
  O  O353  1  0.90385794  0.91137303  0.96195175  1
  O  O354  1  0.08880127  0.08353171  0.19918280  1
  O  O355  1  0.08990080  0.08807268  0.53222434  1
  O  O356  1  0.09582151  0.08284638  0.86681203  1
  O  O357  1  0.08425244  0.58873769  0.21154354  1
  O  O358  1  0.08499271  0.58979178  0.54035352  1
  O  O359  1  0.07835013  0.58482776  0.86751739  1
  O  O360  1  0.59085522  0.08531345  0.21666313  1
  O  O361  1  0.59176717  0.09310173  0.53508570  1
  O  O362  1  0.58614654  0.07064541  0.86883445  1
  O  O363  1  0.58587865  0.57814714  0.20359382  1
  O  O364  1  0.58095106  0.58430528  0.52709046  1
  O  O365  1  0.59166495  0.55969311  0.87446964  1
  O  O366  1  0.14495473  0.22693804  0.05720529  1
  O  O367  1  0.13876023  0.22987667  0.39383292  1
  O  O368  1  0.14144644  0.22227504  0.72339668  1
  O  O369  1  0.13284518  0.71677664  0.05913901  1
  O  O370  1  0.14084290  0.72496552  0.39419822  1
  O  O371  1  0.12784205  0.70795302  0.72134087  1
  O  O372  1  0.63564525  0.22641885  0.07063831  1
  O  O373  1  0.63973092  0.22294141  0.39392640  1
  O  O374  1  0.64055792  0.22146299  0.72228821  1
  O  O375  1  0.63152727  0.71267869  0.04920295  1
  O  O376  1  0.63926097  0.71494458  0.39090803  1
  O  O377  1  0.63592467  0.71774975  0.71991497  1
  O  O378  1  0.28101402  0.36313387  0.11389043  1
  O  O379  1  0.28205870  0.36760986  0.44412334  1
  O  O380  1  0.28078671  0.37028169  0.76967025  1
  O  O381  1  0.27370494  0.85925398  0.10505577  1
  O  O382  1  0.27740899  0.86516675  0.44306719  1
  O  O383  1  0.29225520  0.86848518  0.79539606  1
  O  O384  1  0.78803223  0.35576244  0.11086985  1
  O  O385  1  0.77735890  0.35818899  0.44322751  1
  O  O386  1  0.78927705  0.36098692  0.78059088  1
  O  O387  1  0.77576192  0.86036395  0.10030693  1
  O  O388  1  0.76897222  0.86413396  0.43514387  1
  O  O389  1  0.77329718  0.86363237  0.76927780  1
  O  O390  1  0.36218242  0.28590519  0.27752951  1
  O  O391  1  0.35809277  0.28472408  0.60713599  1
  O  O392  1  0.36131893  0.28652600  0.94932361  1
  O  O393  1  0.36008891  0.77984674  0.27332224  1
  O  O394  1  0.36520915  0.78482871  0.60011294  1
  O  O395  1  0.36403915  0.78034757  0.94608131  1
  O  O396  1  0.86216552  0.27065029  0.27087478  1
  O  O397  1  0.86740485  0.28345756  0.60722480  1
  O  O398  1  0.86846722  0.27546787  0.93701463  1
  O  O399  1  0.87197314  0.77607460  0.28283453  1
  O  O400  1  0.85391882  0.77918328  0.61867095  1
  O  O401  1  0.85945641  0.77457904  0.94026242  1
  O  O402  1  0.22277813  0.13564876  0.22150526  1
  O  O403  1  0.22701431  0.13845278  0.56511932  1
  O  O404  1  0.23114307  0.14045742  0.89952493  1
  O  O405  1  0.21700523  0.63873706  0.22609121  1
  O  O406  1  0.21753127  0.64067762  0.55377766  1
  O  O407  1  0.21273357  0.63834402  0.88839506  1
  O  O408  1  0.72135808  0.13394113  0.22482364  1
  O  O409  1  0.72709512  0.14146046  0.55803194  1
  O  O410  1  0.71438825  0.13643667  0.88365508  1
  O  O411  1  0.71982731  0.63550642  0.23029305  1
  O  O412  1  0.71759106  0.63710120  0.55899549  1
  O  O413  1  0.71727293  0.63329502  0.89413897  1
  O  O414  1  0.48878954  0.34880123  0.03818186  1
  O  O415  1  0.49200498  0.34051569  0.36693236  1
  O  O416  1  0.49027459  0.34167578  0.69290939  1
  O  O417  1  0.49654534  0.82962275  0.02864289  1
  O  O418  1  0.49137578  0.82885924  0.36250927  1
  O  O419  1  0.49374550  0.81923940  0.69401386  1
  O  O420  1  0.99878334  0.32886190  0.02720481  1
  O  O421  1  0.99271648  0.32654500  0.35799905  1
  O  O422  1  0.99936098  0.32675395  0.69306442  1
  O  O423  1  0.98647282  0.83771263  0.03206708  1
  O  O424  1  1.00228703  0.84526212  0.36135870  1
  O  O425  1  0.98861304  0.83315263  0.70021496  1
  O  O426  1  0.16827588  0.00390240  0.13438628  1
  O  O427  1  0.17457371  0.00886401  0.47458709  1
  O  O428  1  0.18077417  0.01127075  0.80443273  1
  O  O429  1  0.15723565  0.50640264  0.14096739  1
  O  O430  1  0.16156492  0.51010342  0.46864876  1
  O  O431  1  0.15565676  0.51086764  0.79548560  1
  O  O432  1  0.66056072  0.00224376  0.13998909  1
  O  O433  1  0.66713676  0.01206233  0.46711229  1
  O  O434  1  0.66669198  0.00546002  0.79576601  1
  O  O435  1  0.67076961  0.50476110  0.13951948  1
  O  O436  1  0.66780642  0.50519088  0.47276977  1
  O  O437  1  0.67902434  0.50117864  0.80596828  1
  O  O438  1  0.01273093  0.16527905  0.30268706  1
  O  O439  1  0.01426608  0.15854281  0.63360634  1
  O  O440  1  0.01573438  0.16730545  0.96889593  1
  O  O441  1  0.00826887  0.67303480  0.30871709  1
  O  O442  1  -0.00527596  0.66507984  0.63325328  1
  O  O443  1  0.00128896  0.67355341  0.97220878  1
  O  O444  1  0.50817149  0.17390242  0.30486419  1
  O  O445  1  0.50885742  0.17203255  0.63570038  1
  O  O446  1  0.50613565  0.17637387  0.97911392  1
  O  O447  1  0.50861449  0.66208340  0.30139488  1
  O  O448  1  0.50896753  0.65210685  0.63028886  1
  O  O449  1  0.49756428  0.65271857  0.97181356  1
  O  O450  1  0.32902991  0.49621264  0.19837435  1
  O  O451  1  0.33138249  0.50089333  0.52978864  1
  O  O452  1  0.31967250  0.49986849  0.86199549  1
  O  O453  1  0.33344686  0.98800924  0.19660590  1
  O  O454  1  0.33882792  0.99717096  0.52550480  1
  O  O455  1  0.34862222  1.00036218  0.87361293  1
  O  O456  1  0.83842094  0.48782190  0.19904989  1
  O  O457  1  0.84009665  0.49063421  0.52501591  1
  O  O458  1  0.84451066  0.49110960  0.86959378  1
  O  O459  1  0.82625292  0.98935633  0.19191741  1
  O  O460  1  0.82917352  0.99172203  0.52750042  1
  O  O461  1  0.82891650  0.99121644  0.86235765  1
