# generated using pymatgen
data_Na31Fe20(SO4)36
_symmetry_space_group_name_H-M   'P 1'
_cell_length_a   18.06372808
_cell_length_b   18.05983194
_cell_length_c   19.68209222
_cell_angle_alpha   107.59367776
_cell_angle_beta   107.60101917
_cell_angle_gamma   90.70345711
_symmetry_Int_Tables_number   1
_chemical_formula_structural   Na31Fe20(SO4)36
_chemical_formula_sum   'Na62 Fe40 S72 O288'
_cell_volume   5795.87104590
_cell_formula_units_Z   2
loop_
 _symmetry_equiv_pos_site_id
 _symmetry_equiv_pos_as_xyz
  1  'x, y, z'
loop_
 _atom_site_type_symbol
 _atom_site_label
 _atom_site_symmetry_multiplicity
 _atom_site_fract_x
 _atom_site_fract_y
 _atom_site_fract_z
 _atom_site_occupancy
  Na  Na0  1  0.12422006  0.35670757  0.06705370  1
  Na  Na1  1  0.13322147  0.36929222  0.41720645  1
  Na  Na2  1  0.14217969  0.36717272  0.75881797  1
  Na  Na3  1  0.13422227  0.86587853  0.08052580  1
  Na  Na4  1  0.13482546  0.86243491  0.41634554  1
  Na  Na5  1  0.13604535  0.86254634  0.74474601  1
  Na  Na6  1  0.62937736  0.37167429  0.08462539  1
  Na  Na7  1  0.63115626  0.36267107  0.41037658  1
  Na  Na8  1  0.63314068  0.37747390  0.75776435  1
  Na  Na9  1  0.62737112  0.85261745  0.07178543  1
  Na  Na10  1  0.62595734  0.86720553  0.42466527  1
  Na  Na11  1  0.65857374  0.87546515  0.77328461  1
  Na  Na12  1  0.36230299  0.13402424  0.24765479  1
  Na  Na13  1  0.36781592  0.13571652  0.58880210  1
  Na  Na14  1  0.36751924  0.13986584  0.92178596  1
  Na  Na15  1  0.37278046  0.63365986  0.25950687  1
  Na  Na16  1  0.36463899  0.64903514  0.59418104  1
  Na  Na17  1  0.36209460  0.63655323  0.91805581  1
  Na  Na18  1  0.85297780  0.13223337  0.23833749  1
  Na  Na19  1  0.86809102  0.13910560  0.58767901  1
  Na  Na20  1  0.86019903  0.13310353  0.91251439  1
  Na  Na21  1  0.86339491  0.63057464  0.24417630  1
  Na  Na22  1  0.85700866  0.63691232  0.57419032  1
  Na  Na23  1  0.87064920  0.63867286  0.92165184  1
  Na  Na24  1  0.47005589  0.49490964  0.06491237  1
  Na  Na25  1  0.99081193  0.50342305  0.75268325  1
  Na  Na26  1  0.49552998  0.02496098  0.07729429  1
  Na  Na27  1  0.95433874  0.00502499  0.07196534  1
  Na  Na28  1  0.49686653  0.51997004  0.39722286  1
  Na  Na29  1  0.98736971  0.00923055  0.41956047  1
  Na  Na30  1  0.98955132  0.04764421  0.76628992  1
  Na  Na31  1  0.55464505  -0.01954961  0.67254857  1
  Na  Na32  1  0.49184600  0.53790728  0.88027891  1
  Na  Na33  1  -0.00862483  1.01178279  0.92049061  1
  Na  Na34  1  0.00996346  0.98650925  0.24871495  1
  Na  Na35  1  0.52470791  0.99272961  0.89283981  1
  Na  Na36  1  0.01316091  0.49754215  0.56888751  1
  Na  Na37  1  0.49604061  0.50570811  0.58987558  1
  Na  Na38  1  0.00975789  0.98581283  0.58982048  1
  Na  Na39  1  0.50732821  0.98170496  0.26123757  1
  Na  Na40  1  0.00191471  0.48792029  0.25429594  1
  Na  Na41  1  -0.00058507  0.47669441  0.93876492  1
  Na  Na42  1  0.26424862  0.27130404  -0.01056764  1
  Na  Na43  1  0.75432899  0.75848431  0.65947703  1
  Na  Na44  1  0.71801848  0.71882647  0.00087672  1
  Na  Na45  1  0.25342260  0.75224352  -0.00432352  1
  Na  Na46  1  0.75777221  0.26141440  0.31781491  1
  Na  Na47  1  0.26647499  0.76064291  0.33371263  1
  Na  Na48  1  0.73671690  0.73467160  0.34989869  1
  Na  Na49  1  0.73719729  0.23847073  0.67507307  1
  Na  Na50  1  0.73813363  0.24204230  0.01196021  1
  Na  Na51  1  0.25261840  0.25390244  0.33057749  1
  Na  Na52  1  0.73197576  0.23435036  0.83704780  1
  Na  Na53  1  0.24250825  0.24387697  0.51392441  1
  Na  Na54  1  0.26585323  0.26962232  0.82415289  1
  Na  Na55  1  0.25483044  0.75086174  0.50431216  1
  Na  Na56  1  0.26051972  0.26111102  0.15421339  1
  Na  Na57  1  0.25714343  0.75397107  0.16523512  1
  Na  Na58  1  0.73514532  0.73094465  0.17182801  1
  Na  Na59  1  0.26222639  0.75620562  0.81823871  1
  Na  Na60  1  0.74627230  0.24528448  0.50119573  1
  Na  Na61  1  0.74642834  0.74725497  0.84107069  1
  Fe  Fe62  1  0.47038782  0.79931197  0.79052887  1
  Fe  Fe63  1  0.46294296  0.80534458  0.12014001  1
  Fe  Fe64  1  0.96536797  0.30642166  0.45057780  1
  Fe  Fe65  1  0.96348368  0.80545911  0.44968246  1
  Fe  Fe66  1  0.46563003  0.30746232  0.45475445  1
  Fe  Fe67  1  0.46267605  0.31407467  0.78736729  1
  Fe  Fe68  1  0.96691440  0.80996826  0.78317785  1
  Fe  Fe69  1  0.96727780  0.80512179  0.11317963  1
  Fe  Fe70  1  0.96790623  0.29904135  0.78770245  1
  Fe  Fe71  1  0.96267495  0.30280561  0.11544658  1
  Fe  Fe72  1  0.19568744  0.53479472  0.71536733  1
  Fe  Fe73  1  0.69327170  0.53587702  0.71208000  1
  Fe  Fe74  1  0.69203656  0.03519391  0.37906195  1
  Fe  Fe75  1  0.19224634  0.53391816  0.38009058  1
  Fe  Fe76  1  0.18890717  0.03534148  0.04818311  1
  Fe  Fe77  1  0.19804125  0.53128238  0.04317219  1
  Fe  Fe78  1  0.19204385  0.03445614  0.38518496  1
  Fe  Fe79  1  0.69310571  0.53362689  0.37765620  1
  Fe  Fe80  1  0.69789369  0.02937965  0.04192560  1
  Fe  Fe81  1  0.19585513  0.03637187  0.71968617  1
  Fe  Fe82  1  0.03317409  0.19012249  0.21411917  1
  Fe  Fe83  1  0.03555244  0.69291130  0.87915299  1
  Fe  Fe84  1  0.53279786  0.68788081  0.21385468  1
  Fe  Fe85  1  0.03691883  0.19452046  0.55184846  1
  Fe  Fe86  1  0.53345765  0.19408583  0.87788474  1
  Fe  Fe87  1  0.53295004  0.70392232  0.54385806  1
  Fe  Fe88  1  0.03704910  0.68848160  0.21047161  1
  Fe  Fe89  1  0.03715979  0.69180595  0.54616256  1
  Fe  Fe90  1  0.53098978  0.20193728  0.20998231  1
  Fe  Fe91  1  0.53490900  0.18690217  0.54385396  1
  Fe  Fe92  1  0.80493556  0.96305584  0.28372980  1
  Fe  Fe93  1  0.31350704  0.96436117  0.29598718  1
  Fe  Fe94  1  0.80240269  0.96723634  0.62213624  1
  Fe  Fe95  1  0.30515584  0.46411588  0.28346057  1
  Fe  Fe96  1  0.80735926  0.46444430  0.61925928  1
  Fe  Fe97  1  0.30598309  0.96626742  0.95264032  1
  Fe  Fe98  1  0.31552284  0.96303774  0.62463304  1
  Fe  Fe99  1  0.31108496  0.46610122  0.62136078  1
  Fe  Fe100  1  0.80216486  0.46806060  0.95925798  1
  Fe  Fe101  1  0.80637341  0.46182759  0.28243357  1
  S  S102  1  0.35620314  0.14009695  0.08478056  1
  S  S103  1  0.35597628  0.14319848  0.41805523  1
  S  S104  1  0.35656075  0.14178935  0.75065161  1
  S  S105  1  0.35636047  0.64203250  0.08547346  1
  S  S106  1  0.35877892  0.63824615  0.41993696  1
  S  S107  1  0.36231533  0.63716314  0.75082222  1
  S  S108  1  0.85887158  0.13862609  0.08339910  1
  S  S109  1  0.86024999  0.13990973  0.41499109  1
  S  S110  1  0.85412104  0.14316177  0.74372694  1
  S  S111  1  0.86334060  0.64292842  0.08060083  1
  S  S112  1  0.86318250  0.63710143  0.41465425  1
  S  S113  1  0.86122177  0.64013875  0.74709081  1
  S  S114  1  0.13782286  0.35848235  0.24848497  1
  S  S115  1  0.13906516  0.36226277  0.58201043  1
  S  S116  1  0.13595567  0.36061808  0.91695943  1
  S  S117  1  0.13883299  0.85937665  0.25081440  1
  S  S118  1  0.13884533  0.86212065  0.58337938  1
  S  S119  1  0.14194195  0.85860373  0.91588804  1
  S  S120  1  0.64227458  0.35936823  0.25118245  1
  S  S121  1  0.64269542  0.35722483  0.58189973  1
  S  S122  1  0.64147381  0.36090161  0.91653424  1
  S  S123  1  0.64063887  0.85757171  0.25067293  1
  S  S124  1  0.64832123  0.85778826  0.58578461  1
  S  S125  1  0.64156194  0.85714088  0.91912321  1
  S  S126  1  0.06306077  0.16615612  0.04551961  1
  S  S127  1  0.06495330  0.16749550  0.37649858  1
  S  S128  1  0.06811473  0.16877046  0.70930703  1
  S  S129  1  0.07389768  0.66998875  0.04159343  1
  S  S130  1  0.06929039  0.67020395  0.37515281  1
  S  S131  1  0.06603994  0.66742138  0.70703649  1
  S  S132  1  0.56737669  0.15996021  0.03810413  1
  S  S133  1  0.56538933  0.17012493  0.37341200  1
  S  S134  1  0.56550830  0.18164573  0.70980848  1
  S  S135  1  0.55361484  0.66250552  0.04582513  1
  S  S136  1  0.56821635  0.66699732  0.37628870  1
  S  S137  1  0.57257432  0.67453982  0.70581919  1
  S  S138  1  0.32945078  0.43683154  0.12513403  1
  S  S139  1  0.32832832  0.43179036  0.45760829  1
  S  S140  1  0.32993208  0.43831856  0.78934435  1
  S  S141  1  0.32846948  0.93302784  0.12852212  1
  S  S142  1  0.32601202  0.93276425  0.45753352  1
  S  S143  1  0.33060792  0.93195494  0.79356452  1
  S  S144  1  0.83353992  0.43121086  0.12505612  1
  S  S145  1  0.83065460  0.43138644  0.45780466  1
  S  S146  1  0.83435749  0.43246929  0.79185851  1
  S  S147  1  0.83109796  0.92847310  0.12416964  1
  S  S148  1  0.83133912  0.93242723  0.45721372  1
  S  S149  1  0.84407816  0.93717524  0.79088945  1
  S  S150  1  0.42961069  0.32843036  0.29291171  1
  S  S151  1  0.43488590  0.33176561  0.62094205  1
  S  S152  1  0.43641221  0.32898956  0.95201028  1
  S  S153  1  0.43564821  0.83039434  0.29272706  1
  S  S154  1  0.43739308  0.83268439  0.63008624  1
  S  S155  1  0.42815332  0.83432631  0.96153004  1
  S  S156  1  0.93435884  0.32697146  0.29074729  1
  S  S157  1  0.93459129  0.33109951  0.62328714  1
  S  S158  1  0.92140271  0.32917522  0.95551866  1
  S  S159  1  0.93337740  0.83136172  0.28948018  1
  S  S160  1  0.93176288  0.83114247  0.62215976  1
  S  S161  1  0.94046959  0.83217024  0.95316832  1
  S  S162  1  0.16549620  0.06340118  0.21106943  1
  S  S163  1  0.16472520  0.06473063  0.54160729  1
  S  S164  1  0.16810115  0.06421787  0.88012785  1
  S  S165  1  0.17173689  0.56856404  0.20933609  1
  S  S166  1  0.17001327  0.56857884  0.54144813  1
  S  S167  1  0.16716761  0.57048209  0.87383854  1
  S  S168  1  0.66766162  0.06521097  0.20944366  1
  S  S169  1  0.67563863  0.06796770  0.54169986  1
  S  S170  1  0.66594482  0.06811682  0.87191071  1
  S  S171  1  0.67409342  0.56611825  0.21109352  1
  S  S172  1  0.66876251  0.56280110  0.54112396  1
  S  S173  1  0.67878413  0.56993925  0.87505001  1
  O  O174  1  0.35782297  0.21600849  0.07342805  1
  O  O175  1  0.36583132  0.22227251  0.41001747  1
  O  O176  1  0.36374443  0.22053127  0.74291460  1
  O  O177  1  0.36146631  0.72431841  0.08158474  1
  O  O178  1  0.36292403  0.71357231  0.40785286  1
  O  O179  1  0.37190291  0.71764737  0.74551840  1
  O  O180  1  0.86638320  0.22044637  0.08113034  1
  O  O181  1  0.86956846  0.21862264  0.40663312  1
  O  O182  1  0.87353384  0.21668111  0.72741067  1
  O  O183  1  0.87929947  0.71714991  0.06435146  1
  O  O184  1  0.87175561  0.71517054  0.40318301  1
  O  O185  1  0.87277972  0.71814008  0.73821076  1
  O  O186  1  0.28001943  0.12475169  0.09805286  1
  O  O187  1  0.27637113  0.13501911  0.42574993  1
  O  O188  1  0.27849589  0.13179719  0.76216958  1
  O  O189  1  0.27506733  0.63135867  0.09047959  1
  O  O190  1  0.27957837  0.62400971  0.42805337  1
  O  O191  1  0.27987804  0.62874395  0.75400119  1
  O  O192  1  0.78131223  0.12658106  0.09313808  1
  O  O193  1  0.78144140  0.13141303  0.42304707  1
  O  O194  1  0.77336454  0.14284842  0.74383065  1
  O  O195  1  0.78546325  0.64189554  0.08826069  1
  O  O196  1  0.78495526  0.62929576  0.42404672  1
  O  O197  1  0.78172450  0.63268709  0.75355805  1
  O  O198  1  0.12890273  0.28234876  0.26241665  1
  O  O199  1  0.13012310  0.28172341  0.58567851  1
  O  O200  1  0.12425830  0.29026950  0.93618741  1
  O  O201  1  0.12939627  0.78112649  0.26039147  1
  O  O202  1  0.12732707  0.78420008  0.59169250  1
  O  O203  1  0.13245294  0.78105687  0.92695467  1
  O  O204  1  0.62954833  0.28112166  0.26263240  1
  O  O205  1  0.63391168  0.27601061  0.58466445  1
  O  O206  1  0.63615436  0.27644716  0.91470889  1
  O  O207  1  0.63256506  0.77840153  0.25802114  1
  O  O208  1  0.63856661  0.77156711  0.57472735  1
  O  O209  1  0.63096049  0.78185418  0.93074364  1
  O  O210  1  0.21801272  0.36595631  0.24287498  1
  O  O211  1  0.21611462  0.37243531  0.57089219  1
  O  O212  1  0.21211488  0.36783170  0.90600256  1
  O  O213  1  0.21956020  0.86893850  0.24715741  1
  O  O214  1  0.21720064  0.87106526  0.57484296  1
  O  O215  1  0.22254351  0.86655464  0.91127480  1
  O  O216  1  0.72679781  0.36516269  0.25421602  1
  O  O217  1  0.72248267  0.36775145  0.57491908  1
  O  O218  1  0.71970961  0.37210115  0.90379897  1
  O  O219  1  0.72024253  0.86720711  0.24334999  1
  O  O220  1  0.73085501  0.87037355  0.58008315  1
  O  O221  1  0.71394098  0.86705979  0.90205004  1
  O  O222  1  0.41876225  0.13491924  0.15316033  1
  O  O223  1  0.41456815  0.13534607  0.48577458  1
  O  O224  1  0.41677604  0.13083143  0.81610640  1
  O  O225  1  0.41206637  0.63647122  0.15663596  1
  O  O226  1  0.41792654  0.63409360  0.49001878  1
  O  O227  1  0.41740581  0.62644449  0.81725367  1
  O  O228  1  0.91913684  0.12877915  0.15193633  1
  O  O229  1  0.91983232  0.13154816  0.48316009  1
  O  O230  1  0.90889625  0.13590086  0.81265469  1
  O  O231  1  0.92195049  0.63967638  0.15180413  1
  O  O232  1  0.92298765  0.63331944  0.48450029  1
  O  O233  1  0.91904196  0.63075598  0.81562242  1
  O  O234  1  0.36683782  0.07839873  0.01875100  1
  O  O235  1  0.36179026  0.08450698  0.34870892  1
  O  O236  1  0.35950064  0.08271009  0.68002186  1
  O  O237  1  0.36832332  0.58654323  0.01997247  1
  O  O238  1  0.37013034  0.57516268  0.35485314  1
  O  O239  1  0.36890058  0.58097791  0.67961220  1
  O  O240  1  0.86896526  0.08336819  0.01610433  1
  O  O241  1  0.86874999  0.07983144  0.34734535  1
  O  O242  1  0.86469924  0.07781243  0.67710727  1
  O  O243  1  0.87166423  0.57803972  0.01596377  1
  O  O244  1  0.87175477  0.57651457  0.34805598  1
  O  O245  1  0.87009136  0.57924808  0.67979479  1
  O  O246  1  0.08045192  0.36323123  0.17829325  1
  O  O247  1  0.07767800  0.37356209  0.51584239  1
  O  O248  1  0.07408860  0.36599205  0.84723326  1
  O  O249  1  0.08240574  0.86566470  0.18000029  1
  O  O250  1  0.07855130  0.87114652  0.51539534  1
  O  O251  1  0.08603613  0.86327167  0.84505992  1
  O  O252  1  0.58988055  0.36447510  0.18173790  1
  O  O253  1  0.58408855  0.36767882  0.51467539  1
  O  O254  1  0.58065069  0.37188488  0.85047462  1
  O  O255  1  0.58195107  0.86730039  0.18304501  1
  O  O256  1  0.59162716  0.88064180  0.52812474  1
  O  O257  1  0.57561741  0.86845035  0.85494507  1
  O  O258  1  0.12714396  0.42144821  0.31362198  1
  O  O259  1  0.13152850  0.41962755  0.65134267  1
  O  O260  1  0.12558131  0.42958425  0.98048916  1
  O  O261  1  0.12478209  0.91957270  0.31536906  1
  O  O262  1  0.13029918  0.92293853  0.65097049  1
  O  O263  1  0.13123296  0.91920628  0.98199221  1
  O  O264  1  0.63296319  0.41912789  0.31924873  1
  O  O265  1  0.63555431  0.41401461  0.65127117  1
  O  O266  1  0.63889436  0.41313609  0.98728434  1
  O  O267  1  0.63214933  0.91704068  0.31866788  1
  O  O268  1  0.64848407  0.90095545  0.66212376  1
  O  O269  1  0.63727567  0.91960954  0.98889315  1
  O  O270  1  0.03076724  0.20037470  0.11067534  1
  O  O271  1  0.03008830  0.19915395  0.43838804  1
  O  O272  1  0.03228582  0.19548507  0.76920855  1
  O  O273  1  0.04024690  0.69990164  0.10465317  1
  O  O274  1  0.03396093  0.70104978  0.43702119  1
  O  O275  1  0.03039386  0.69920105  0.76841165  1
  O  O276  1  0.53299046  0.17957842  0.09997345  1
  O  O277  1  0.52718838  0.19649531  0.43394725  1
  O  O278  1  0.52329312  0.21132429  0.76673683  1
  O  O279  1  0.52238790  0.70476452  0.11126225  1
  O  O280  1  0.52754650  0.68379769  0.43303022  1
  O  O281  1  0.53591188  0.70076947  0.76486009  1
  O  O282  1  0.29170462  0.47342300  0.06598684  1
  O  O283  1  0.29606193  0.46330616  0.39352354  1
  O  O284  1  0.29503473  0.46641341  0.72098593  1
  O  O285  1  0.29800708  0.96707761  0.06638251  1
  O  O286  1  0.28976900  0.97293727  0.39731858  1
  O  O287  1  0.30022719  0.96737174  0.73086938  1
  O  O288  1  0.81200353  0.46995632  0.06696595  1
  O  O289  1  0.80303411  0.46889934  0.39817576  1
  O  O290  1  0.80492903  0.47145440  0.73192515  1
  O  O291  1  0.80410214  0.96542809  0.06534128  1
  O  O292  1  0.80348560  0.97244519  0.39855033  1
  O  O293  1  0.81744355  0.96733512  0.72534867  1
  O  O294  1  0.46520332  0.30061770  0.23343287  1
  O  O295  1  0.47432791  0.29948291  0.56154560  1
  O  O296  1  0.47116824  0.29100717  0.88805463  1
  O  O297  1  0.46910681  0.79986442  0.22825731  1
  O  O298  1  0.47497747  0.80502618  0.57147043  1
  O  O299  1  0.45977864  0.80999418  0.89931410  1
  O  O300  1  0.97108328  0.29634115  0.22982610  1
  O  O301  1  0.97087968  0.30038589  0.56172735  1
  O  O302  1  0.95366725  0.30974523  0.89294301  1
  O  O303  1  0.97000848  0.80435147  0.22879220  1
  O  O304  1  0.96583333  0.80283527  0.55884946  1
  O  O305  1  0.97506051  0.79443500  0.89080489  1
  O  O306  1  0.19639794  0.02850040  0.27296436  1
  O  O307  1  0.19583302  0.03190964  0.60416185  1
  O  O308  1  0.20547762  0.02766193  0.94132428  1
  O  O309  1  0.20240000  0.52979920  0.26917714  1
  O  O310  1  0.20026595  0.53235571  0.60255081  1
  O  O311  1  0.19360948  0.54067227  0.93740901  1
  O  O312  1  0.69871721  0.02700656  0.27052350  1
  O  O313  1  0.70636804  0.02669631  0.59780488  1
  O  O314  1  0.68657472  0.03463677  0.93442914  1
  O  O315  1  0.70660062  0.53070307  0.27478038  1
  O  O316  1  0.69877365  0.52426251  0.60174006  1
  O  O317  1  0.71203810  0.53082689  0.93275668  1
  O  O318  1  0.08300329  0.08506080  0.04654988  1
  O  O319  1  0.07997203  0.08446007  0.37197448  1
  O  O320  1  0.08553881  0.08532638  0.70299500  1
  O  O321  1  0.09390886  0.58918718  0.03609311  1
  O  O322  1  0.08543275  0.58786154  0.36813624  1
  O  O323  1  0.08113941  0.58428966  0.70146444  1
  O  O324  1  0.58482155  0.07545704  0.02533828  1
  O  O325  1  0.58410482  0.08817753  0.36533655  1
  O  O326  1  0.59269536  0.10730339  0.71281662  1
  O  O327  1  0.56408681  0.58297832  0.04752198  1
  O  O328  1  0.59079169  0.58545515  0.36658926  1
  O  O329  1  0.59100367  0.59157552  0.69690054  1
  O  O330  1  0.40787475  0.42318900  0.12382116  1
  O  O331  1  0.41086442  0.41575306  0.46423065  1
  O  O332  1  0.40895034  0.41478282  0.78701933  1
  O  O333  1  0.41092772  0.91619376  0.13514228  1
  O  O334  1  0.40228458  0.91488663  0.45462965  1
  O  O335  1  0.40990076  0.90955591  0.79752661  1
  O  O336  1  0.91524533  0.40851319  0.13538728  1
  O  O337  1  0.91224388  0.41185556  0.46393152  1
  O  O338  1  0.91703861  0.41680344  0.79648430  1
  O  O339  1  0.91547116  0.91273907  0.13076122  1
  O  O340  1  0.91578285  0.91955476  0.46447272  1
  O  O341  1  0.92801795  0.91888283  0.79779457  1
  O  O342  1  0.41022648  0.41032625  0.30135673  1
  O  O343  1  0.41593403  0.41174388  0.61895174  1
  O  O344  1  0.41564718  0.40517800  0.94541738  1
  O  O345  1  0.41361437  0.91100341  0.29157449  1
  O  O346  1  0.42116514  0.91605500  0.63633988  1
  O  O347  1  0.41107488  0.91845608  0.97523691  1
  O  O348  1  0.91496718  0.40730730  0.29322047  1
  O  O349  1  0.91956748  0.41429143  0.62924196  1
  O  O350  1  0.90167497  0.41232577  0.96871074  1
  O  O351  1  0.91790702  0.91528657  0.29823198  1
  O  O352  1  0.91141504  0.91304123  0.62632530  1
  O  O353  1  0.93309919  0.91386261  0.95701420  1
  O  O354  1  0.08195034  0.07736433  0.20528853  1
  O  O355  1  0.08182662  0.08216406  0.53714150  1
  O  O356  1  0.08670850  0.07153768  0.87800549  1
  O  O357  1  0.09078215  0.58544001  0.20832798  1
  O  O358  1  0.08824037  0.58592656  0.53877532  1
  O  O359  1  0.08306187  0.58744084  0.86222898  1
  O  O360  1  0.58541533  0.08050115  0.20483952  1
  O  O361  1  0.59803664  0.09109753  0.54382940  1
  O  O362  1  0.58439848  0.09320976  0.86378983  1
  O  O363  1  0.59591976  0.59033073  0.21284169  1
  O  O364  1  0.58619468  0.57754146  0.53391216  1
  O  O365  1  0.60329023  0.59349724  0.87870598  1
  O  O366  1  0.13401354  0.21691594  0.05920627  1
  O  O367  1  0.13724971  0.21718879  0.39182569  1
  O  O368  1  0.13802555  0.21968456  0.72146509  1
  O  O369  1  0.14305897  0.72408198  0.05557531  1
  O  O370  1  0.14145176  0.72115596  0.39160235  1
  O  O371  1  0.13753934  0.71739618  0.72197874  1
  O  O372  1  0.63735888  0.21275423  0.05480176  1
  O  O373  1  0.63717852  0.22326485  0.39389891  1
  O  O374  1  0.63192136  0.24097479  0.72585142  1
  O  O375  1  0.62847238  0.71112113  0.06221573  1
  O  O376  1  0.63641161  0.72376751  0.39617496  1
  O  O377  1  0.64465388  0.72622144  0.72201129  1
  O  O378  1  0.27761808  0.36442269  0.11034534  1
  O  O379  1  0.27771033  0.36042860  0.44459816  1
  O  O380  1  0.27695659  0.37109319  0.77973673  1
  O  O381  1  0.27688055  0.86106452  0.11266049  1
  O  O382  1  0.26987753  0.86290389  0.44007449  1
  O  O383  1  0.27486954  0.86490166  0.78032715  1
  O  O384  1  0.77728773  0.36384145  0.10872411  1
  O  O385  1  0.77804096  0.36025684  0.44141484  1
  O  O386  1  0.78285965  0.36059878  0.77308546  1
  O  O387  1  0.78220455  0.85642837  0.11095721  1
  O  O388  1  0.78222264  0.85962211  0.43762722  1
  O  O389  1  0.79462253  0.86481505  0.77660933  1
  O  O390  1  0.35763067  0.27603348  0.27725894  1
  O  O391  1  0.36384047  0.27961198  0.60382433  1
  O  O392  1  0.36506879  0.27481137  0.93592101  1
  O  O393  1  0.36291003  0.77853680  0.27528063  1
  O  O394  1  0.36330195  0.78354798  0.61162989  1
  O  O395  1  0.35618549  0.78275656  0.94615675  1
  O  O396  1  0.86595452  0.27362720  0.27790964  1
  O  O397  1  0.86154841  0.28128550  0.60483271  1
  O  O398  1  0.85218746  0.27523371  0.94093236  1
  O  O399  1  0.86185888  0.78070231  0.27328259  1
  O  O400  1  0.86389293  0.77801838  0.61016224  1
  O  O401  1  0.86705973  0.78497787  0.93820687  1
  O  O402  1  0.21392017  0.13693201  0.22714602  1
  O  O403  1  0.21428630  0.13436247  0.55098113  1
  O  O404  1  0.21530708  0.13810965  0.89618762  1
  O  O405  1  0.22340747  0.64095622  0.22766355  1
  O  O406  1  0.21996903  0.63932534  0.55443264  1
  O  O407  1  0.21715718  0.64181921  0.88549491  1
  O  O408  1  0.71923133  0.13720400  0.22897468  1
  O  O409  1  0.73047737  0.13800179  0.55754084  1
  O  O410  1  0.72230533  0.13813201  0.89171771  1
  O  O411  1  0.72923742  0.63778528  0.23058958  1
  O  O412  1  0.72150169  0.63374487  0.56038858  1
  O  O413  1  0.73489293  0.63858755  0.88882523  1
  O  O414  1  0.49571021  0.33390300  0.02295473  1
  O  O415  1  0.48853358  0.33111992  0.36709393  1
  O  O416  1  0.49191713  0.33768206  0.69493389  1
  O  O417  1  0.48837639  0.83335416  0.03302210  1
  O  O418  1  0.49453955  0.83474854  0.36248112  1
  O  O419  1  0.49347551  0.83420107  0.70412837  1
  O  O420  1  0.98415528  0.32767653  0.02521583  1
  O  O421  1  0.99564584  0.33153750  0.36383941  1
  O  O422  1  0.99274014  0.33148646  0.69535034  1
  O  O423  1  0.99834322  0.83042969  0.02615945  1
  O  O424  1  0.99259008  0.83295593  0.36266771  1
  O  O425  1  0.99553822  0.83495492  0.69280562  1
  O  O426  1  0.16595688  0.00506152  0.13906326  1
  O  O427  1  0.15738362  0.00252587  0.46817052  1
  O  O428  1  0.16928114  0.00697467  0.80667641  1
  O  O429  1  0.16859929  0.51183848  0.13561726  1
  O  O430  1  0.16531985  0.50753201  0.46849224  1
  O  O431  1  0.16621434  0.50838253  0.80273297  1
  O  O432  1  0.66793202  0.00754140  0.13729500  1
  O  O433  1  0.66779883  0.01129956  0.46553344  1
  O  O434  1  0.66218308  0.00837388  0.80131185  1
  O  O435  1  0.67015100  0.50731328  0.14111717  1
  O  O436  1  0.66943384  0.50457173  0.46865675  1
  O  O437  1  0.67157724  0.51153965  0.79907891  1
  O  O438  1  0.00558538  0.16451094  0.30390010  1
  O  O439  1  0.00736702  0.16349620  0.63474530  1
  O  O440  1  0.00073023  0.15776127  0.97543533  1
  O  O441  1  0.00958031  0.66978932  0.30336072  1
  O  O442  1  0.00616295  0.66498144  0.63423430  1
  O  O443  1  0.01183253  0.66661034  0.97014343  1
  O  O444  1  0.50751871  0.17080576  0.30150046  1
  O  O445  1  0.50687314  0.17376027  0.63417275  1
  O  O446  1  0.50623925  0.16069405  0.96719433  1
  O  O447  1  0.50913355  0.66632270  0.30351801  1
  O  O448  1  0.51369436  0.67092377  0.63150293  1
  O  O449  1  0.49596951  0.66343764  0.97531851  1
  O  O450  1  0.33126852  0.49369232  0.20039123  1
  O  O451  1  0.33025940  0.49364897  0.52875512  1
  O  O452  1  0.33999607  0.50453660  0.85684182  1
  O  O453  1  0.32963438  0.99226060  0.20089911  1
  O  O454  1  0.32596655  0.99073459  0.53075367  1
  O  O455  1  0.33582177  0.99497078  0.86556624  1
  O  O456  1  0.83855247  0.49182203  0.19907338  1
  O  O457  1  0.83413184  0.49080794  0.53114083  1
  O  O458  1  0.83688764  0.48953857  0.86592026  1
  O  O459  1  0.83596926  0.98807948  0.19894944  1
  O  O460  1  0.83162026  0.98885456  0.53134574  1
  O  O461  1  0.84707043  0.99935392  0.85934390  1
