# generated using pymatgen
data_Na31Fe20(SO4)36
_symmetry_space_group_name_H-M   'P 1'
_cell_length_a   18.08416427
_cell_length_b   18.08326953
_cell_length_c   19.73047009
_cell_angle_alpha   107.55827167
_cell_angle_beta   107.66159386
_cell_angle_gamma   90.72145003
_symmetry_Int_Tables_number   1
_chemical_formula_structural   Na31Fe20(SO4)36
_chemical_formula_sum   'Na62 Fe40 S72 O288'
_cell_volume   5823.08467517
_cell_formula_units_Z   2
loop_
 _symmetry_equiv_pos_site_id
 _symmetry_equiv_pos_as_xyz
  1  'x, y, z'
loop_
 _atom_site_type_symbol
 _atom_site_label
 _atom_site_symmetry_multiplicity
 _atom_site_fract_x
 _atom_site_fract_y
 _atom_site_fract_z
 _atom_site_occupancy
  Na  Na0  1  0.14002144  0.35416301  0.07853341  1
  Na  Na1  1  0.14515005  0.36586342  0.41673266  1
  Na  Na2  1  0.12758767  0.36188445  0.74884503  1
  Na  Na3  1  0.13515875  0.86160417  0.08308535  1
  Na  Na4  1  0.14336283  0.86384641  0.42458262  1
  Na  Na5  1  0.12209756  0.85660168  0.73074331  1
  Na  Na6  1  0.64344938  0.36548050  0.08931213  1
  Na  Na7  1  0.63138698  0.38290670  0.42332122  1
  Na  Na8  1  0.63061375  0.37621555  0.74143578  1
  Na  Na9  1  0.63164013  0.86590149  0.08030751  1
  Na  Na10  1  0.64694847  0.86773214  0.43604313  1
  Na  Na11  1  0.61433947  0.86023301  0.73202837  1
  Na  Na12  1  0.36428115  0.13538929  0.25345903  1
  Na  Na13  1  0.37123327  0.12986979  0.58413324  1
  Na  Na14  1  0.36436130  0.13418806  0.91957031  1
  Na  Na15  1  0.38697795  0.64427151  0.27555475  1
  Na  Na16  1  0.35762098  0.63618651  0.56065956  1
  Na  Na17  1  0.36019577  0.63157539  0.91638009  1
  Na  Na18  1  0.86374338  0.13673973  0.24512838  1
  Na  Na19  1  0.86657780  0.13850112  0.58936834  1
  Na  Na20  1  0.86428818  0.13733600  0.91745404  1
  Na  Na21  1  0.87118207  0.63492875  0.25328902  1
  Na  Na22  1  0.86171963  0.64265516  0.58489303  1
  Na  Na23  1  0.85512825  0.62716299  0.90170309  1
  Na  Na24  1  0.48418259  0.50127395  0.10490993  1
  Na  Na25  1  0.51146634  -0.01898398  0.43434391  1
  Na  Na26  1  0.91775437  0.48713257  0.71677458  1
  Na  Na27  1  0.99523691  0.51122904  0.08783672  1
  Na  Na28  1  0.98801837  0.00617835  0.09622305  1
  Na  Na29  1  0.99588740  0.00673397  0.40753309  1
  Na  Na30  1  0.49386738  0.01756642  0.06401513  1
  Na  Na31  1  1.01086902  0.56320967  0.44087997  1
  Na  Na32  1  0.94720955  0.01175004  0.73957530  1
  Na  Na33  1  0.51208298  0.49111039  0.90740088  1
  Na  Na34  1  0.00878996  0.45712564  0.90098125  1
  Na  Na35  1  -0.01623919  0.51453417  0.58417979  1
  Na  Na36  1  0.54675079  0.51681522  0.59572284  1
  Na  Na37  1  0.05404470  0.48995883  0.27123676  1
  Na  Na38  1  0.51038628  0.99379184  0.24811773  1
  Na  Na39  1  0.00036706  0.98323104  0.58398503  1
  Na  Na40  1  0.48861937  0.93351806  0.57787054  1
  Na  Na41  1  0.00512690  0.98730344  0.91396803  1
  Na  Na42  1  0.77177772  0.28031759  0.66310665  1
  Na  Na43  1  0.75026203  0.75054270  -0.00102486  1
  Na  Na44  1  0.75512614  0.75780051  0.33697340  1
  Na  Na45  1  0.26064972  0.73262811  0.38183005  1
  Na  Na46  1  0.24640534  0.74652627  0.00232381  1
  Na  Na47  1  0.24005833  0.74422448  0.65072789  1
  Na  Na48  1  0.74556643  0.24486961  0.01245379  1
  Na  Na49  1  0.71139706  0.72306220  0.66321646  1
  Na  Na50  1  0.25469346  0.25221500  0.66566386  1
  Na  Na51  1  0.76015831  0.26419637  0.31996848  1
  Na  Na52  1  0.76106145  0.26349237  0.82789644  1
  Na  Na53  1  0.25968120  0.25698701  0.48916481  1
  Na  Na54  1  0.23962053  0.24032689  0.84746621  1
  Na  Na55  1  0.73088306  0.73595354  0.83045811  1
  Na  Na56  1  0.24956199  0.73909196  0.18587350  1
  Na  Na57  1  0.24893822  0.24551475  0.16666193  1
  Na  Na58  1  0.24960160  0.75532023  0.82451155  1
  Na  Na59  1  0.73255065  0.74703635  0.51247059  1
  Na  Na60  1  0.74804992  0.74841491  0.16855480  1
  Na  Na61  1  0.75807585  0.26745925  0.49286523  1
  Fe  Fe62  1  0.46324898  0.80765017  0.11826469  1
  Fe  Fe63  1  0.45738913  0.80811271  0.78602432  1
  Fe  Fe64  1  0.46451926  0.30846829  0.45314533  1
  Fe  Fe65  1  0.96808838  0.80942802  0.12239777  1
  Fe  Fe66  1  0.96592638  0.80338950  0.45405938  1
  Fe  Fe67  1  0.96913444  0.31151729  0.45162350  1
  Fe  Fe68  1  0.46724315  0.30349232  0.78643456  1
  Fe  Fe69  1  0.96339945  0.80647439  0.77813986  1
  Fe  Fe70  1  0.46304614  0.30888022  0.12100640  1
  Fe  Fe71  1  0.96843982  0.30729647  0.12182640  1
  Fe  Fe72  1  0.19044701  0.03580760  0.37813412  1
  Fe  Fe73  1  0.69804905  0.03425236  0.71015130  1
  Fe  Fe74  1  0.19455804  0.53079065  0.04865129  1
  Fe  Fe75  1  0.19140906  0.03607079  0.71684370  1
  Fe  Fe76  1  0.18728180  0.53215158  0.71323137  1
  Fe  Fe77  1  0.18949335  0.03586031  0.04833855  1
  Fe  Fe78  1  0.69593181  0.53605204  0.04718563  1
  Fe  Fe79  1  0.69884497  0.03519923  0.38578218  1
  Fe  Fe80  1  0.69300355  0.53453685  0.37368559  1
  Fe  Fe81  1  0.69106582  0.03666020  0.04416810  1
  Fe  Fe82  1  0.04121861  0.69248339  0.21797737  1
  Fe  Fe83  1  0.53812450  0.69737765  0.21621819  1
  Fe  Fe84  1  0.53428512  0.19289353  0.54836023  1
  Fe  Fe85  1  0.03492812  0.19245167  0.54739516  1
  Fe  Fe86  1  0.02945350  0.19769630  0.87777796  1
  Fe  Fe87  1  0.53583703  0.19616138  0.21649942  1
  Fe  Fe88  1  0.03993262  0.19318751  0.21729794  1
  Fe  Fe89  1  0.53296206  0.68584486  0.87571320  1
  Fe  Fe90  1  0.03115180  0.68605445  0.87570492  1
  Fe  Fe91  1  0.53673914  0.18733870  0.87885638  1
  Fe  Fe92  1  0.80827650  0.46579553  0.95206575  1
  Fe  Fe93  1  0.29894251  0.96485790  0.95045675  1
  Fe  Fe94  1  0.31111844  0.96400218  0.28810864  1
  Fe  Fe95  1  0.30870965  0.46622712  0.29671115  1
  Fe  Fe96  1  0.30409116  0.96771713  0.61977308  1
  Fe  Fe97  1  0.81380822  0.46107534  0.28273013  1
  Fe  Fe98  1  0.80404876  0.96213560  0.94945733  1
  Fe  Fe99  1  0.80844324  0.96744814  0.28404018  1
  Fe  Fe100  1  0.30788729  0.46110205  0.95437834  1
  Fe  Fe101  1  0.31089109  0.46882906  0.62060585  1
  S  S102  1  0.36170180  0.13796521  0.08274930  1
  S  S103  1  0.36185646  0.13896234  0.41608266  1
  S  S104  1  0.35821482  0.14172808  0.75387092  1
  S  S105  1  0.36098541  0.63748129  0.08545555  1
  S  S106  1  0.37318352  0.63200946  0.41715905  1
  S  S107  1  0.35369213  0.64078809  0.75572103  1
  S  S108  1  0.86221890  0.13787364  0.08390284  1
  S  S109  1  0.86076589  0.14204190  0.41268077  1
  S  S110  1  0.85389814  0.14738416  0.75306484  1
  S  S111  1  0.86342585  0.64271336  0.08462759  1
  S  S112  1  0.85834523  0.63820427  0.41378712  1
  S  S113  1  0.85664407  0.64846445  0.74739353  1
  S  S114  1  0.14635439  0.35253929  0.24746697  1
  S  S115  1  0.14460582  0.35541465  0.58520330  1
  S  S116  1  0.14263349  0.35712102  0.91812683  1
  S  S117  1  0.14307865  0.85934915  0.24900402  1
  S  S118  1  0.13614001  0.86665965  0.58106371  1
  S  S119  1  0.13494649  0.85836722  0.91703763  1
  S  S120  1  0.64067938  0.36113420  0.24599603  1
  S  S121  1  0.63637036  0.35551784  0.58184554  1
  S  S122  1  0.64085566  0.35924093  0.91860691  1
  S  S123  1  0.64188125  0.86417508  0.24629254  1
  S  S124  1  0.63802403  0.86779599  0.58446005  1
  S  S125  1  0.63700200  0.86017637  0.91778256  1
  S  S126  1  0.06341621  0.16561378  0.04116813  1
  S  S127  1  0.06766452  0.16907232  0.37581796  1
  S  S128  1  0.06615589  0.16631413  0.70858419  1
  S  S129  1  0.06853402  0.66761722  0.04291332  1
  S  S130  1  0.06636673  0.67372856  0.37427128  1
  S  S131  1  0.06362791  0.66724721  0.71077045  1
  S  S132  1  0.56917033  0.17282815  0.04359506  1
  S  S133  1  0.56979292  0.16620697  0.37439315  1
  S  S134  1  0.57298844  0.17281361  0.71303211  1
  S  S135  1  0.56681896  0.67008069  0.04264337  1
  S  S136  1  0.58900358  0.67796956  0.37204939  1
  S  S137  1  0.55440213  0.67125195  0.71441452  1
  S  S138  1  0.32608228  0.42692149  0.12605791  1
  S  S139  1  0.33530107  0.42895621  0.46119015  1
  S  S140  1  0.33017898  0.43003813  0.79342769  1
  S  S141  1  0.32806920  0.93312671  0.12251111  1
  S  S142  1  0.32916974  0.93825628  0.45483673  1
  S  S143  1  0.31908386  0.93057472  0.79063669  1
  S  S144  1  0.83730911  0.43603746  0.12439647  1
  S  S145  1  0.82970568  0.43657891  0.45024051  1
  S  S146  1  0.82745916  0.43515776  0.79366187  1
  S  S147  1  0.82890012  0.93181456  0.12149115  1
  S  S148  1  0.83852406  0.94093280  0.45609159  1
  S  S149  1  0.82707408  0.93305301  0.79212352  1
  S  S150  1  0.42767648  0.32420492  0.28661694  1
  S  S151  1  0.42746984  0.32425303  0.62401014  1
  S  S152  1  0.43596664  0.33131778  0.95901078  1
  S  S153  1  0.44196744  0.83784414  0.28996029  1
  S  S154  1  0.41541525  0.82951793  0.62893846  1
  S  S155  1  0.42700796  0.82996478  0.95793233  1
  S  S156  1  0.93915438  0.33084988  0.29020032  1
  S  S157  1  0.93907674  0.33101340  0.61429997  1
  S  S158  1  0.93702683  0.33279517  0.96298950  1
  S  S159  1  0.93388390  0.82999502  0.28926641  1
  S  S160  1  0.93000607  0.83451924  0.61902281  1
  S  S161  1  0.93134255  0.83057214  0.95851096  1
  S  S162  1  0.17015547  0.06475461  0.20603960  1
  S  S163  1  0.16831490  0.06912458  0.54034906  1
  S  S164  1  0.16175974  0.06431637  0.87391958  1
  S  S165  1  0.17440888  0.56305435  0.21083323  1
  S  S166  1  0.16573989  0.55423839  0.54830241  1
  S  S167  1  0.16829197  0.56404690  0.87873793  1
  S  S168  1  0.66897580  0.06810577  0.20818458  1
  S  S169  1  0.67350078  0.07629826  0.54620084  1
  S  S170  1  0.67605703  0.07127480  0.87784662  1
  S  S171  1  0.67449818  0.56956412  0.20714529  1
  S  S172  1  0.67333088  0.56760780  0.53680248  1
  S  S173  1  0.66917725  0.56558292  0.87954660  1
  O  O174  1  0.37205349  0.21501179  0.07315709  1
  O  O175  1  0.37359336  0.21704307  0.40828521  1
  O  O176  1  0.36748592  0.22161003  0.74732604  1
  O  O177  1  0.36919938  0.71478823  0.07360627  1
  O  O178  1  0.38702886  0.70198092  0.39680190  1
  O  O179  1  0.35603324  0.72288036  0.75370533  1
  O  O180  1  0.87155966  0.21688823  0.07626751  1
  O  O181  1  0.86924702  0.22106927  0.40470483  1
  O  O182  1  0.85420519  0.22728143  0.75114889  1
  O  O183  1  0.87178816  0.72323677  0.07941418  1
  O  O184  1  0.86610758  0.71594931  0.40278337  1
  O  O185  1  0.86957006  0.72868624  0.74094548  1
  O  O186  1  0.28287318  0.12786736  0.09038959  1
  O  O187  1  0.28270656  0.13120630  0.42384347  1
  O  O188  1  0.27961499  0.13285623  0.76353751  1
  O  O189  1  0.28234044  0.62978135  0.09430964  1
  O  O190  1  0.29482213  0.62903841  0.42626017  1
  O  O191  1  0.27631033  0.62573210  0.76630343  1
  O  O192  1  0.78345127  0.12771394  0.09114288  1
  O  O193  1  0.78211965  0.13317432  0.42126266  1
  O  O194  1  0.77646863  0.12788865  0.76476044  1
  O  O195  1  0.78514876  0.63402358  0.09442332  1
  O  O196  1  0.77606060  0.62766849  0.41600182  1
  O  O197  1  0.77873592  0.64234345  0.75446677  1
  O  O198  1  0.13933480  0.26929352  0.24452146  1
  O  O199  1  0.13311177  0.27663040  0.59382707  1
  O  O200  1  0.13109637  0.27749168  0.92346764  1
  O  O201  1  0.13608863  0.77843954  0.25301972  1
  O  O202  1  0.12945659  0.79202602  0.59347998  1
  O  O203  1  0.12530190  0.78107311  0.92817230  1
  O  O204  1  0.63105253  0.28329482  0.25642545  1
  O  O205  1  0.62257986  0.27943856  0.59721339  1
  O  O206  1  0.63113611  0.28051267  0.92665859  1
  O  O207  1  0.63498215  0.78227006  0.24697754  1
  O  O208  1  0.62923731  0.79820056  0.60603828  1
  O  O209  1  0.62620415  0.78248791  0.92906785  1
  O  O210  1  0.22590893  0.36787098  0.24118047  1
  O  O211  1  0.22524743  0.36243953  0.58084768  1
  O  O212  1  0.22537922  0.36650180  0.91757237  1
  O  O213  1  0.22149705  0.87063123  0.23983426  1
  O  O214  1  0.21222510  0.88023870  0.56926079  1
  O  O215  1  0.21485386  0.86579910  0.91079089  1
  O  O216  1  0.71858006  0.36898830  0.23605737  1
  O  O217  1  0.71600651  0.35807647  0.57814312  1
  O  O218  1  0.72036400  0.36914754  0.91300210  1
  O  O219  1  0.71871170  0.87403335  0.23361968  1
  O  O220  1  0.71273126  0.87653206  0.57116043  1
  O  O221  1  0.71795721  0.86527228  0.91190980  1
  O  O222  1  0.42161432  0.12937071  0.15062857  1
  O  O223  1  0.42047232  0.12966519  0.48417040  1
  O  O224  1  0.41780481  0.13409763  0.82133629  1
  O  O225  1  0.42168083  0.63091484  0.15332072  1
  O  O226  1  0.43305017  0.61965907  0.47942188  1
  O  O227  1  0.41452771  0.63303538  0.82325559  1
  O  O228  1  0.92215204  0.12926095  0.15170795  1
  O  O229  1  0.92037632  0.13104560  0.47868016  1
  O  O230  1  0.91501487  0.13839757  0.82141783  1
  O  O231  1  0.92378233  0.63176402  0.15054212  1
  O  O232  1  0.91400108  0.63156458  0.48210496  1
  O  O233  1  0.91545949  0.64123111  0.81857012  1
  O  O234  1  0.36980942  0.07632272  0.01550893  1
  O  O235  1  0.36903161  0.07908369  0.34790793  1
  O  O236  1  0.36273987  0.08437470  0.68409902  1
  O  O237  1  0.36848365  0.57606779  0.01825571  1
  O  O238  1  0.37097064  0.56392623  0.34366137  1
  O  O239  1  0.36201290  0.58705796  0.68646279  1
  O  O240  1  0.87121019  0.07823546  0.01645157  1
  O  O241  1  0.86806560  0.08336730  0.34352638  1
  O  O242  1  0.86358360  0.09140872  0.68625870  1
  O  O243  1  0.87014140  0.58581495  0.01547391  1
  O  O244  1  0.86887927  0.57850784  0.34641967  1
  O  O245  1  0.86940165  0.59060290  0.68306113  1
  O  O246  1  0.08746466  0.36440605  0.17987103  1
  O  O247  1  0.08838172  0.36225817  0.51540108  1
  O  O248  1  0.08875865  0.36837261  0.85104488  1
  O  O249  1  0.08329611  0.86736273  0.18100298  1
  O  O250  1  0.07445265  0.87462410  0.51340398  1
  O  O251  1  0.07725644  0.86683482  0.84850864  1
  O  O252  1  0.57996079  0.36851905  0.17888025  1
  O  O253  1  0.58041404  0.35250443  0.50607335  1
  O  O254  1  0.58174624  0.36791620  0.85058451  1
  O  O255  1  0.57948333  0.87744767  0.18252148  1
  O  O256  1  0.57353364  0.87527609  0.52059220  1
  O  O257  1  0.57997760  0.86800011  0.84996305  1
  O  O258  1  0.13552938  0.40496018  0.31516455  1
  O  O259  1  0.13495607  0.41411207  0.65250292  1
  O  O260  1  0.13244251  0.41565431  0.98649503  1
  O  O261  1  0.13476947  0.91573100  0.31763908  1
  O  O262  1  0.12659427  0.92970998  0.64753633  1
  O  O263  1  0.12610379  0.91973025  0.98364326  1
  O  O264  1  0.63479045  0.42150106  0.31451860  1
  O  O265  1  0.62037949  0.41927692  0.63973673  1
  O  O266  1  0.63189925  0.41901328  0.98622120  1
  O  O267  1  0.63819818  0.91887640  0.31803274  1
  O  O268  1  0.63232839  0.93625835  0.65400439  1
  O  O269  1  0.63193224  0.92126066  0.98640615  1
  O  O270  1  0.02728687  0.19596192  0.10209782  1
  O  O271  1  0.03081835  0.20050235  0.43603821  1
  O  O272  1  0.02949278  0.18663790  0.76789092  1
  O  O273  1  0.03304503  0.69820503  0.10455440  1
  O  O274  1  0.02838814  0.70491877  0.43240471  1
  O  O275  1  0.03476191  0.70447797  0.77740155  1
  O  O276  1  0.53240798  0.20201831  0.10444617  1
  O  O277  1  0.53252747  0.19256461  0.43401116  1
  O  O278  1  0.53092001  0.19664022  0.77119623  1
  O  O279  1  0.53083399  0.70052634  0.10378722  1
  O  O280  1  0.57375759  0.70175469  0.44210703  1
  O  O281  1  0.51998992  0.70941237  0.77907144  1
  O  O282  1  0.29911212  0.46799737  0.06739385  1
  O  O283  1  0.30812260  0.45547307  0.39404390  1
  O  O284  1  0.30336995  0.46645240  0.73306641  1
  O  O285  1  0.29495218  0.96781484  0.06063061  1
  O  O286  1  0.29316786  0.97512322  0.39385809  1
  O  O287  1  0.29214523  0.96974886  0.73124993  1
  O  O288  1  0.80761859  0.47327850  0.06369624  1
  O  O289  1  0.79383627  0.46783055  0.38384651  1
  O  O290  1  0.79931902  0.47277616  0.73684938  1
  O  O291  1  0.79804114  0.96752845  0.06023821  1
  O  O292  1  0.80210897  0.97134832  0.38944789  1
  O  O293  1  0.79761198  0.97244930  0.73445042  1
  O  O294  1  0.46968859  0.29960883  0.22839984  1
  O  O295  1  0.46247793  0.29503254  0.56228872  1
  O  O296  1  0.47392767  0.30266251  0.89937314  1
  O  O297  1  0.47131476  0.80182943  0.22303283  1
  O  O298  1  0.44264522  0.80429788  0.56471731  1
  O  O299  1  0.46358011  0.80331326  0.89813695  1
  O  O300  1  0.97604481  0.29740889  0.22916110  1
  O  O301  1  0.97322949  0.29099704  0.55126147  1
  O  O302  1  0.97338544  0.30504785  0.90383872  1
  O  O303  1  0.97166355  0.79984797  0.22917712  1
  O  O304  1  0.96333832  0.80337795  0.55745656  1
  O  O305  1  0.96611755  0.80372565  0.89725224  1
  O  O306  1  0.20050623  0.03042468  0.26830134  1
  O  O307  1  0.20089998  0.03867880  0.60468317  1
  O  O308  1  0.19327090  0.02897125  0.93672063  1
  O  O309  1  0.20263242  0.52247953  0.26735533  1
  O  O310  1  0.20788416  0.52133906  0.61265842  1
  O  O311  1  0.20077661  0.52761207  0.94005305  1
  O  O312  1  0.69801172  0.03203533  0.26936766  1
  O  O313  1  0.69880647  0.04708273  0.61105341  1
  O  O314  1  0.70229639  0.02808352  0.93471015  1
  O  O315  1  0.70292216  0.53017619  0.26592263  1
  O  O316  1  0.70448151  0.52238453  0.58600998  1
  O  O317  1  0.70485489  0.53425670  0.94562649  1
  O  O318  1  0.07618824  0.08141193  0.03454528  1
  O  O319  1  0.08434282  0.08731523  0.37343159  1
  O  O320  1  0.08468108  0.08287697  0.69485390  1
  O  O321  1  0.08291326  0.58465288  0.03647418  1
  O  O322  1  0.08470216  0.59454411  0.37377498  1
  O  O323  1  0.08582243  0.58830546  0.71435474  1
  O  O324  1  0.58755106  0.09148140  0.04076190  1
  O  O325  1  0.58938178  0.08388256  0.36762969  1
  O  O326  1  0.60044981  0.09518439  0.71128306  1
  O  O327  1  0.58433807  0.58824872  0.03719050  1
  O  O328  1  0.60599802  0.59350727  0.34977501  1
  O  O329  1  0.58007069  0.59755777  0.72353167  1
  O  O330  1  0.40903134  0.41283217  0.13070514  1
  O  O331  1  0.41864483  0.41319655  0.47470802  1
  O  O332  1  0.41135622  0.40881490  0.80055457  1
  O  O333  1  0.41067327  0.91854704  0.12730174  1
  O  O334  1  0.40998170  0.92778722  0.45686568  1
  O  O335  1  0.39829242  0.90898137  0.79789200  1
  O  O336  1  0.92013838  0.42086347  0.13144666  1
  O  O337  1  0.90618080  0.40925673  0.44417587  1
  O  O338  1  0.90667782  0.41236610  0.79700712  1
  O  O339  1  0.91000182  0.91387056  0.12496061  1
  O  O340  1  0.91788782  0.91871762  0.45293471  1
  O  O341  1  0.90915238  0.91561608  0.79377949  1
  O  O342  1  0.40044578  0.40133376  0.28732141  1
  O  O343  1  0.40497939  0.40323959  0.62785407  1
  O  O344  1  0.41952932  0.41433979  0.96545338  1
  O  O345  1  0.41965945  0.91776519  0.28684899  1
  O  O346  1  0.40020028  0.91468251  0.64114055  1
  O  O347  1  0.40637766  0.91113759  0.96590620  1
  O  O348  1  0.92363949  0.41199839  0.29126014  1
  O  O349  1  0.92069430  0.40743737  0.60516644  1
  O  O350  1  0.92113523  0.41636838  0.97079753  1
  O  O351  1  0.91475462  0.91095782  0.29263638  1
  O  O352  1  0.92130686  0.91804563  0.62938927  1
  O  O353  1  0.91570777  0.91437520  0.96783228  1
  O  O354  1  0.08981748  0.08603266  0.20325278  1
  O  O355  1  0.08507830  0.08391721  0.53434411  1
  O  O356  1  0.08038609  0.08207640  0.87109885  1
  O  O357  1  0.09227730  0.58192413  0.20812724  1
  O  O358  1  0.08784264  0.56813996  0.55649636  1
  O  O359  1  0.08681510  0.57975834  0.87546308  1
  O  O360  1  0.58544466  0.08347322  0.20054158  1
  O  O361  1  0.58928641  0.09039933  0.53163866  1
  O  O362  1  0.59560726  0.08931046  0.87289866  1
  O  O363  1  0.59307010  0.58834246  0.19819461  1
  O  O364  1  0.59389508  0.58499457  0.53254894  1
  O  O365  1  0.58967637  0.58553384  0.88344775  1
  O  O366  1  0.13734038  0.21273771  0.05847048  1
  O  O367  1  0.13899380  0.21918398  0.39043508  1
  O  O368  1  0.13825314  0.21921208  0.72849829  1
  O  O369  1  0.14249400  0.71736058  0.06132020  1
  O  O370  1  0.13472787  0.72656969  0.38530185  1
  O  O371  1  0.13314385  0.71873911  0.72061816  1
  O  O372  1  0.63964309  0.22422672  0.05834417  1
  O  O373  1  0.63910280  0.21915714  0.38812135  1
  O  O374  1  0.63817350  0.23252024  0.73196971  1
  O  O375  1  0.63874567  0.72195402  0.05945639  1
  O  O376  1  0.65640913  0.72904028  0.37504296  1
  O  O377  1  0.62265422  0.72837688  0.72879411  1
  O  O378  1  0.27663561  0.35376384  0.10531975  1
  O  O379  1  0.28432930  0.35856523  0.44890625  1
  O  O380  1  0.27580777  0.36067877  0.77831574  1
  O  O381  1  0.27919865  0.86008000  0.10710981  1
  O  O382  1  0.28029850  0.86555357  0.43815469  1
  O  O383  1  0.26230195  0.86186957  0.77264016  1
  O  O384  1  0.78648066  0.36428476  0.10708111  1
  O  O385  1  0.77451920  0.36918571  0.43907071  1
  O  O386  1  0.77222285  0.36665304  0.78152959  1
  O  O387  1  0.77724531  0.86045915  0.10642698  1
  O  O388  1  0.78719195  0.87142087  0.44482714  1
  O  O389  1  0.77578221  0.86345929  0.77954027  1
  O  O390  1  0.36181466  0.26494377  0.26713036  1
  O  O391  1  0.35903157  0.26819182  0.60922813  1
  O  O392  1  0.36507240  0.27934377  0.94165808  1
  O  O393  1  0.37286586  0.78707953  0.28012071  1
  O  O394  1  0.34585003  0.78120872  0.62251091  1
  O  O395  1  0.35697063  0.77609374  0.94268144  1
  O  O396  1  0.86757031  0.28063700  0.27475299  1
  O  O397  1  0.86710183  0.27960800  0.59984654  1
  O  O398  1  0.86417967  0.28362974  0.94816620  1
  O  O399  1  0.86187861  0.77756490  0.27117670  1
  O  O400  1  0.85703941  0.78666283  0.60502014  1
  O  O401  1  0.85939675  0.78010137  0.94357541  1
  O  O402  1  0.22353625  0.13108000  0.21506931  1
  O  O403  1  0.21742099  0.14042380  0.55182433  1
  O  O404  1  0.21442106  0.13375826  0.88831843  1
  O  O405  1  0.22606395  0.63457623  0.22814115  1
  O  O406  1  0.21326979  0.62656297  0.56097361  1
  O  O407  1  0.21865162  0.63722336  0.89653224  1
  O  O408  1  0.71957565  0.13965385  0.22452066  1
  O  O409  1  0.72403446  0.14689609  0.55832244  1
  O  O410  1  0.73037081  0.14307299  0.90201382  1
  O  O411  1  0.72814830  0.64032852  0.22515586  1
  O  O412  1  0.72626441  0.64044068  0.55447376  1
  O  O413  1  0.71941992  0.63862560  0.89476367  1
  O  O414  1  0.49399674  0.33486436  0.03290753  1
  O  O415  1  0.48709367  0.32991419  0.35963505  1
  O  O416  1  0.48826885  0.32822555  0.69647444  1
  O  O417  1  0.48778597  0.83226168  0.03068999  1
  O  O418  1  0.50681979  0.84932035  0.35890484  1
  O  O419  1  0.48021348  0.83238444  0.70011036  1
  O  O420  1  0.99568290  0.33430929  0.03659002  1
  O  O421  1  0.99890258  0.33304930  0.36235879  1
  O  O422  1  0.99668695  0.33908450  0.68670404  1
  O  O423  1  0.99158214  0.83150585  0.03081715  1
  O  O424  1  0.99174821  0.83225950  0.36171998  1
  O  O425  1  0.98934181  0.82996598  0.69092703  1
  O  O426  1  0.16114961  0.00149987  0.13279769  1
  O  O427  1  0.16498448  0.00765835  0.46859645  1
  O  O428  1  0.15790363  0.00358160  0.80191605  1
  O  O429  1  0.16559287  0.50670227  0.13425726  1
  O  O430  1  0.15814163  0.49532903  0.47649483  1
  O  O431  1  0.16878969  0.50631742  0.80705222  1
  O  O432  1  0.66755986  0.00888620  0.13567990  1
  O  O433  1  0.67552621  0.01260701  0.47675930  1
  O  O434  1  0.67801181  0.01677058  0.80472742  1
  O  O435  1  0.67413409  0.51007301  0.13491421  1
  O  O436  1  0.67143477  0.51542271  0.45616289  1
  O  O437  1  0.66496630  0.50525126  0.81109643  1
  O  O438  1  0.00862530  0.16562972  0.30258644  1
  O  O439  1  0.00825216  0.16857488  0.63660309  1
  O  O440  1  0.00572357  0.16633724  0.96907781  1
  O  O441  1  0.00651074  0.66675159  0.29830728  1
  O  O442  1  -0.00052864  0.65762837  0.64183585  1
  O  O443  1  0.01059893  0.66952627  0.97160419  1
  O  O444  1  0.50920494  0.16163201  0.30080007  1
  O  O445  1  0.51274650  0.16487201  0.63937112  1
  O  O446  1  0.50909381  0.16847179  0.97068473  1
  O  O447  1  0.51978096  0.67981467  0.30600192  1
  O  O448  1  0.49356103  0.66181869  0.64354905  1
  O  O449  1  0.50752263  0.66917508  0.97086566  1
  O  O450  1  0.32505359  0.48334267  0.19846939  1
  O  O451  1  0.33166023  0.49278920  0.52856892  1
  O  O452  1  0.33411457  0.49026344  0.86669448  1
  O  O453  1  0.32908837  0.99224110  0.19429836  1
  O  O454  1  0.32961318  0.99495895  0.52855467  1
  O  O455  1  0.32062464  0.99088287  0.86303066  1
  O  O456  1  0.83655940  0.49442556  0.19620949  1
  O  O457  1  0.84332400  0.50101328  0.51930801  1
  O  O458  1  0.83539184  0.49358110  0.87113438  1
  O  O459  1  0.83116329  0.99144157  0.19351442  1
  O  O460  1  0.84854936  1.00478210  0.52517274  1
  O  O461  1  0.83735806  0.99214793  0.86830021  1
