# generated using pymatgen
data_Na31Fe20(SO4)36
_symmetry_space_group_name_H-M   'P 1'
_cell_length_a   18.09188330
_cell_length_b   18.09003935
_cell_length_c   19.71773186
_cell_angle_alpha   107.58864503
_cell_angle_beta   107.61159706
_cell_angle_gamma   90.72043654
_symmetry_Int_Tables_number   1
_chemical_formula_structural   Na31Fe20(SO4)36
_chemical_formula_sum   'Na62 Fe40 S72 O288'
_cell_volume   5824.72110918
_cell_formula_units_Z   2
loop_
 _symmetry_equiv_pos_site_id
 _symmetry_equiv_pos_as_xyz
  1  'x, y, z'
loop_
 _atom_site_type_symbol
 _atom_site_label
 _atom_site_symmetry_multiplicity
 _atom_site_fract_x
 _atom_site_fract_y
 _atom_site_fract_z
 _atom_site_occupancy
  Na  Na0  1  0.12627851  0.35268878  0.06584397  1
  Na  Na1  1  0.12805599  0.37128440  0.41401299  1
  Na  Na2  1  0.15220503  0.36615999  0.77361247  1
  Na  Na3  1  0.13208603  0.86943500  0.08270662  1
  Na  Na4  1  0.13899579  0.85527295  0.40847585  1
  Na  Na5  1  0.11927923  0.87291438  0.74490267  1
  Na  Na6  1  0.62666772  0.37389477  0.08280846  1
  Na  Na7  1  0.63248969  0.35271924  0.41897720  1
  Na  Na8  1  0.63329724  0.34773507  0.74317921  1
  Na  Na9  1  0.64187324  0.86647679  0.08678122  1
  Na  Na10  1  0.63157627  0.87030754  0.41826603  1
  Na  Na11  1  0.64625776  0.87098909  0.75767773  1
  Na  Na12  1  0.37438785  0.13639870  0.25868260  1
  Na  Na13  1  0.37115152  0.14011367  0.58304232  1
  Na  Na14  1  0.36308502  0.13291036  0.91335330  1
  Na  Na15  1  0.37031529  0.63056870  0.25193662  1
  Na  Na16  1  0.37151944  0.62998653  0.57977184  1
  Na  Na17  1  0.35642275  0.63838326  0.91424301  1
  Na  Na18  1  0.86723804  0.13319142  0.25059789  1
  Na  Na19  1  0.87432082  0.12884199  0.58783401  1
  Na  Na20  1  0.83290117  0.13768724  0.88662949  1
  Na  Na21  1  0.87417541  0.64800885  0.27076656  1
  Na  Na22  1  0.85049111  0.62911883  0.57210768  1
  Na  Na23  1  0.86424433  0.62959555  0.91126265  1
  Na  Na24  1  0.48474861  0.00916436  0.09754017  1
  Na  Na25  1  0.50713741  0.49008497  0.76214939  1
  Na  Na26  1  1.01702898  -0.04322533  0.47670117  1
  Na  Na27  1  0.99330563  0.50176088  0.74232791  1
  Na  Na28  1  0.95365735  0.01498936  0.04817925  1
  Na  Na29  1  0.50479304  0.06399614  0.44030793  1
  Na  Na30  1  0.48704018  0.01315871  0.74685982  1
  Na  Na31  1  0.99501460  0.50285469  0.09252321  1
  Na  Na32  1  0.54031837  0.47849611  0.36107537  1
  Na  Na33  1  0.50599425  0.43460213  0.54698312  1
  Na  Na34  1  -0.00775853  0.52376852  0.54815782  1
  Na  Na35  1  0.58311421  1.00496825  0.62224417  1
  Na  Na36  1  0.00532923  0.48384746  0.91735382  1
  Na  Na37  1  -0.01468562  0.49491807  0.27712771  1
  Na  Na38  1  0.45610793  0.51578396  0.97570186  1
  Na  Na39  1  0.52083760  0.99019348  0.91882826  1
  Na  Na40  1  0.00953399  0.99289304  0.25521954  1
  Na  Na41  1  -0.02256432  1.04457757  0.86774087  1
  Na  Na42  1  0.74727135  0.73563689  0.34867519  1
  Na  Na43  1  0.26147573  0.26097246  0.32482195  1
  Na  Na44  1  0.24921025  0.25489724  0.67383377  1
  Na  Na45  1  0.25757031  0.75855391  0.66039925  1
  Na  Na46  1  0.74736273  0.24684501  0.33691037  1
  Na  Na47  1  0.24721157  0.26704389  -0.03659013  1
  Na  Na48  1  0.76098625  0.76197657  -0.00805402  1
  Na  Na49  1  0.24265492  0.74363044  0.00714561  1
  Na  Na50  1  0.73315444  0.22169648  0.68599919  1
  Na  Na51  1  0.74964318  0.25456972  -0.01046812  1
  Na  Na52  1  0.74708274  0.25244738  0.16510239  1
  Na  Na53  1  0.25373443  0.25671252  0.15360425  1
  Na  Na54  1  0.24528258  0.74188038  0.18189551  1
  Na  Na55  1  0.73604249  0.23527764  0.51122597  1
  Na  Na56  1  0.26116051  0.75819700  0.48959538  1
  Na  Na57  1  0.75155736  0.74466086  0.17488742  1
  Na  Na58  1  0.26594229  0.26233145  0.49405309  1
  Na  Na59  1  0.73710253  0.72736033  0.50803875  1
  Na  Na60  1  0.76473344  0.76442732  0.82012094  1
  Na  Na61  1  0.24827460  0.75379619  0.83034206  1
  Fe  Fe62  1  0.46641956  0.81350997  0.12558592  1
  Fe  Fe63  1  0.96387403  0.30574270  0.11544547  1
  Fe  Fe64  1  0.96624329  0.29628744  0.78533984  1
  Fe  Fe65  1  0.96582086  0.80895782  0.11895425  1
  Fe  Fe66  1  0.96623371  0.30653327  0.45559310  1
  Fe  Fe67  1  0.46122188  0.31031404  0.11753435  1
  Fe  Fe68  1  0.46767542  0.80578606  0.78567325  1
  Fe  Fe69  1  0.46811780  0.80931475  0.45463031  1
  Fe  Fe70  1  0.46119479  0.31262617  0.78819098  1
  Fe  Fe71  1  0.96032625  0.81024230  0.78670294  1
  Fe  Fe72  1  0.19934143  0.53297398  0.04632596  1
  Fe  Fe73  1  0.69324433  0.03212888  0.37616046  1
  Fe  Fe74  1  0.18295244  0.03790187  0.04287230  1
  Fe  Fe75  1  0.19626806  0.03408207  0.38179227  1
  Fe  Fe76  1  0.19338045  0.53340410  0.71348809  1
  Fe  Fe77  1  0.18870914  0.03865571  0.71594871  1
  Fe  Fe78  1  0.69102663  0.53202249  0.71193348  1
  Fe  Fe79  1  0.69137465  0.53891387  0.04721370  1
  Fe  Fe80  1  0.19235235  0.53876709  0.37920266  1
  Fe  Fe81  1  0.69994243  0.03077151  0.04414937  1
  Fe  Fe82  1  0.03825219  0.19210977  0.54819531  1
  Fe  Fe83  1  0.53300004  0.69184704  0.88015598  1
  Fe  Fe84  1  0.54109233  0.68233725  0.54355996  1
  Fe  Fe85  1  0.53320377  0.19478100  0.88154156  1
  Fe  Fe86  1  0.53629104  0.69236046  0.21479934  1
  Fe  Fe87  1  0.03289062  0.19210771  0.21271046  1
  Fe  Fe88  1  0.03351218  0.69150311  0.87845319  1
  Fe  Fe89  1  0.03775197  0.69585282  0.21697279  1
  Fe  Fe90  1  0.53492561  0.19376547  0.21257932  1
  Fe  Fe91  1  0.03105477  0.70305057  0.54315548  1
  Fe  Fe92  1  0.30738808  0.46962785  0.61974926  1
  Fe  Fe93  1  0.31108451  0.96601092  0.28804011  1
  Fe  Fe94  1  0.79907568  0.46840893  0.29198795  1
  Fe  Fe95  1  0.31010853  0.46477314  0.28824251  1
  Fe  Fe96  1  0.80582737  0.46273291  0.61760159  1
  Fe  Fe97  1  0.81379271  0.96280246  0.29071346  1
  Fe  Fe98  1  0.30820072  0.96743101  0.61826399  1
  Fe  Fe99  1  0.30509812  0.96547468  0.95284032  1
  Fe  Fe100  1  0.80532398  0.46516320  0.95199348  1
  Fe  Fe101  1  0.80812704  0.96177061  0.62285067  1
  S  S102  1  0.35711437  0.13877267  0.08351788  1
  S  S103  1  0.35558701  0.14203381  0.41618862  1
  S  S104  1  0.35683833  0.14033914  0.74947968  1
  S  S105  1  0.36109670  0.64828898  0.08621926  1
  S  S106  1  0.36275253  0.64212812  0.41845808  1
  S  S107  1  0.35823045  0.64392371  0.75057029  1
  S  S108  1  0.85494790  0.14732442  0.08288465  1
  S  S109  1  0.86202405  0.13956101  0.41757744  1
  S  S110  1  0.86308330  0.13526789  0.74483249  1
  S  S111  1  0.86174559  0.64059315  0.08331663  1
  S  S112  1  0.86539058  0.63447286  0.41800674  1
  S  S113  1  0.85993973  0.63641313  0.74904065  1
  S  S114  1  0.13637762  0.36073927  0.24791068  1
  S  S115  1  0.14171286  0.36105257  0.58124493  1
  S  S116  1  0.12853336  0.36665696  0.91854236  1
  S  S117  1  0.14188510  0.86236447  0.24822438  1
  S  S118  1  0.14756431  0.86210682  0.58584002  1
  S  S119  1  0.13949865  0.85813847  0.91683375  1
  S  S120  1  0.63864948  0.35541959  0.24609860  1
  S  S121  1  0.65009606  0.35262931  0.59170645  1
  S  S122  1  0.63735071  0.36605097  0.91868291  1
  S  S123  1  0.64448508  0.85696380  0.24755004  1
  S  S124  1  0.64501501  0.84972303  0.58191095  1
  S  S125  1  0.64045227  0.85484395  0.91908587  1
  S  S126  1  0.05827192  0.16633424  0.04212064  1
  S  S127  1  0.07006693  0.17121196  0.37654034  1
  S  S128  1  0.07475667  0.17743378  0.70786621  1
  S  S129  1  0.06778915  0.66928270  0.04357277  1
  S  S130  1  0.07306870  0.66997466  0.37511080  1
  S  S131  1  0.06632581  0.66804230  0.70711556  1
  S  S132  1  0.56334737  0.16736663  0.04271480  1
  S  S133  1  0.57336199  0.16275949  0.36842064  1
  S  S134  1  0.55511813  0.17338621  0.71488880  1
  S  S135  1  0.56660457  0.67372236  0.04444335  1
  S  S136  1  0.56800483  0.67392463  0.37831081  1
  S  S137  1  0.56848712  0.67002169  0.71205234  1
  S  S138  1  0.32296887  0.43002195  0.12241323  1
  S  S139  1  0.32257246  0.43380748  0.45089037  1
  S  S140  1  0.33393485  0.44259376  0.79369129  1
  S  S141  1  0.32647406  0.93375260  0.12234609  1
  S  S142  1  0.33145064  0.93226862  0.45953285  1
  S  S143  1  0.33481316  0.93351012  0.79319760  1
  S  S144  1  0.83077340  0.43573519  0.12661421  1
  S  S145  1  0.82919657  0.42419876  0.45839369  1
  S  S146  1  0.83143771  0.42960705  0.78997657  1
  S  S147  1  0.83529897  0.93676902  0.12645807  1
  S  S148  1  0.82192212  0.92668485  0.45243438  1
  S  S149  1  0.83336479  0.93624117  0.79188608  1
  S  S150  1  0.43403529  0.32743205  0.28778093  1
  S  S151  1  0.43037489  0.34134727  0.62858651  1
  S  S152  1  0.42831486  0.32392905  0.95491980  1
  S  S153  1  0.43495490  0.83004307  0.29084114  1
  S  S154  1  0.43576834  0.83025952  0.62547184  1
  S  S155  1  0.43253061  0.83316642  0.96002925  1
  S  S156  1  0.92886176  0.32707905  0.29046507  1
  S  S157  1  0.93340702  0.32664779  0.62341661  1
  S  S158  1  0.92414315  0.33361719  0.95667212  1
  S  S159  1  0.94117241  0.83506036  0.29170200  1
  S  S160  1  0.92688613  0.82280762  0.62073316  1
  S  S161  1  0.93260043  0.82419485  0.95420451  1
  S  S162  1  0.16786130  0.06832267  0.20865759  1
  S  S163  1  0.17388058  0.06778726  0.54336303  1
  S  S164  1  0.17409015  0.06675995  0.88023386  1
  S  S165  1  0.17139052  0.56757447  0.20774016  1
  S  S166  1  0.17357445  0.57368643  0.54456467  1
  S  S167  1  0.16592443  0.57141433  0.87376760  1
  S  S168  1  0.67501183  0.06742477  0.20710199  1
  S  S169  1  0.67672693  0.06186135  0.54365617  1
  S  S170  1  0.65451024  0.06346052  0.87458866  1
  S  S171  1  0.67666802  0.57277887  0.21061358  1
  S  S172  1  0.66266192  0.55310816  0.53887226  1
  S  S173  1  0.67211810  0.57038922  0.87787762  1
  O  O174  1  0.36538464  0.21829324  0.07781914  1
  O  O175  1  0.35858283  0.21690528  0.40264276  1
  O  O176  1  0.36479534  0.21943350  0.74239420  1
  O  O177  1  0.36849061  0.73117134  0.08474491  1
  O  O178  1  0.37050818  0.72147918  0.41207866  1
  O  O179  1  0.36726818  0.72477047  0.74612125  1
  O  O180  1  0.86292444  0.23152832  0.08592261  1
  O  O181  1  0.87246356  0.21762007  0.40750366  1
  O  O182  1  0.87843264  0.21010402  0.72727608  1
  O  O183  1  0.87080859  0.71905049  0.07417228  1
  O  O184  1  0.87643834  0.70707404  0.40176138  1
  O  O185  1  0.86968079  0.71683390  0.74657462  1
  O  O186  1  0.27841196  0.12806909  0.09143911  1
  O  O187  1  0.27566568  0.12865101  0.42429309  1
  O  O188  1  0.27867635  0.12797698  0.75658771  1
  O  O189  1  0.28042490  0.63641832  0.09093805  1
  O  O190  1  0.28523473  0.63180529  0.42921340  1
  O  O191  1  0.27937877  0.63405472  0.75858802  1
  O  O192  1  0.77690061  0.13555926  0.09225528  1
  O  O193  1  0.78290734  0.13222147  0.42513970  1
  O  O194  1  0.78452122  0.13370430  0.75087801  1
  O  O195  1  0.78260847  0.63259164  0.09086214  1
  O  O196  1  0.78992782  0.62657376  0.43019508  1
  O  O197  1  0.78230924  0.62630112  0.75946194  1
  O  O198  1  0.12725120  0.28377903  0.26025182  1
  O  O199  1  0.13431588  0.27988726  0.58407519  1
  O  O200  1  0.11677991  0.29518840  0.93589944  1
  O  O201  1  0.13305189  0.78315108  0.25443402  1
  O  O202  1  0.13329698  0.78384337  0.59397857  1
  O  O203  1  0.13105718  0.78014924  0.92774159  1
  O  O204  1  0.63558094  0.27178047  0.24614227  1
  O  O205  1  0.64561716  0.27937951  0.60796023  1
  O  O206  1  0.62776207  0.28872332  0.92953130  1
  O  O207  1  0.63820510  0.77625619  0.25241474  1
  O  O208  1  0.63544505  0.76622319  0.57827129  1
  O  O209  1  0.62487427  0.77708437  0.92899750  1
  O  O210  1  0.21729631  0.36879501  0.24403077  1
  O  O211  1  0.21917557  0.37287595  0.57092953  1
  O  O212  1  0.20277415  0.37385719  0.90487868  1
  O  O213  1  0.22050329  0.87255615  0.24014443  1
  O  O214  1  0.23151070  0.86652467  0.58629907  1
  O  O215  1  0.21929689  0.86649088  0.90985453  1
  O  O216  1  0.71737470  0.37009307  0.23806407  1
  O  O217  1  0.73138105  0.36612653  0.58755638  1
  O  O218  1  0.71672518  0.37492598  0.91205305  1
  O  O219  1  0.72296496  0.86928491  0.23843133  1
  O  O220  1  0.72386016  0.86191686  0.57302095  1
  O  O221  1  0.71787455  0.85846513  0.91152568  1
  O  O222  1  0.41697644  0.12791432  0.15030828  1
  O  O223  1  0.41459759  0.13688567  0.48347644  1
  O  O224  1  0.41662139  0.13011004  0.81611225  1
  O  O225  1  0.41807441  0.63952815  0.15479188  1
  O  O226  1  0.42321156  0.63383847  0.48589083  1
  O  O227  1  0.41721839  0.63508928  0.81836780  1
  O  O228  1  0.91514590  0.13419640  0.14896834  1
  O  O229  1  0.92121398  0.13300500  0.48576963  1
  O  O230  1  0.92251124  0.13224001  0.81245372  1
  O  O231  1  0.92108349  0.63263215  0.15138342  1
  O  O232  1  0.92802029  0.62835392  0.48686900  1
  O  O233  1  0.92092129  0.62306762  0.81410443  1
  O  O234  1  0.36672534  0.08048671  0.01547347  1
  O  O235  1  0.36395117  0.07892854  0.34860656  1
  O  O236  1  0.36636905  0.08193857  0.68091071  1
  O  O237  1  0.37034051  0.59539975  0.01773618  1
  O  O238  1  0.36828856  0.58275325  0.34966631  1
  O  O239  1  0.36591135  0.58805819  0.68144481  1
  O  O240  1  0.86116269  0.09605395  0.01256189  1
  O  O241  1  0.86901700  0.07972235  0.34951656  1
  O  O242  1  0.86808030  0.07048915  0.67646450  1
  O  O243  1  0.86994509  0.58052299  0.01567955  1
  O  O244  1  0.87383864  0.56873327  0.35235848  1
  O  O245  1  0.86661277  0.57955460  0.67888383  1
  O  O246  1  0.08017939  0.36422713  0.17625573  1
  O  O247  1  0.08049287  0.37176435  0.51556958  1
  O  O248  1  0.06386601  0.37368989  0.85056628  1
  O  O249  1  0.08229083  0.87202770  0.18103593  1
  O  O250  1  0.09690599  0.87087792  0.51629098  1
  O  O251  1  0.08167147  0.86199684  0.84692370  1
  O  O252  1  0.57959229  0.36334699  0.17813477  1
  O  O253  1  0.59446688  0.35353807  0.52058836  1
  O  O254  1  0.57933541  0.37441105  0.85057162  1
  O  O255  1  0.58494035  0.86443739  0.17927447  1
  O  O256  1  0.58561315  0.86531282  0.51702796  1
  O  O257  1  0.58016605  0.86465470  0.85178888  1
  O  O258  1  0.12332887  0.42276270  0.31166487  1
  O  O259  1  0.13644028  0.41665507  0.65214707  1
  O  O260  1  0.12002121  0.43441254  0.98294780  1
  O  O261  1  0.13316202  0.92119621  0.31641191  1
  O  O262  1  0.13906105  0.92167991  0.65349486  1
  O  O263  1  0.13098240  0.91821017  0.98367849  1
  O  O264  1  0.62972407  0.40628839  0.31528046  1
  O  O265  1  0.63673755  0.41765770  0.65551215  1
  O  O266  1  0.62984780  0.42639391  0.98667312  1
  O  O267  1  0.63618356  0.91330432  0.31572081  1
  O  O268  1  0.63807865  0.90162674  0.65192184  1
  O  O269  1  0.63267717  0.91528315  0.98708832  1
  O  O270  1  0.02656463  0.20164076  0.10787100  1
  O  O271  1  0.03272031  0.19898393  0.43698079  1
  O  O272  1  0.04233553  0.21234648  0.76949945  1
  O  O273  1  0.03105513  0.70088991  0.10405679  1
  O  O274  1  0.04292896  0.69583469  0.43805552  1
  O  O275  1  0.03066067  0.69727447  0.76854129  1
  O  O276  1  0.52522889  0.19774098  0.10244679  1
  O  O277  1  0.54332003  0.18260525  0.43110059  1
  O  O278  1  0.52402470  0.21485082  0.78024142  1
  O  O279  1  0.52872814  0.70323347  0.10411074  1
  O  O280  1  0.52714431  0.70520941  0.43673464  1
  O  O281  1  0.52712441  0.69955933  0.77042879  1
  O  O282  1  0.29582180  0.46994481  0.06555525  1
  O  O283  1  0.28771207  0.47245909  0.39105165  1
  O  O284  1  0.30042947  0.47517636  0.72865711  1
  O  O285  1  0.29604202  0.97011358  0.06152522  1
  O  O286  1  0.29956691  0.96561727  0.39610917  1
  O  O287  1  0.30752276  0.97006682  0.73295057  1
  O  O288  1  0.80254177  0.47393298  0.06687765  1
  O  O289  1  0.80030370  0.45182751  0.39396254  1
  O  O290  1  0.80468946  0.47033111  0.73231394  1
  O  O291  1  0.80746830  0.97468195  0.06824203  1
  O  O292  1  0.79438724  0.97195587  0.39615618  1
  O  O293  1  0.80735482  0.95645106  0.72035708  1
  O  O294  1  0.46808815  0.29661658  0.22383895  1
  O  O295  1  0.46038864  0.32034309  0.56604572  1
  O  O296  1  0.46734490  0.29381181  0.89479211  1
  O  O297  1  0.47782859  0.80264900  0.23385869  1
  O  O298  1  0.47304624  0.80274488  0.56577182  1
  O  O299  1  0.46676971  0.80304786  0.89790465  1
  O  O300  1  0.96845453  0.30116653  0.23146607  1
  O  O301  1  0.97591123  0.30067686  0.56623007  1
  O  O302  1  0.94775020  0.30686296  0.88906194  1
  O  O303  1  0.97258676  0.80051991  0.22593502  1
  O  O304  1  0.96991264  0.80118066  0.56606999  1
  O  O305  1  0.97134554  0.79167174  0.89442983  1
  O  O306  1  0.19956251  0.03172539  0.26917840  1
  O  O307  1  0.20275050  0.02991551  0.60354381  1
  O  O308  1  0.20511279  0.02570054  0.93981005  1
  O  O309  1  0.20121764  0.53218211  0.26946249  1
  O  O310  1  0.20159795  0.53459487  0.60439643  1
  O  O311  1  0.19356380  0.54495757  0.93906933  1
  O  O312  1  0.70279108  0.02927726  0.26667820  1
  O  O313  1  0.70902600  0.01591675  0.59624131  1
  O  O314  1  0.67820781  0.03058182  0.93789186  1
  O  O315  1  0.70298729  0.53475926  0.26868347  1
  O  O316  1  0.70171297  0.52614805  0.60648932  1
  O  O317  1  0.70286102  0.53579419  0.94023406  1
  O  O318  1  0.07659232  0.08529424  0.04344147  1
  O  O319  1  0.08976969  0.09008692  0.37053756  1
  O  O320  1  0.09470259  0.09848787  0.70886864  1
  O  O321  1  0.08555672  0.58833965  0.04071809  1
  O  O322  1  0.08838491  0.58550631  0.36145595  1
  O  O323  1  0.08402084  0.58549668  0.70147833  1
  O  O324  1  0.58118023  0.08609021  0.04005697  1
  O  O325  1  0.59123778  0.07927965  0.35117764  1
  O  O326  1  0.56178052  0.09265027  0.71723559  1
  O  O327  1  0.58363370  0.59198871  0.03858796  1
  O  O328  1  0.59010952  0.59753856  0.37972584  1
  O  O329  1  0.58539531  0.58895482  0.71003928  1
  O  O330  1  0.40218545  0.40787638  0.12591425  1
  O  O331  1  0.39900510  0.41442302  0.44694367  1
  O  O332  1  0.41441334  0.42125418  0.79476763  1
  O  O333  1  0.40745367  0.91517272  0.12406762  1
  O  O334  1  0.41135493  0.91216351  0.46251577  1
  O  O335  1  0.41773528  0.91623510  0.80014459  1
  O  O336  1  0.91315081  0.41713884  0.13129804  1
  O  O337  1  0.91310258  0.40821514  0.46957879  1
  O  O338  1  0.91306469  0.41013790  0.79404548  1
  O  O339  1  0.91812389  0.91928497  0.13165749  1
  O  O340  1  0.89849775  0.90481804  0.45207598  1
  O  O341  1  0.91548690  0.91345235  0.80237471  1
  O  O342  1  0.41136393  0.40730648  0.28858319  1
  O  O343  1  0.41238297  0.42632770  0.64310200  1
  O  O344  1  0.40243293  0.39898522  0.95347454  1
  O  O345  1  0.41237320  0.90870830  0.29151890  1
  O  O346  1  0.41439138  0.91112733  0.63130351  1
  O  O347  1  0.41680263  0.91617763  0.96658140  1
  O  O348  1  0.90579933  0.40622452  0.29376019  1
  O  O349  1  0.91421299  0.40822741  0.62869292  1
  O  O350  1  0.91362609  0.42028671  0.97181271  1
  O  O351  1  0.92052468  0.91503251  0.29010670  1
  O  O352  1  0.89997047  0.90123505  0.62237067  1
  O  O353  1  0.91272952  0.90169546  0.95503606  1
  O  O354  1  0.08548168  0.08326802  0.20492855  1
  O  O355  1  0.09216929  0.08511068  0.53753605  1
  O  O356  1  0.09735182  0.08710501  0.88092458  1
  O  O357  1  0.09016148  0.58842651  0.20424162  1
  O  O358  1  0.09585388  0.59860110  0.54462904  1
  O  O359  1  0.08050738  0.58454717  0.86054528  1
  O  O360  1  0.59341016  0.08605286  0.19828857  1
  O  O361  1  0.60051428  0.08143881  0.55181169  1
  O  O362  1  0.57092938  0.08355219  0.86836512  1
  O  O363  1  0.59775936  0.59667673  0.20615147  1
  O  O364  1  0.58421049  0.57554455  0.54396121  1
  O  O365  1  0.59068089  0.58849047  0.87324754  1
  O  O366  1  0.13065459  0.21544320  0.05673639  1
  O  O367  1  0.13894481  0.22566035  0.39223655  1
  O  O368  1  0.14293450  0.22804785  0.71440202  1
  O  O369  1  0.13898850  0.72185808  0.06023139  1
  O  O370  1  0.14438587  0.71893374  0.38688975  1
  O  O371  1  0.13758403  0.72005426  0.72317116  1
  O  O372  1  0.63411746  0.21983024  0.05868261  1
  O  O373  1  0.64488916  0.21551096  0.38331860  1
  O  O374  1  0.63169835  0.21604837  0.73177240  1
  O  O375  1  0.63877739  0.72483428  0.06175953  1
  O  O376  1  0.63709101  0.73011054  0.39555251  1
  O  O377  1  0.63957934  0.72270598  0.73214908  1
  O  O378  1  0.26771219  0.35935009  0.10390479  1
  O  O379  1  0.26720178  0.36451996  0.43495190  1
  O  O380  1  0.28257455  0.37226778  0.77938793  1
  O  O381  1  0.27430434  0.86290040  0.10682038  1
  O  O382  1  0.27825808  0.86410247  0.44816588  1
  O  O383  1  0.28301657  0.86187324  0.77650042  1
  O  O384  1  0.77743258  0.36493063  0.10822168  1
  O  O385  1  0.78032661  0.35357249  0.44975299  1
  O  O386  1  0.77830401  0.36046335  0.77402756  1
  O  O387  1  0.78501038  0.86351365  0.10910274  1
  O  O388  1  0.76375162  0.85900374  0.43103328  1
  O  O389  1  0.78049759  0.87010962  0.78477155  1
  O  O390  1  0.36283911  0.27387364  0.27044962  1
  O  O391  1  0.35884628  0.29028258  0.61580982  1
  O  O392  1  0.36384352  0.26547776  0.94195006  1
  O  O393  1  0.36683283  0.77356708  0.27189600  1
  O  O394  1  0.36586674  0.77553182  0.60860841  1
  O  O395  1  0.36007778  0.78285674  0.94407558  1
  O  O396  1  0.85982218  0.27133723  0.27294189  1
  O  O397  1  0.86386448  0.27156022  0.60145401  1
  O  O398  1  0.85286227  0.28775739  0.94893720  1
  O  O399  1  0.87060329  0.78405014  0.27874114  1
  O  O400  1  0.86030340  0.76477608  0.60299935  1
  O  O401  1  0.86331325  0.76821449  0.93720099  1
  O  O402  1  0.21707090  0.14101838  0.22391832  1
  O  O403  1  0.22590771  0.13882121  0.56022237  1
  O  O404  1  0.23050768  0.13458334  0.89785175  1
  O  O405  1  0.22437204  0.63638442  0.22126573  1
  O  O406  1  0.23050575  0.64113859  0.56054711  1
  O  O407  1  0.21347113  0.64444417  0.88490136  1
  O  O408  1  0.72851834  0.13851537  0.22602633  1
  O  O409  1  0.73183703  0.13168982  0.56224005  1
  O  O410  1  0.70527002  0.13568560  0.89225489  1
  O  O411  1  0.73307938  0.64206604  0.22693323  1
  O  O412  1  0.71281203  0.62049772  0.54472509  1
  O  O413  1  0.72434247  0.64050760  0.89236028  1
  O  O414  1  0.49020794  0.33097973  0.02869908  1
  O  O415  1  0.49477733  0.33404890  0.35808763  1
  O  O416  1  0.49102623  0.34271688  0.70129555  1
  O  O417  1  0.49169859  0.83470489  0.03213241  1
  O  O418  1  0.49239040  0.83571387  0.36526194  1
  O  O419  1  0.49448321  0.83421962  0.69909454  1
  O  O420  1  0.98853645  0.33183414  0.02547104  1
  O  O421  1  0.98799360  0.33052112  0.36358526  1
  O  O422  1  0.98981574  0.33039141  0.69808379  1
  O  O423  1  0.99141874  0.82660702  0.02795208  1
  O  O424  1  1.00365940  0.84291014  0.36157040  1
  O  O425  1  0.98420458  0.83065288  0.69682607  1
  O  O426  1  0.16680122  0.00992428  0.13604488  1
  O  O427  1  0.17070807  0.00774074  0.47064601  1
  O  O428  1  0.17189450  0.00764245  0.80681479  1
  O  O429  1  0.16422489  0.50643862  0.13483529  1
  O  O430  1  0.16639470  0.51415479  0.47088023  1
  O  O431  1  0.16784797  0.50954769  0.80382885  1
  O  O432  1  0.67541498  0.00878430  0.13481809  1
  O  O433  1  0.66389334  0.01009775  0.46458140  1
  O  O434  1  0.65103144  0.00355004  0.80453934  1
  O  O435  1  0.67195226  0.51449900  0.13593187  1
  O  O436  1  0.65018743  0.48696386  0.47032186  1
  O  O437  1  0.66827857  0.50912508  0.80601378  1
  O  O438  1  0.00948406  0.16721230  0.30341093  1
  O  O439  1  0.01199563  0.16780194  0.63398982  1
  O  O440  1  -0.00356211  0.16067886  0.97295857  1
  O  O441  1  0.01089704  0.67069519  0.30412544  1
  O  O442  1  0.00725620  0.66479832  0.63443392  1
  O  O443  1  0.00944596  0.66484549  0.96978556  1
  O  O444  1  0.51223654  0.16709709  0.29822739  1
  O  O445  1  0.49855209  0.17479684  0.64492508  1
  O  O446  1  0.50464121  0.16413937  0.96975994  1
  O  O447  1  0.51003114  0.67043320  0.30422778  1
  O  O448  1  0.51192735  0.66888766  0.63879464  1
  O  O449  1  0.50740069  0.67137666  0.97146481  1
  O  O450  1  0.32699707  0.48729203  0.19743733  1
  O  O451  1  0.32790794  0.49163453  0.52548614  1
  O  O452  1  0.34116769  0.50492732  0.86373015  1
  O  O453  1  0.33063278  0.99241964  0.19532569  1
  O  O454  1  0.33585134  0.99498118  0.53098807  1
  O  O455  1  0.33678479  0.99149716  0.86616800  1
  O  O456  1  0.83602374  0.49323973  0.20077945  1
  O  O457  1  0.83126899  0.48843753  0.52887972  1
  O  O458  1  0.83677356  0.48933319  0.86433397  1
  O  O459  1  0.83837248  0.99268886  0.20125176  1
  O  O460  1  0.82452539  0.98240574  0.52775654  1
  O  O461  1  0.83865124  1.00602601  0.85519528  1
