# generated using pymatgen
data_Na31Fe20(SO4)36
_symmetry_space_group_name_H-M   'P 1'
_cell_length_a   18.07822806
_cell_length_b   18.08065440
_cell_length_c   19.71264295
_cell_angle_alpha   107.60659501
_cell_angle_beta   107.57546958
_cell_angle_gamma   90.67728495
_symmetry_Int_Tables_number   1
_chemical_formula_structural   Na31Fe20(SO4)36
_chemical_formula_sum   'Na62 Fe40 S72 O288'
_cell_volume   5817.02096316
_cell_formula_units_Z   2
loop_
 _symmetry_equiv_pos_site_id
 _symmetry_equiv_pos_as_xyz
  1  'x, y, z'
loop_
 _atom_site_type_symbol
 _atom_site_label
 _atom_site_symmetry_multiplicity
 _atom_site_fract_x
 _atom_site_fract_y
 _atom_site_fract_z
 _atom_site_occupancy
  Na  Na0  1  0.26964478  0.29418126  0.15515079  1
  Na  Na1  1  0.12953287  0.36574323  0.40987865  1
  Na  Na2  1  0.12784904  0.34710738  0.73806708  1
  Na  Na3  1  0.13413617  0.86492506  0.08431405  1
  Na  Na4  1  0.12286442  0.86607132  0.41336704  1
  Na  Na5  1  0.13809546  0.87216607  0.75113166  1
  Na  Na6  1  0.62303575  0.37027644  0.08641158  1
  Na  Na7  1  0.62466127  0.37672436  0.41904423  1
  Na  Na8  1  0.63061245  0.36206885  0.74498317  1
  Na  Na9  1  0.63378175  0.86990535  0.09093180  1
  Na  Na10  1  0.68559534  0.87965712  0.45028996  1
  Na  Na11  1  0.63285197  0.86364803  0.74409712  1
  Na  Na12  1  0.35449760  0.15244490  0.25261563  1
  Na  Na13  1  0.36000082  0.13430079  0.58358105  1
  Na  Na14  1  0.36520163  0.14964650  0.93815055  1
  Na  Na15  1  0.37211825  0.63876598  0.25331106  1
  Na  Na16  1  0.37281132  0.62727860  0.57841214  1
  Na  Na17  1  0.36137475  0.63246087  0.91179654  1
  Na  Na18  1  0.86466153  0.13767447  0.25077233  1
  Na  Na19  1  0.86434139  0.12117057  0.57564046  1
  Na  Na20  1  0.86504787  0.13521264  0.91726009  1
  Na  Na21  1  0.87705284  0.64654933  0.26941335  1
  Na  Na22  1  0.86774729  0.63038816  0.57269434  1
  Na  Na23  1  0.86356455  0.63327645  0.91561437  1
  Na  Na24  1  0.49812750  0.56289716  0.11586917  1
  Na  Na25  1  1.01329886  0.49596571  0.71618400  1
  Na  Na26  1  1.04344952  0.45442104  0.09798971  1
  Na  Na27  1  0.95786049  0.00974722  0.72374731  1
  Na  Na28  1  0.49171604  0.51092258  0.73318500  1
  Na  Na29  1  0.47477520  0.00901104  0.76563423  1
  Na  Na30  1  0.98476514  0.04725686  0.44110369  1
  Na  Na31  1  0.98744530  0.01155807  0.08278366  1
  Na  Na32  1  0.49365392  0.02175617  0.07936847  1
  Na  Na33  1  0.00370823  0.98817647  0.25712448  1
  Na  Na34  1  0.00499025  0.48536257  0.27369923  1
  Na  Na35  1  0.55102142  0.97870589  0.35464492  1
  Na  Na36  1  0.50789232  0.48731107  0.91871139  1
  Na  Na37  1  0.01528908  0.99032559  0.90886636  1
  Na  Na38  1  0.02965115  0.97311441  0.58314271  1
  Na  Na39  1  0.49251664  0.50457663  0.26273108  1
  Na  Na40  1  0.01426734  0.48585278  0.91387174  1
  Na  Na41  1  0.51811814  0.99533289  0.56735316  1
  Na  Na42  1  0.76328323  0.77024358  0.63823419  1
  Na  Na43  1  0.74126445  0.24594156  0.00670146  1
  Na  Na44  1  0.73542307  0.24214880  0.33968801  1
  Na  Na45  1  0.22352352  0.22113891  0.67001489  1
  Na  Na46  1  0.74801772  0.74334532  0.34860931  1
  Na  Na47  1  0.74764248  0.24476078  0.66296123  1
  Na  Na48  1  0.74104809  0.74279765  0.00390087  1
  Na  Na49  1  0.25007915  0.74970628  0.33368714  1
  Na  Na50  1  0.26127318  0.75907939  0.66303045  1
  Na  Na51  1  0.24564971  0.74722799  -0.00415126  1
  Na  Na52  1  0.73981164  0.73808568  0.17759206  1
  Na  Na53  1  0.23417360  0.23112460  0.84661278  1
  Na  Na54  1  0.25044363  0.75082688  0.16593109  1
  Na  Na55  1  0.73909651  0.24283182  0.17233529  1
  Na  Na56  1  0.25772101  0.75866209  0.82795910  1
  Na  Na57  1  0.75787529  0.75660749  0.82374477  1
  Na  Na58  1  0.74035969  0.23875468  0.49959455  1
  Na  Na59  1  0.24856435  0.25836393  0.49081438  1
  Na  Na60  1  0.25697118  0.75108095  0.49835589  1
  Na  Na61  1  0.74812933  0.25115180  0.83204954  1
  Fe  Fe62  1  0.96075916  0.80867190  0.11660392  1
  Fe  Fe63  1  0.96447220  0.30252488  0.78363875  1
  Fe  Fe64  1  0.96597873  0.29999950  0.11876713  1
  Fe  Fe65  1  0.46685036  0.80948056  0.79076013  1
  Fe  Fe66  1  0.45827307  0.31204635  0.44700400  1
  Fe  Fe67  1  0.96767474  0.29879273  0.45702361  1
  Fe  Fe68  1  0.46988147  0.80375855  0.12757389  1
  Fe  Fe69  1  0.46277626  0.30760157  0.78184605  1
  Fe  Fe70  1  0.46792798  0.80385448  0.45104643  1
  Fe  Fe71  1  0.96371300  0.80525926  0.77626496  1
  Fe  Fe72  1  0.20273922  0.53145202  0.37410769  1
  Fe  Fe73  1  0.19173506  0.03613986  0.38433052  1
  Fe  Fe74  1  0.69607056  0.53355761  0.05241580  1
  Fe  Fe75  1  0.69761256  0.53520204  0.38394476  1
  Fe  Fe76  1  0.68988976  0.53486664  0.71175586  1
  Fe  Fe77  1  0.68650265  0.03434082  0.04080392  1
  Fe  Fe78  1  0.19179935  0.53463490  0.70739845  1
  Fe  Fe79  1  0.69684778  0.03230841  0.70810997  1
  Fe  Fe80  1  0.19681705  0.53361335  0.04816278  1
  Fe  Fe81  1  0.19211068  0.03504227  0.05362461  1
  Fe  Fe82  1  0.53949624  0.68804210  0.54339315  1
  Fe  Fe83  1  0.52819550  0.19393979  0.53992696  1
  Fe  Fe84  1  0.03847115  0.18939715  0.88370734  1
  Fe  Fe85  1  0.03995826  0.19257334  0.21901515  1
  Fe  Fe86  1  0.53540400  0.69193665  0.88081046  1
  Fe  Fe87  1  0.03216850  0.69058505  0.87538764  1
  Fe  Fe88  1  0.03754748  0.69528801  0.53861242  1
  Fe  Fe89  1  0.03027495  0.69613290  0.21248117  1
  Fe  Fe90  1  0.53187384  0.19777968  0.88116707  1
  Fe  Fe91  1  0.53011866  0.20358381  0.21296434  1
  Fe  Fe92  1  0.30168623  0.46384032  0.61311518  1
  Fe  Fe93  1  0.79892627  0.97137944  0.28836610  1
  Fe  Fe94  1  0.30908528  0.96836115  0.29064979  1
  Fe  Fe95  1  0.30957566  0.46217907  0.95031155  1
  Fe  Fe96  1  0.81205003  0.46384539  0.95705952  1
  Fe  Fe97  1  0.30316091  0.96659223  0.62517811  1
  Fe  Fe98  1  0.80368203  0.96387177  0.94903695  1
  Fe  Fe99  1  0.30377446  0.96491241  0.95598408  1
  Fe  Fe100  1  0.81300110  0.45881248  0.29059638  1
  Fe  Fe101  1  0.80425849  0.46359531  0.61676276  1
  S  S102  1  0.35962959  0.13583441  0.08838407  1
  S  S103  1  0.35313854  0.14442255  0.41589222  1
  S  S104  1  0.36039435  0.14226425  0.74982838  1
  S  S105  1  0.35259197  0.64516243  0.07499373  1
  S  S106  1  0.36486129  0.64218163  0.41734595  1
  S  S107  1  0.36130347  0.63915749  0.75074699  1
  S  S108  1  0.85860576  0.13706342  0.08016420  1
  S  S109  1  0.84847924  0.14454384  0.40704384  1
  S  S110  1  0.85687247  0.14360757  0.75508148  1
  S  S111  1  0.85761218  0.64123938  0.08188377  1
  S  S112  1  0.86885661  0.63119455  0.41504574  1
  S  S113  1  0.85846320  0.64003852  0.74816106  1
  S  S114  1  0.13445938  0.36419667  0.24549558  1
  S  S115  1  0.13813721  0.35865373  0.58626281  1
  S  S116  1  0.13786070  0.36068660  0.91603748  1
  S  S117  1  0.13649869  0.86259243  0.24844040  1
  S  S118  1  0.14720580  0.85337821  0.58445052  1
  S  S119  1  0.13631712  0.85884098  0.91630700  1
  S  S120  1  0.64287177  0.36216066  0.25087031  1
  S  S121  1  0.63657515  0.36086563  0.58433951  1
  S  S122  1  0.64103705  0.36197790  0.91666961  1
  S  S123  1  0.64703235  0.85325851  0.24886079  1
  S  S124  1  0.63705501  0.86094340  0.58447366  1
  S  S125  1  0.64261303  0.85612998  0.91580764  1
  S  S126  1  0.06685495  0.16261182  0.04422497  1
  S  S127  1  0.06259138  0.16576152  0.37361766  1
  S  S128  1  0.05328037  0.16169769  0.71027048  1
  S  S129  1  0.06473086  0.67019577  0.03926547  1
  S  S130  1  0.07634605  0.67037064  0.37464763  1
  S  S131  1  0.07097011  0.67484423  0.70744404  1
  S  S132  1  0.56633684  0.16954238  0.04080423  1
  S  S133  1  0.56358215  0.18129288  0.37672219  1
  S  S134  1  0.56703603  0.17029909  0.70696020  1
  S  S135  1  0.56585770  0.66681698  0.04013489  1
  S  S136  1  0.57176310  0.67192129  0.37672770  1
  S  S137  1  0.56761365  0.67202906  0.71234175  1
  S  S138  1  0.34599126  0.45414766  0.12237360  1
  S  S139  1  0.32321297  0.43176191  0.45907256  1
  S  S140  1  0.32727936  0.43168603  0.78541847  1
  S  S141  1  0.32567043  0.92443170  0.12364407  1
  S  S142  1  0.32850836  0.93153788  0.45952672  1
  S  S143  1  0.33701285  0.93329014  0.79889648  1
  S  S144  1  0.83298804  0.43086775  0.12517043  1
  S  S145  1  0.82976255  0.42409028  0.45841870  1
  S  S146  1  0.82803544  0.43165955  0.79207029  1
  S  S147  1  0.82613197  0.93459527  0.12096982  1
  S  S148  1  0.84382741  0.94187865  0.45415168  1
  S  S149  1  0.83026105  0.93331059  0.78960727  1
  S  S150  1  0.43555983  0.33721474  0.28825087  1
  S  S151  1  0.42953449  0.33014413  0.62177610  1
  S  S152  1  0.43455519  0.33375463  0.95128029  1
  S  S153  1  0.42780077  0.83280443  0.29292477  1
  S  S154  1  0.43313209  0.83187767  0.62820337  1
  S  S155  1  0.43238371  0.82669714  0.96014618  1
  S  S156  1  0.93066757  0.32173888  0.28863965  1
  S  S157  1  0.92445567  0.32807379  0.62478176  1
  S  S158  1  0.93248542  0.32742047  0.95580544  1
  S  S159  1  0.92757700  0.83512102  0.28496735  1
  S  S160  1  0.94412866  0.82719010  0.62184623  1
  S  S161  1  0.93176966  0.83029554  0.95538256  1
  S  S162  1  0.16393415  0.06369889  0.20958323  1
  S  S163  1  0.16959077  0.05956778  0.54248262  1
  S  S164  1  0.16885790  0.06299754  0.88111404  1
  S  S165  1  0.16917032  0.57905979  0.20731483  1
  S  S166  1  0.17675297  0.57527220  0.54168013  1
  S  S167  1  0.16302958  0.56388015  0.86904524  1
  S  S168  1  0.66801708  0.07084252  0.20461631  1
  S  S169  1  0.65910464  0.06893801  0.53804901  1
  S  S170  1  0.66974152  0.06934631  0.87377107  1
  S  S171  1  0.68120088  0.56482894  0.21622893  1
  S  S172  1  0.67714868  0.57031980  0.54893660  1
  S  S173  1  0.66869247  0.56381078  0.87502654  1
  O  O174  1  0.36118346  0.20904260  0.07312004  1
  O  O175  1  0.36059141  0.22366397  0.40997887  1
  O  O176  1  0.37381339  0.21730075  0.73458639  1
  O  O177  1  0.36717023  0.72347548  0.06668928  1
  O  O178  1  0.36918532  0.72572512  0.41513198  1
  O  O179  1  0.36948599  0.71966353  0.74613249  1
  O  O180  1  0.86917827  0.21498769  0.06975416  1
  O  O181  1  0.86965580  0.21940653  0.39485097  1
  O  O182  1  0.86159316  0.22675734  0.75497294  1
  O  O183  1  0.86616995  0.71778972  0.06845698  1
  O  O184  1  0.87212393  0.70267555  0.39618517  1
  O  O185  1  0.86576346  0.72035139  0.74231605  1
  O  O186  1  0.28587503  0.11965948  0.10389396  1
  O  O187  1  0.27506593  0.13257009  0.42572571  1
  O  O188  1  0.28314114  0.13823345  0.75783786  1
  O  O189  1  0.26830743  0.63907481  0.07168040  1
  O  O190  1  0.28678135  0.63106267  0.42786528  1
  O  O191  1  0.28267122  0.62897245  0.75955608  1
  O  O192  1  0.77834540  0.13067072  0.08566223  1
  O  O193  1  0.76681347  0.14325982  0.40431024  1
  O  O194  1  0.77894064  0.13133207  0.76560373  1
  O  O195  1  0.77653624  0.63308538  0.08610567  1
  O  O196  1  0.79410132  0.61878088  0.43001808  1
  O  O197  1  0.78025775  0.62921171  0.75753955  1
  O  O198  1  0.12319711  0.28714099  0.25662537  1
  O  O199  1  0.13200083  0.28820320  0.60668184  1
  O  O200  1  0.12875864  0.28195596  0.92288227  1
  O  O201  1  0.12638302  0.78387755  0.25645182  1
  O  O202  1  0.13622786  0.76965159  0.58691348  1
  O  O203  1  0.12628441  0.77853968  0.92205058  1
  O  O204  1  0.63266588  0.27990569  0.25463265  1
  O  O205  1  0.62585636  0.28204843  0.59314636  1
  O  O206  1  0.63185863  0.28217868  0.92288089  1
  O  O207  1  0.65191855  0.77163407  0.24545811  1
  O  O208  1  0.62445343  0.78428385  0.59747228  1
  O  O209  1  0.63314529  0.77591536  0.92150894  1
  O  O210  1  0.20700064  0.37474252  0.23169816  1
  O  O211  1  0.21761068  0.36995721  0.57874776  1
  O  O212  1  0.21544099  0.36983879  0.90539930  1
  O  O213  1  0.21576026  0.87137035  0.24159492  1
  O  O214  1  0.23165395  0.85970225  0.58663536  1
  O  O215  1  0.21545127  0.86653611  0.90826284  1
  O  O216  1  0.72401536  0.36708994  0.24431601  1
  O  O217  1  0.71694354  0.36698311  0.57825067  1
  O  O218  1  0.72103510  0.37106326  0.91045233  1
  O  O219  1  0.72128829  0.87802108  0.23343756  1
  O  O220  1  0.71370013  0.86671696  0.57530750  1
  O  O221  1  0.72243192  0.86521059  0.90857799  1
  O  O222  1  0.42468815  0.13219380  0.15627320  1
  O  O223  1  0.41264596  0.13510461  0.48329494  1
  O  O224  1  0.42122553  0.13600194  0.81892762  1
  O  O225  1  0.40331030  0.63902051  0.14568150  1
  O  O226  1  0.42449457  0.63800279  0.48755353  1
  O  O227  1  0.42086049  0.62951893  0.81807602  1
  O  O228  1  0.91649986  0.12811992  0.14793125  1
  O  O229  1  0.90081209  0.13540842  0.47588706  1
  O  O230  1  0.91733001  0.13233741  0.82147387  1
  O  O231  1  0.91363257  0.63812066  0.15292008  1
  O  O232  1  0.93220751  0.63271462  0.48628962  1
  O  O233  1  0.91777742  0.63358387  0.81726986  1
  O  O234  1  0.37027169  0.07117569  0.02323410  1
  O  O235  1  0.35890189  0.08642185  0.34619261  1
  O  O236  1  0.37053019  0.07856225  0.68474522  1
  O  O237  1  0.36496037  0.58506064  0.00905291  1
  O  O238  1  0.37361428  0.58861458  0.35014415  1
  O  O239  1  0.37057092  0.58145721  0.68284358  1
  O  O240  1  0.86763382  0.07674653  0.01274087  1
  O  O241  1  0.85961712  0.08096153  0.33953633  1
  O  O242  1  0.86326724  0.09057068  0.68545732  1
  O  O243  1  0.86758626  0.57987424  0.01622138  1
  O  O244  1  0.88047721  0.56495315  0.35297468  1
  O  O245  1  0.86838537  0.58201293  0.68111360  1
  O  O246  1  0.06647913  0.37339751  0.18146222  1
  O  O247  1  0.08098486  0.35593530  0.51278956  1
  O  O248  1  0.07722136  0.37009357  0.84801507  1
  O  O249  1  0.07773328  0.87019409  0.17957734  1
  O  O250  1  0.09547891  0.86193526  0.51532364  1
  O  O251  1  0.07713569  0.86931464  0.84973056  1
  O  O252  1  0.58612601  0.37460240  0.18691108  1
  O  O253  1  0.57924425  0.37009044  0.51732868  1
  O  O254  1  0.58313387  0.37203546  0.84900933  1
  O  O255  1  0.58201318  0.86229767  0.18390310  1
  O  O256  1  0.57564262  0.87053621  0.51801628  1
  O  O257  1  0.58520950  0.86475643  0.84789553  1
  O  O258  1  0.12704939  0.42551467  0.31456616  1
  O  O259  1  0.12573165  0.42675576  0.64693818  1
  O  O260  1  0.12814647  0.42123127  0.98284791  1
  O  O261  1  0.12646359  0.92208233  0.31507850  1
  O  O262  1  0.13563823  0.90800002  0.65092764  1
  O  O263  1  0.12822449  0.91641241  0.98502161  1
  O  O264  1  0.63982010  0.41813833  0.32298824  1
  O  O265  1  0.63087960  0.42017109  0.65375870  1
  O  O266  1  0.63229825  0.42022387  0.98501393  1
  O  O267  1  0.64169984  0.90345591  0.32017703  1
  O  O268  1  0.62946054  0.92234125  0.65260832  1
  O  O269  1  0.63599007  0.91316477  0.98495051  1
  O  O270  1  0.03076259  0.19440140  0.10582824  1
  O  O271  1  0.02598817  0.19231732  0.43286972  1
  O  O272  1  0.02371121  0.20197055  0.77768884  1
  O  O273  1  0.02771731  0.69920173  0.09981613  1
  O  O274  1  0.04284936  0.69149219  0.43706217  1
  O  O275  1  0.02837091  0.70158786  0.76474606  1
  O  O276  1  0.53336798  0.19082790  0.10302527  1
  O  O277  1  0.52072191  0.21147834  0.43420200  1
  O  O278  1  0.53523516  0.20268454  0.77103154  1
  O  O279  1  0.52781087  0.69297353  0.09822732  1
  O  O280  1  0.53835927  0.70481310  0.44180143  1
  O  O281  1  0.52794675  0.70176869  0.77177955  1
  O  O282  1  0.29657401  0.47736797  0.05234340  1
  O  O283  1  0.29579332  0.46613253  0.39827858  1
  O  O284  1  0.29814476  0.46935070  0.72518771  1
  O  O285  1  0.29189738  0.95811517  0.06092340  1
  O  O286  1  0.29900976  0.96917464  0.39879169  1
  O  O287  1  0.31612765  0.96905282  0.73907984  1
  O  O288  1  0.80217646  0.46981101  0.06530893  1
  O  O289  1  0.79950700  0.45995654  0.39711035  1
  O  O290  1  0.80023005  0.46974656  0.73259137  1
  O  O291  1  0.79716151  0.97154604  0.06017155  1
  O  O292  1  0.80819221  0.97059136  0.38625861  1
  O  O293  1  0.80211502  0.96989747  0.73079107  1
  O  O294  1  0.47740469  0.29979365  0.23266828  1
  O  O295  1  0.46735557  0.30241716  0.56215996  1
  O  O296  1  0.47013393  0.30150156  0.88727589  1
  O  O297  1  0.45870249  0.80655412  0.22969005  1
  O  O298  1  0.46803237  0.80628767  0.56687241  1
  O  O299  1  0.47179844  0.79983394  0.90040372  1
  O  O300  1  0.96523778  0.28897734  0.22623783  1
  O  O301  1  0.95556166  0.30310317  0.56236683  1
  O  O302  1  0.96943736  0.29731315  0.89606987  1
  O  O303  1  0.96120973  0.80378467  0.21962342  1
  O  O304  1  0.98297038  0.79047683  0.56451078  1
  O  O305  1  0.96765465  0.80060214  0.89457527  1
  O  O306  1  0.19638363  0.02971035  0.27182671  1
  O  O307  1  0.20500410  0.02192113  0.60020911  1
  O  O308  1  0.20029048  0.03141707  0.94764287  1
  O  O309  1  0.19908667  0.55115978  0.27153626  1
  O  O310  1  0.20221475  0.53535921  0.60117393  1
  O  O311  1  0.19287151  0.52820590  0.92939696  1
  O  O312  1  0.69747229  0.03047397  0.26070399  1
  O  O313  1  0.68489250  0.04106703  0.60430304  1
  O  O314  1  0.69677350  0.02880937  0.93262592  1
  O  O315  1  0.71469515  0.52659485  0.27570014  1
  O  O316  1  0.70488329  0.52890514  0.60769251  1
  O  O317  1  0.69876188  0.52929932  0.93701857  1
  O  O318  1  0.07479407  0.07704085  0.03680679  1
  O  O319  1  0.08169186  0.08339560  0.36848766  1
  O  O320  1  0.06110624  0.08029537  0.70889546  1
  O  O321  1  0.08537496  0.58933732  0.03290685  1
  O  O322  1  0.09632551  0.58873974  0.36028769  1
  O  O323  1  0.08912364  0.59398213  0.70432703  1
  O  O324  1  0.58362743  0.08618870  0.02631433  1
  O  O325  1  0.58525975  0.10469086  0.37703403  1
  O  O326  1  0.58347294  0.08832219  0.70096027  1
  O  O327  1  0.58738919  0.58521552  0.03590143  1
  O  O328  1  0.59957336  0.59464525  0.38120541  1
  O  O329  1  0.58554965  0.59113407  0.71158620  1
  O  O330  1  0.42870139  0.46365488  0.12577395  1
  O  O331  1  0.40234780  0.40852375  0.46422650  1
  O  O332  1  0.41117952  0.41869075  0.79277459  1
  O  O333  1  0.40544052  0.90580431  0.12512418  1
  O  O334  1  0.40899265  0.91093504  0.46373550  1
  O  O335  1  0.42041555  0.91461164  0.81077452  1
  O  O336  1  0.91265935  0.40965701  0.12547101  1
  O  O337  1  0.90734467  0.39997671  0.45932862  1
  O  O338  1  0.90902737  0.41120375  0.79825987  1
  O  O339  1  0.91044841  0.92232930  0.12899883  1
  O  O340  1  0.92926226  0.94775737  0.46912842  1
  O  O341  1  0.91288394  0.91490671  0.79530414  1
  O  O342  1  0.42331308  0.41558730  0.28578184  1
  O  O343  1  0.41003354  0.41152147  0.62888668  1
  O  O344  1  0.41524385  0.41432374  0.94873933  1
  O  O345  1  0.41179389  0.91665842  0.30513903  1
  O  O346  1  0.41150884  0.91299292  0.63619962  1
  O  O347  1  0.41318440  0.90793441  0.96852279  1
  O  O348  1  0.91701143  0.40393648  0.29207396  1
  O  O349  1  0.90453171  0.41101448  0.63652208  1
  O  O350  1  0.91946111  0.41123936  0.96286168  1
  O  O351  1  0.90074916  0.91375735  0.28120436  1
  O  O352  1  0.92881117  0.90555062  0.61887099  1
  O  O353  1  0.91521932  0.91290113  0.96159381  1
  O  O354  1  0.07979103  0.07640263  0.20388027  1
  O  O355  1  0.09039332  0.07435899  0.54372486  1
  O  O356  1  0.08727871  0.08320227  0.88040207  1
  O  O357  1  0.08479531  0.59380320  0.19625166  1
  O  O358  1  0.09943732  0.60235729  0.54242467  1
  O  O359  1  0.07976079  0.58008644  0.86324479  1
  O  O360  1  0.59015124  0.09740434  0.20488902  1
  O  O361  1  0.57743465  0.09272407  0.53250939  1
  O  O362  1  0.58872942  0.08909088  0.86715688  1
  O  O363  1  0.60344470  0.58374845  0.21726894  1
  O  O364  1  0.59855319  0.59129940  0.54840052  1
  O  O365  1  0.58551065  0.57941737  0.86786908  1
  O  O366  1  0.14130423  0.20579837  0.05977640  1
  O  O367  1  0.13217938  0.21754398  0.38646460  1
  O  O368  1  0.13006300  0.20762586  0.72851720  1
  O  O369  1  0.13401891  0.72499335  0.05542430  1
  O  O370  1  0.14559670  0.72567362  0.39148143  1
  O  O371  1  0.14278025  0.72800299  0.72954510  1
  O  O372  1  0.63853215  0.22225253  0.05860703  1
  O  O373  1  0.63210501  0.23909160  0.39676764  1
  O  O374  1  0.63916096  0.22120558  0.72150864  1
  O  O375  1  0.63618840  0.72024191  0.05534935  1
  O  O376  1  0.63698380  0.72776180  0.38719231  1
  O  O377  1  0.63924461  0.72401787  0.73137936  1
  O  O378  1  0.31661493  0.37395413  0.10778534  1
  O  O379  1  0.26785689  0.36598372  0.45010244  1
  O  O380  1  0.27803330  0.35889969  0.76793690  1
  O  O381  1  0.27284099  0.85353570  0.10927239  1
  O  O382  1  0.27390983  0.86158094  0.44198914  1
  O  O383  1  0.28448096  0.86048066  0.77936300  1
  O  O384  1  0.77880456  0.36103640  0.10827949  1
  O  O385  1  0.77304017  0.35791552  0.44694328  1
  O  O386  1  0.77330866  0.36195595  0.77521063  1
  O  O387  1  0.77804777  0.86048550  0.10181856  1
  O  O388  1  0.80745738  0.86131874  0.43307238  1
  O  O389  1  0.77913281  0.86105622  0.77380033  1
  O  O390  1  0.36255698  0.28681441  0.27000378  1
  O  O391  1  0.35983798  0.27669696  0.60554762  1
  O  O392  1  0.36309370  0.28257405  0.93404913  1
  O  O393  1  0.35525019  0.78252537  0.27841493  1
  O  O394  1  0.36511344  0.77584579  0.61318433  1
  O  O395  1  0.36030772  0.77269064  0.93773994  1
  O  O396  1  0.85661517  0.27404814  0.27106802  1
  O  O397  1  0.85515625  0.27578767  0.61388975  1
  O  O398  1  0.85824925  0.27930764  0.93856869  1
  O  O399  1  0.86002421  0.77986259  0.27120953  1
  O  O400  1  0.87447651  0.77562417  0.61031960  1
  O  O401  1  0.86012263  0.77919120  0.93979863  1
  O  O402  1  0.20991436  0.13551670  0.22114534  1
  O  O403  1  0.21932525  0.13231448  0.55616180  1
  O  O404  1  0.21981965  0.13356894  0.89539127  1
  O  O405  1  0.21774623  0.65064583  0.21670961  1
  O  O406  1  0.23550766  0.64213832  0.56031391  1
  O  O407  1  0.21282149  0.63648551  0.88422034  1
  O  O408  1  0.72427751  0.13845448  0.21815667  1
  O  O409  1  0.71291030  0.13813896  0.55067066  1
  O  O410  1  0.72417647  0.14083713  0.89587218  1
  O  O411  1  0.73621195  0.63363849  0.23076223  1
  O  O412  1  0.73310366  0.63891358  0.56821277  1
  O  O413  1  0.71896763  0.63624073  0.89071828  1
  O  O414  1  0.49421137  0.33889613  0.02107265  1
  O  O415  1  0.48937747  0.34039114  0.36497021  1
  O  O416  1  0.48997845  0.33415331  0.69540026  1
  O  O417  1  0.48995617  0.82457624  0.03162427  1
  O  O418  1  0.48898671  0.83072840  0.36235166  1
  O  O419  1  0.49349654  0.83545796  0.70123056  1
  O  O420  1  0.98913947  0.32623801  0.02788859  1
  O  O421  1  0.98866511  0.32170403  0.36005971  1
  O  O422  1  0.98794271  0.33291993  0.69687153  1
  O  O423  1  0.99016543  0.83298963  0.02892707  1
  O  O424  1  0.99043980  0.84468782  0.35387961  1
  O  O425  1  1.00121620  0.83528161  0.69926733  1
  O  O426  1  0.16050660  0.00206858  0.13704930  1
  O  O427  1  0.16544951  0.00346153  0.46625890  1
  O  O428  1  0.16389567  0.00058201  0.81298753  1
  O  O429  1  0.16751796  0.51619844  0.13652393  1
  O  O430  1  0.16906612  0.51655693  0.46826382  1
  O  O431  1  0.15947698  0.50567051  0.79526595  1
  O  O432  1  0.65631622  0.01209164  0.12774423  1
  O  O433  1  0.65185413  0.00494036  0.46931191  1
  O  O434  1  0.67051863  0.01230833  0.80166532  1
  O  O435  1  0.67608662  0.50649387  0.14099588  1
  O  O436  1  0.67419931  0.51178701  0.47631633  1
  O  O437  1  0.66779288  0.50508171  0.80275189  1
  O  O438  1  0.00346649  0.15894463  0.29816654  1
  O  O439  1  -0.00409292  0.16743335  0.64260242  1
  O  O440  1  0.00733174  0.16400561  0.97264378  1
  O  O441  1  0.01386265  0.67440756  0.30585098  1
  O  O442  1  0.01644217  0.67353561  0.63346439  1
  O  O443  1  0.00489550  0.66705298  0.96633596  1
  O  O444  1  0.50745606  0.17846461  0.30200125  1
  O  O445  1  0.50621998  0.17047985  0.63639963  1
  O  O446  1  0.50713243  0.17439489  0.97106313  1
  O  O447  1  0.50704210  0.65659409  0.30654439  1
  O  O448  1  0.51133300  0.66942029  0.63915394  1
  O  O449  1  0.50795989  0.65964690  0.96462294  1
  O  O450  1  0.33380342  0.51075764  0.18795118  1
  O  O451  1  0.33110087  0.49507385  0.53287184  1
  O  O452  1  0.32624062  0.49045012  0.85740349  1
  O  O453  1  0.32750531  0.98492780  0.19506553  1
  O  O454  1  0.33259555  0.99035275  0.53257094  1
  O  O455  1  0.33375400  0.99062042  0.87019168  1
  O  O456  1  0.84034000  0.48906417  0.19918669  1
  O  O457  1  0.83616265  0.48712750  0.53086708  1
  O  O458  1  0.83169500  0.49085080  0.86577777  1
  O  O459  1  0.82263640  0.99188461  0.19238604  1
  O  O460  1  0.82290419  0.99382128  0.51682468  1
  O  O461  1  0.83448572  0.99088376  0.86449208  1
