# generated using pymatgen
data_Na31Fe20(SO4)36
_symmetry_space_group_name_H-M   'P 1'
_cell_length_a   18.07314453
_cell_length_b   18.07354906
_cell_length_c   19.70736479
_cell_angle_alpha   107.57151156
_cell_angle_beta   107.58267526
_cell_angle_gamma   90.71859502
_symmetry_Int_Tables_number   1
_chemical_formula_structural   Na31Fe20(SO4)36
_chemical_formula_sum   'Na62 Fe40 S72 O288'
_cell_volume   5812.02329610
_cell_formula_units_Z   2
loop_
 _symmetry_equiv_pos_site_id
 _symmetry_equiv_pos_as_xyz
  1  'x, y, z'
loop_
 _atom_site_type_symbol
 _atom_site_label
 _atom_site_symmetry_multiplicity
 _atom_site_fract_x
 _atom_site_fract_y
 _atom_site_fract_z
 _atom_site_occupancy
  Na  Na0  1  0.14509097  0.36826106  0.08640415  1
  Na  Na1  1  0.12801876  0.36810807  0.41181016  1
  Na  Na2  1  0.13832500  0.36748199  0.75590619  1
  Na  Na3  1  0.13447419  0.86451692  0.08786366  1
  Na  Na4  1  0.13267205  0.85882371  0.41394974  1
  Na  Na5  1  0.13044819  0.86699877  0.74919462  1
  Na  Na6  1  0.62613634  0.36525246  0.07901059  1
  Na  Na7  1  0.63741913  0.34667458  0.40563071  1
  Na  Na8  1  0.64220225  0.36143077  0.75299152  1
  Na  Na9  1  0.63416778  0.87275391  0.08455119  1
  Na  Na10  1  0.62452308  0.86188033  0.40569078  1
  Na  Na11  1  0.65163447  0.87888457  0.76317247  1
  Na  Na12  1  0.36215457  0.14236484  0.24705696  1
  Na  Na13  1  0.36587495  0.13327814  0.58280989  1
  Na  Na14  1  0.37563873  0.14693691  0.93847262  1
  Na  Na15  1  0.37010587  0.63463326  0.24403362  1
  Na  Na16  1  0.36212428  0.63204770  0.57619770  1
  Na  Na17  1  0.37507278  0.63299482  0.92189344  1
  Na  Na18  1  0.86657021  0.13924361  0.25306350  1
  Na  Na19  1  0.85950592  0.14658738  0.59650802  1
  Na  Na20  1  0.84342764  0.12654103  0.90002048  1
  Na  Na21  1  0.86258912  0.64053317  0.25153957  1
  Na  Na22  1  0.86610643  0.63261064  0.58444862  1
  Na  Na23  1  0.86900699  0.62364590  0.91968046  1
  Na  Na24  1  0.98762305  0.52396793  0.06715099  1
  Na  Na25  1  0.95636252  0.00938030  0.07234532  1
  Na  Na26  1  0.50023670  0.49435141  0.75235722  1
  Na  Na27  1  0.49059488  0.02552829  0.40783001  1
  Na  Na28  1  0.51301999  0.00005062  0.74472809  1
  Na  Na29  1  0.98519916  0.00800291  0.42875287  1
  Na  Na30  1  0.51344339  0.45989441  0.46478748  1
  Na  Na31  1  0.48344845  0.52515413  0.08772685  1
  Na  Na32  1  0.98591278  0.50294216  0.76958848  1
  Na  Na33  1  0.51294126  0.99204473  0.92617041  1
  Na  Na34  1  0.50624338  1.00718789  0.21232946  1
  Na  Na35  1  0.00951247  0.49180566  0.57592705  1
  Na  Na36  1  0.50856831  0.45942641  0.24142728  1
  Na  Na37  1  0.54784360  0.99617861  0.58889190  1
  Na  Na38  1  0.01000802  0.98009208  0.25013641  1
  Na  Na39  1  -0.00685926  0.51601619  0.25333945  1
  Na  Na40  1  -0.01366207  1.01139042  0.90868725  1
  Na  Na41  1  -0.01371346  0.99759459  0.61354609  1
  Na  Na42  1  0.75269110  0.26026951  -0.00548240  1
  Na  Na43  1  0.25862138  0.75945231  0.65298340  1
  Na  Na44  1  0.74897941  0.75077304  0.00213298  1
  Na  Na45  1  0.23069144  0.73175856  0.34274241  1
  Na  Na46  1  0.73283380  0.73999874  0.33463695  1
  Na  Na47  1  0.26882263  0.26793450  0.32108352  1
  Na  Na48  1  0.25211696  0.25256852  0.66325636  1
  Na  Na49  1  0.75024275  0.75327506  0.66999550  1
  Na  Na50  1  0.25788923  0.25382442  0.01674964  1
  Na  Na51  1  0.23954063  0.73137638  0.00948555  1
  Na  Na52  1  0.74082010  0.74438862  0.50114921  1
  Na  Na53  1  0.74211866  0.24363119  0.50789783  1
  Na  Na54  1  0.24803625  0.74523681  0.83474729  1
  Na  Na55  1  0.74486218  0.24578668  0.17360819  1
  Na  Na56  1  0.24674597  0.24584285  0.84198660  1
  Na  Na57  1  0.22564733  0.72252293  0.17064901  1
  Na  Na58  1  0.75769589  0.25482417  0.81927391  1
  Na  Na59  1  0.26421904  0.26264363  0.48926996  1
  Na  Na60  1  0.74084155  0.74369742  0.17014094  1
  Na  Na61  1  0.75581978  0.75584229  0.83799343  1
  Fe  Fe62  1  0.46276971  0.80404051  0.44839196  1
  Fe  Fe63  1  0.96288387  0.30604029  0.44883991  1
  Fe  Fe64  1  0.96896105  0.31159642  0.12004582  1
  Fe  Fe65  1  0.46261419  0.31331480  0.79096485  1
  Fe  Fe66  1  0.96539183  0.80173909  0.12023655  1
  Fe  Fe67  1  0.96539940  0.80645942  0.78815735  1
  Fe  Fe68  1  0.96403520  0.30911215  0.79048257  1
  Fe  Fe69  1  0.47150510  0.79910896  0.12049028  1
  Fe  Fe70  1  0.96377975  0.80683845  0.45337972  1
  Fe  Fe71  1  0.46799334  0.80627499  0.78302030  1
  Fe  Fe72  1  0.70176576  0.03525033  0.04381247  1
  Fe  Fe73  1  0.19455156  0.03338821  0.71708285  1
  Fe  Fe74  1  0.69440923  0.52921329  0.71232253  1
  Fe  Fe75  1  0.70010296  0.53174520  0.04219257  1
  Fe  Fe76  1  0.69339605  0.53386723  0.37726352  1
  Fe  Fe77  1  0.68916069  0.03895087  0.37643959  1
  Fe  Fe78  1  0.19350180  0.53541740  0.71295073  1
  Fe  Fe79  1  0.19234091  0.03215347  0.38360199  1
  Fe  Fe80  1  0.18869264  0.53695020  0.37943351  1
  Fe  Fe81  1  0.19457758  0.03167422  0.04957742  1
  Fe  Fe82  1  0.53728190  0.69365136  0.87841011  1
  Fe  Fe83  1  0.53404473  0.68731996  0.54122424  1
  Fe  Fe84  1  0.53126470  0.20378611  0.20946128  1
  Fe  Fe85  1  0.03666990  0.69329952  0.88504421  1
  Fe  Fe86  1  0.03784208  0.19251043  0.21461529  1
  Fe  Fe87  1  0.03955605  0.19172505  0.88426331  1
  Fe  Fe88  1  0.52864783  0.20118120  0.54466325  1
  Fe  Fe89  1  0.03391278  0.19390024  0.54961581  1
  Fe  Fe90  1  0.52933105  0.19677934  0.88143424  1
  Fe  Fe91  1  0.03428706  0.69009879  0.54643545  1
  Fe  Fe92  1  0.30633380  0.46577072  0.61775733  1
  Fe  Fe93  1  0.80449758  0.96959400  0.28571518  1
  Fe  Fe94  1  0.31272439  0.96070004  0.95563605  1
  Fe  Fe95  1  0.30731498  0.96323113  0.61848793  1
  Fe  Fe96  1  0.29900415  0.47065436  0.95800193  1
  Fe  Fe97  1  0.81307626  0.46342586  0.28756812  1
  Fe  Fe98  1  0.79693419  0.96983066  0.62445762  1
  Fe  Fe99  1  0.30414303  0.96495640  0.28424748  1
  Fe  Fe100  1  0.80966648  0.46044820  0.61805085  1
  Fe  Fe101  1  0.30732357  0.46537245  0.28089535  1
  S  S102  1  0.36276287  0.13138737  0.08501073  1
  S  S103  1  0.35351465  0.13973360  0.41695138  1
  S  S104  1  0.35638537  0.14056550  0.75029284  1
  S  S105  1  0.36089093  0.64504418  0.08075182  1
  S  S106  1  0.35766267  0.64108123  0.41571386  1
  S  S107  1  0.36055806  0.64152175  0.74716284  1
  S  S108  1  0.86300043  0.14734000  0.08327001  1
  S  S109  1  0.86019003  0.14109787  0.42031711  1
  S  S110  1  0.86779966  0.13666259  0.75206525  1
  S  S111  1  0.85886442  0.64381523  0.08827313  1
  S  S112  1  0.85899789  0.64056472  0.41636198  1
  S  S113  1  0.86064496  0.63648794  0.74910803  1
  S  S114  1  0.14177930  0.35787480  0.25201500  1
  S  S115  1  0.13931762  0.35815909  0.58119231  1
  S  S116  1  0.13956478  0.35568822  0.91481591  1
  S  S117  1  0.13959201  0.86054719  0.25104618  1
  S  S118  1  0.13722458  0.86206223  0.58691458  1
  S  S119  1  0.14368878  0.85777934  0.91584689  1
  S  S120  1  0.64840334  0.36000742  0.25354580  1
  S  S121  1  0.64141056  0.36051273  0.58021405  1
  S  S122  1  0.63909807  0.35969142  0.91556514  1
  S  S123  1  0.64095096  0.86386896  0.24764590  1
  S  S124  1  0.63689204  0.85545585  0.57996667  1
  S  S125  1  0.64058904  0.86259596  0.91538316  1
  S  S126  1  0.07049472  0.16513786  0.04166195  1
  S  S127  1  0.06611847  0.16567123  0.37723982  1
  S  S128  1  0.07125656  0.16951041  0.70930687  1
  S  S129  1  0.06272993  0.67055014  0.04206630  1
  S  S130  1  0.06175204  0.67098681  0.37940686  1
  S  S131  1  0.06610616  0.66925589  0.70860692  1
  S  S132  1  0.57348665  0.17062164  0.04363922  1
  S  S133  1  0.56282002  0.16219568  0.36963690  1
  S  S134  1  0.55747443  0.17246371  0.70846629  1
  S  S135  1  0.57582915  0.67191726  0.04048115  1
  S  S136  1  0.56467899  0.66677583  0.37261658  1
  S  S137  1  0.57237825  0.67203677  0.70854283  1
  S  S138  1  0.33353800  0.44351332  0.12348750  1
  S  S139  1  0.32080317  0.43328785  0.45400322  1
  S  S140  1  0.32715327  0.43588413  0.78986833  1
  S  S141  1  0.32919981  0.92433427  0.12218282  1
  S  S142  1  0.32978852  0.93072248  0.45829426  1
  S  S143  1  0.33246428  0.93247182  0.79110519  1
  S  S144  1  0.83285938  0.43566034  0.12632373  1
  S  S145  1  0.83258403  0.43259518  0.45945410  1
  S  S146  1  0.83071821  0.43216198  0.78917825  1
  S  S147  1  0.83319115  0.93687644  0.12615952  1
  S  S148  1  0.82644904  0.93242057  0.45956055  1
  S  S149  1  0.83429556  0.92833684  0.79097810  1
  S  S150  1  0.43920356  0.33443074  0.29320099  1
  S  S151  1  0.43044289  0.33143377  0.62668842  1
  S  S152  1  0.42762351  0.33410596  0.95786545  1
  S  S153  1  0.42703600  0.83349211  0.28917985  1
  S  S154  1  0.43486755  0.83100604  0.62461481  1
  S  S155  1  0.43494785  0.82689121  0.95420965  1
  S  S156  1  0.93623137  0.32931347  0.28904864  1
  S  S157  1  0.93801896  0.33181823  0.62449102  1
  S  S158  1  0.93692506  0.32651842  0.95713135  1
  S  S159  1  0.92921544  0.83854898  0.29501567  1
  S  S160  1  0.92744885  0.82647553  0.62196910  1
  S  S161  1  0.93987633  0.83308058  0.95860560  1
  S  S162  1  0.16627194  0.06584897  0.20993441  1
  S  S163  1  0.16772575  0.06535484  0.54439584  1
  S  S164  1  0.17556202  0.06656452  0.88082211  1
  S  S165  1  0.16211336  0.55718606  0.21096609  1
  S  S166  1  0.16807283  0.56638398  0.54433049  1
  S  S167  1  0.17061296  0.56778675  0.87082264  1
  S  S168  1  0.67635222  0.07556236  0.20815474  1
  S  S169  1  0.66620389  0.06924524  0.53757777  1
  S  S170  1  0.66027577  0.07085206  0.87443029  1
  S  S171  1  0.67189364  0.56026254  0.20669823  1
  S  S172  1  0.67489096  0.56760178  0.54380226  1
  S  S173  1  0.67015031  0.56985245  0.87384328  1
  O  O174  1  0.36838976  0.20556750  0.07116834  1
  O  O175  1  0.35577685  0.21781595  0.41047347  1
  O  O176  1  0.36338983  0.21829140  0.73973909  1
  O  O177  1  0.37680470  0.71906714  0.06309809  1
  O  O178  1  0.36762173  0.72014204  0.40697409  1
  O  O179  1  0.37077398  0.72099335  0.73971709  1
  O  O180  1  0.87169131  0.22907445  0.08093129  1
  O  O181  1  0.87044713  0.21938975  0.41313306  1
  O  O182  1  0.88032836  0.21382475  0.74006906  1
  O  O183  1  0.86293408  0.72617436  0.08355616  1
  O  O184  1  0.86697038  0.71918229  0.40651816  1
  O  O185  1  0.87053382  0.71529931  0.74066798  1
  O  O186  1  0.28593880  0.11819501  0.09693486  1
  O  O187  1  0.27752892  0.12400178  0.43042747  1
  O  O188  1  0.27675555  0.13060425  0.75755442  1
  O  O189  1  0.28167348  0.64575901  0.08609092  1
  O  O190  1  0.27916237  0.63412463  0.42457491  1
  O  O191  1  0.28059584  0.63340292  0.75334405  1
  O  O192  1  0.78470705  0.13695338  0.09237550  1
  O  O193  1  0.78118803  0.13061871  0.42732755  1
  O  O194  1  0.79308298  0.13054135  0.76525235  1
  O  O195  1  0.77487481  0.63132945  0.08887161  1
  O  O196  1  0.77827795  0.63210869  0.42210910  1
  O  O197  1  0.78133056  0.62897379  0.75653885  1
  O  O198  1  0.13148985  0.28035716  0.26416759  1
  O  O199  1  0.13033447  0.27904809  0.58922736  1
  O  O200  1  0.13848592  0.27199028  0.91662722  1
  O  O201  1  0.13381143  0.78376543  0.25951978  1
  O  O202  1  0.12708785  0.78505076  0.59851580  1
  O  O203  1  0.13768742  0.77781960  0.92243820  1
  O  O204  1  0.63518807  0.28221560  0.26190718  1
  O  O205  1  0.62742193  0.27900391  0.58049168  1
  O  O206  1  0.61976079  0.28477668  0.92886964  1
  O  O207  1  0.63532052  0.78692976  0.25615497  1
  O  O208  1  0.63113934  0.77350007  0.58327620  1
  O  O209  1  0.63049067  0.78278111  0.92282910  1
  O  O210  1  0.22299375  0.36607269  0.25047144  1
  O  O211  1  0.21880389  0.36688482  0.57460832  1
  O  O212  1  0.21665326  0.37012994  0.90325227  1
  O  O213  1  0.21595486  0.87385219  0.23846547  1
  O  O214  1  0.21808358  0.87085728  0.58384637  1
  O  O215  1  0.22162446  0.86880309  0.90544174  1
  O  O216  1  0.73087970  0.36714631  0.25211378  1
  O  O217  1  0.72393757  0.36762361  0.57760714  1
  O  O218  1  0.71451335  0.35687689  0.90267100  1
  O  O219  1  0.71787189  0.87679461  0.23493107  1
  O  O220  1  0.71523930  0.86703664  0.57101147  1
  O  O221  1  0.71490649  0.87180611  0.90284290  1
  O  O222  1  0.42454574  0.12666131  0.15359197  1
  O  O223  1  0.41653695  0.13102820  0.48295846  1
  O  O224  1  0.41440791  0.13430630  0.81937365  1
  O  O225  1  0.41952671  0.63871304  0.14784678  1
  O  O226  1  0.41710354  0.63533762  0.48521643  1
  O  O227  1  0.41861873  0.63306547  0.81531980  1
  O  O228  1  0.92229114  0.13710767  0.15188534  1
  O  O229  1  0.91886241  0.13146367  0.48876822  1
  O  O230  1  0.93111045  0.12671208  0.81701074  1
  O  O231  1  0.91249431  0.63772809  0.15786928  1
  O  O232  1  0.91533085  0.63531276  0.48670849  1
  O  O233  1  0.91983491  0.62749362  0.81643451  1
  O  O234  1  0.37140588  0.06848988  0.01831732  1
  O  O235  1  0.36048619  0.08082313  0.34742064  1
  O  O236  1  0.36473370  0.08001806  0.68296694  1
  O  O237  1  0.36699440  0.58039821  0.01335372  1
  O  O238  1  0.36653298  0.58207793  0.34898609  1
  O  O239  1  0.36879051  0.58273093  0.67929984  1
  O  O240  1  0.87203858  0.09142495  0.01585746  1
  O  O241  1  0.87020306  0.08145280  0.35326938  1
  O  O242  1  0.87108243  0.07591239  0.68145033  1
  O  O243  1  0.87098163  0.58916844  0.02184125  1
  O  O244  1  0.86887552  0.58102799  0.35032151  1
  O  O245  1  0.86929366  0.57724856  0.68133047  1
  O  O246  1  0.08693390  0.35977582  0.17934194  1
  O  O247  1  0.08066499  0.36598694  0.51265776  1
  O  O248  1  0.07914118  0.36077365  0.84512946  1
  O  O249  1  0.07726261  0.87159669  0.18579810  1
  O  O250  1  0.08068225  0.86824134  0.51686783  1
  O  O251  1  0.08331186  0.86487313  0.84821668  1
  O  O252  1  0.59421918  0.37141291  0.18663544  1
  O  O253  1  0.58862983  0.37540170  0.51466329  1
  O  O254  1  0.57810699  0.37155162  0.85042220  1
  O  O255  1  0.57895499  0.87337579  0.18121906  1
  O  O256  1  0.57745890  0.86436084  0.51136963  1
  O  O257  1  0.57564934  0.87259293  0.85058092  1
  O  O258  1  0.12637031  0.41889107  0.31487991  1
  O  O259  1  0.12960858  0.41743758  0.64820447  1
  O  O260  1  0.12979127  0.40784672  0.98236259  1
  O  O261  1  0.13262788  0.92146470  0.32035544  1
  O  O262  1  0.12508065  0.92340166  0.65241708  1
  O  O263  1  0.13616375  0.91523179  0.98467786  1
  O  O264  1  0.63988277  0.42003687  0.32236552  1
  O  O265  1  0.63507937  0.41540818  0.65180622  1
  O  O266  1  0.64013596  0.42265978  0.98594460  1
  O  O267  1  0.63559278  0.92434700  0.31641426  1
  O  O268  1  0.62683824  0.91090143  0.64715915  1
  O  O269  1  0.63398553  0.92069683  0.98529242  1
  O  O270  1  0.03665038  0.19639380  0.10417646  1
  O  O271  1  0.02822676  0.19642387  0.43731815  1
  O  O272  1  0.03874584  0.19805933  0.77172386  1
  O  O273  1  0.02427400  0.70508926  0.09968011  1
  O  O274  1  0.03208392  0.70519132  0.44673259  1
  O  O275  1  0.03035696  0.69817226  0.76987305  1
  O  O276  1  0.54041039  0.19468426  0.10527476  1
  O  O277  1  0.52447065  0.17669850  0.42795802  1
  O  O278  1  0.52147639  0.20758750  0.76997449  1
  O  O279  1  0.53912578  0.70149829  0.09937223  1
  O  O280  1  0.53078682  0.69817272  0.43709760  1
  O  O281  1  0.53349345  0.70288550  0.76817257  1
  O  O282  1  0.29486218  0.47576359  0.06236974  1
  O  O283  1  0.29071953  0.47393680  0.39607504  1
  O  O284  1  0.29714038  0.47222432  0.72757936  1
  O  O285  1  0.29653738  0.95862565  0.05989777  1
  O  O286  1  0.29978531  0.96706131  0.39706282  1
  O  O287  1  0.30078510  0.96929157  0.73041498  1
  O  O288  1  0.80222523  0.47319743  0.06802014  1
  O  O289  1  0.80451382  0.47147644  0.40046563  1
  O  O290  1  0.79891236  0.46608387  0.72423299  1
  O  O291  1  0.80719561  0.97617515  0.06862519  1
  O  O292  1  0.79949776  0.96938992  0.39888349  1
  O  O293  1  0.80295558  0.94972723  0.72178746  1
  O  O294  1  0.47068616  0.30449735  0.22922922  1
  O  O295  1  0.46659615  0.30246147  0.56769832  1
  O  O296  1  0.45570680  0.30008920  0.88951568  1
  O  O297  1  0.46357280  0.81563937  0.22998937  1
  O  O298  1  0.46873853  0.80092185  0.56227381  1
  O  O299  1  0.47082827  0.79517866  0.89246749  1
  O  O300  1  0.97541506  0.30049924  0.22985792  1
  O  O301  1  0.97377117  0.30135542  0.56247633  1
  O  O302  1  0.97407307  0.29111536  0.89587810  1
  O  O303  1  0.96460054  0.81934986  0.23511269  1
  O  O304  1  0.96451832  0.79783523  0.56084198  1
  O  O305  1  0.97421470  0.79302868  0.89630966  1
  O  O306  1  0.19613902  0.03134788  0.27251366  1
  O  O307  1  0.19869168  0.02958407  0.60550675  1
  O  O308  1  0.20544125  0.02816069  0.94023361  1
  O  O309  1  0.20479325  0.52579027  0.27616466  1
  O  O310  1  0.19951328  0.52733828  0.60410298  1
  O  O311  1  0.19767090  0.53214092  0.93000123  1
  O  O312  1  0.70454907  0.03809888  0.26997008  1
  O  O313  1  0.69304887  0.03006956  0.59536727  1
  O  O314  1  0.69042271  0.04074172  0.93856413  1
  O  O315  1  0.70985047  0.52533887  0.26869185  1
  O  O316  1  0.70469186  0.53153331  0.60497015  1
  O  O317  1  0.69185613  0.53671214  0.93558322  1
  O  O318  1  0.08784803  0.08280033  0.03785802  1
  O  O319  1  0.07975556  0.08231289  0.37201249  1
  O  O320  1  0.09035253  0.08766720  0.70237814  1
  O  O321  1  0.08171905  0.59300049  0.04285071  1
  O  O322  1  0.08801289  0.59304591  0.38141060  1
  O  O323  1  0.08320484  0.58682009  0.70099448  1
  O  O324  1  0.59419189  0.08869291  0.03237833  1
  O  O325  1  0.57564163  0.07585448  0.34789430  1
  O  O326  1  0.56265612  0.08928106  0.70102171  1
  O  O327  1  0.60039252  0.59342368  0.04137448  1
  O  O328  1  0.59059135  0.58850834  0.37390575  1
  O  O329  1  0.59130858  0.59198891  0.70675626  1
  O  O330  1  0.41639312  0.43771744  0.12847411  1
  O  O331  1  0.39697249  0.40917829  0.45468008  1
  O  O332  1  0.40880967  0.42001045  0.79412438  1
  O  O333  1  0.40948481  0.90540936  0.12399654  1
  O  O334  1  0.41237346  0.91501466  0.46551078  1
  O  O335  1  0.41446592  0.91608087  0.79458737  1
  O  O336  1  0.91411683  0.41614954  0.12847956  1
  O  O337  1  0.91385808  0.41233567  0.46298351  1
  O  O338  1  0.90999818  0.40907269  0.78537444  1
  O  O339  1  0.91428526  0.91510190  0.12900574  1
  O  O340  1  0.91073575  0.91798100  0.46951745  1
  O  O341  1  0.91697495  0.90755019  0.79821197  1
  O  O342  1  0.41031452  0.41241332  0.29065881  1
  O  O343  1  0.40972117  0.41280485  0.63164163  1
  O  O344  1  0.40179135  0.41213943  0.95748585  1
  O  O345  1  0.40954363  0.91771332  0.30665891  1
  O  O346  1  0.41522236  0.91278352  0.62971928  1
  O  O347  1  0.41954891  0.90857518  0.95666934  1
  O  O348  1  0.91973798  0.41091597  0.29439853  1
  O  O349  1  0.92424935  0.41535715  0.63102958  1
  O  O350  1  0.92592972  0.40712936  0.96275519  1
  O  O351  1  0.91286146  0.92330287  0.31032781  1
  O  O352  1  0.90576489  0.90593974  0.62472578  1
  O  O353  1  0.93386677  0.91430772  0.95980494  1
  O  O354  1  0.08239339  0.07925998  0.20226284  1
  O  O355  1  0.08607500  0.08407760  0.54003767  1
  O  O356  1  0.09530029  0.08581818  0.87806641  1
  O  O357  1  0.08258113  0.56915033  0.21428047  1
  O  O358  1  0.08752014  0.58403849  0.54485339  1
  O  O359  1  0.08965861  0.59013568  0.86467878  1
  O  O360  1  0.59626949  0.09554895  0.20443994  1
  O  O361  1  0.58488624  0.09010421  0.53533254  1
  O  O362  1  0.57628100  0.08853667  0.86798299  1
  O  O363  1  0.58968417  0.56437723  0.20094546  1
  O  O364  1  0.59305816  0.58458823  0.53797227  1
  O  O365  1  0.58731698  0.58954496  0.85880631  1
  O  O366  1  0.13989278  0.21559523  0.05201683  1
  O  O367  1  0.13883035  0.21508516  0.39489461  1
  O  O368  1  0.14121615  0.22142480  0.72090522  1
  O  O369  1  0.13319757  0.72487802  0.05623229  1
  O  O370  1  0.12752817  0.72554419  0.38844775  1
  O  O371  1  0.13730386  0.72119683  0.72461492  1
  O  O372  1  0.64305793  0.22479764  0.05824512  1
  O  O373  1  0.63779597  0.21135840  0.39545097  1
  O  O374  1  0.63278989  0.21798330  0.72646844  1
  O  O375  1  0.64407514  0.72759311  0.05315308  1
  O  O376  1  0.63481161  0.72264893  0.38963432  1
  O  O377  1  0.64311248  0.72573691  0.72572749  1
  O  O378  1  0.28965149  0.36839473  0.11148744  1
  O  O379  1  0.26308018  0.36486731  0.43687071  1
  O  O380  1  0.27628143  0.36265148  0.77065372  1
  O  O381  1  0.27662328  0.85528282  0.11002250  1
  O  O382  1  0.27803538  0.86023344  0.44300909  1
  O  O383  1  0.28127663  0.86002891  0.77354260  1
  O  O384  1  0.78092149  0.36532083  0.11319468  1
  O  O385  1  0.77993466  0.36412792  0.44659382  1
  O  O386  1  0.77878370  0.36220302  0.77507632  1
  O  O387  1  0.77907825  0.86757692  0.11079628  1
  O  O388  1  0.77619503  0.85926291  0.44065291  1
  O  O389  1  0.78452685  0.85750652  0.78270901  1
  O  O390  1  0.37412781  0.27886599  0.28495208  1
  O  O391  1  0.35905643  0.27880285  0.61171143  1
  O  O392  1  0.35981937  0.27895477  0.94699352  1
  O  O393  1  0.35592384  0.78026977  0.27013863  1
  O  O394  1  0.36613486  0.77886633  0.61329655  1
  O  O395  1  0.36200057  0.77709407  0.93675878  1
  O  O396  1  0.86578141  0.27664400  0.27138418  1
  O  O397  1  0.86530209  0.28242580  0.60677009  1
  O  O398  1  0.86359626  0.27540007  0.93860459  1
  O  O399  1  0.85724810  0.78701576  0.27783951  1
  O  O400  1  0.85759129  0.77195444  0.60582125  1
  O  O401  1  0.86467059  0.78762856  0.94336935  1
  O  O402  1  0.21536877  0.13812461  0.22579915  1
  O  O403  1  0.21931295  0.13606899  0.55888376  1
  O  O404  1  0.22927211  0.13686801  0.89735026  1
  O  O405  1  0.20973837  0.63222058  0.22714029  1
  O  O406  1  0.21982452  0.63762950  0.56190554  1
  O  O407  1  0.22416455  0.63738408  0.88366461  1
  O  O408  1  0.73115490  0.14396603  0.22464725  1
  O  O409  1  0.71995777  0.13786388  0.55182548  1
  O  O410  1  0.70935634  0.14354598  0.88759787  1
  O  O411  1  0.71737786  0.63736755  0.22631374  1
  O  O412  1  0.72656323  0.64010607  0.56155725  1
  O  O413  1  0.72411459  0.64022812  0.89002959  1
  O  O414  1  0.49283935  0.34117759  0.02498621  1
  O  O415  1  0.50334818  0.34988292  0.36460295  1
  O  O416  1  0.48874089  0.33897060  0.70227641  1
  O  O417  1  0.49287684  0.82787243  0.02633670  1
  O  O418  1  0.48667884  0.82944949  0.36016912  1
  O  O419  1  0.49745740  0.83758826  0.69735208  1
  O  O420  1  0.99504050  0.32147675  0.02839626  1
  O  O421  1  0.99385475  0.32946242  0.36213494  1
  O  O422  1  0.99641817  0.33145442  0.69610839  1
  O  O423  1  0.99563291  0.83158509  0.03164300  1
  O  O424  1  0.98847984  0.83597402  0.36674115  1
  O  O425  1  0.98774793  0.82848985  0.69366622  1
  O  O426  1  0.16749222  0.00558513  0.13913263  1
  O  O427  1  0.16318249  0.00491053  0.47169865  1
  O  O428  1  0.17188193  0.00794271  0.80714197  1
  O  O429  1  0.16023603  0.49923908  0.14062184  1
  O  O430  1  0.16380920  0.50883544  0.47105010  1
  O  O431  1  0.16332819  0.50759603  0.79583011  1
  O  O432  1  0.67483747  0.01433548  0.13668848  1
  O  O433  1  0.65699990  0.01061879  0.46139365  1
  O  O434  1  0.65569152  0.00992602  0.80391748  1
  O  O435  1  0.67919526  0.50715125  0.13459149  1
  O  O436  1  0.67457642  0.50937594  0.47201563  1
  O  O437  1  0.67061678  0.50801449  0.80303532  1
  O  O438  1  0.00866762  0.16471228  0.30414902  1
  O  O439  1  0.00859579  0.16544763  0.63730263  1
  O  O440  1  0.00789444  0.15763367  0.96875409  1
  O  O441  1  -0.00454420  0.65941278  0.31146711  1
  O  O442  1  0.00637540  0.66772865  0.63630388  1
  O  O443  1  0.00554148  0.66604783  0.96599315  1
  O  O444  1  0.50830049  0.17320375  0.30053115  1
  O  O445  1  0.50227220  0.17709632  0.63578052  1
  O  O446  1  0.51091318  0.17049421  0.97298082  1
  O  O447  1  0.50480732  0.66044819  0.30259485  1
  O  O448  1  0.51358819  0.66937163  0.63566122  1
  O  O449  1  0.51633493  0.66289021  0.96533519  1
  O  O450  1  0.33152358  0.50026636  0.19710746  1
  O  O451  1  0.32472691  0.49175743  0.52857728  1
  O  O452  1  0.32522352  0.49338246  0.86063651  1
  O  O453  1  0.33494386  0.98688637  0.19460755  1
  O  O454  1  0.33016421  0.99135795  0.53030371  1
  O  O455  1  0.33530960  0.99027578  0.86406174  1
  O  O456  1  0.84243202  0.49411387  0.20261589  1
  O  O457  1  0.84065657  0.49317063  0.53405691  1
  O  O458  1  0.83937568  0.49400445  0.85868402  1
  O  O459  1  0.84194308  0.99496336  0.20222770  1
  O  O460  1  0.82522405  0.99026082  0.53162777  1
  O  O461  1  0.83939839  0.99377369  0.85794261  1
