# generated using pymatgen
data_Na31Fe20(SO4)36
_symmetry_space_group_name_H-M   'P 1'
_cell_length_a   18.07457705
_cell_length_b   18.06616445
_cell_length_c   19.70829228
_cell_angle_alpha   107.56542052
_cell_angle_beta   107.59310511
_cell_angle_gamma   90.71040213
_symmetry_Int_Tables_number   1
_chemical_formula_structural   Na31Fe20(SO4)36
_chemical_formula_sum   'Na62 Fe40 S72 O288'
_cell_volume   5810.33055548
_cell_formula_units_Z   2
loop_
 _symmetry_equiv_pos_site_id
 _symmetry_equiv_pos_as_xyz
  1  'x, y, z'
loop_
 _atom_site_type_symbol
 _atom_site_label
 _atom_site_symmetry_multiplicity
 _atom_site_fract_x
 _atom_site_fract_y
 _atom_site_fract_z
 _atom_site_occupancy
  Na  Na0  1  0.14024312  0.37153532  0.09616926  1
  Na  Na1  1  0.13519522  0.36230560  0.41512621  1
  Na  Na2  1  0.12699585  0.36804096  0.74667306  1
  Na  Na3  1  0.13857162  0.86687800  0.08850992  1
  Na  Na4  1  0.13215751  0.86334397  0.40373402  1
  Na  Na5  1  0.13036278  0.85955107  0.74829313  1
  Na  Na6  1  0.64524424  0.36959265  0.08988860  1
  Na  Na7  1  0.64117423  0.38149473  0.42240227  1
  Na  Na8  1  0.63731688  0.36729215  0.75221624  1
  Na  Na9  1  0.63757374  0.86168696  0.08402946  1
  Na  Na10  1  0.62956922  0.86117858  0.41037495  1
  Na  Na11  1  0.62946157  0.86681760  0.74955130  1
  Na  Na12  1  0.36587165  0.14658976  0.25778244  1
  Na  Na13  1  0.34977874  0.12337828  0.55851613  1
  Na  Na14  1  0.36495431  0.13170221  0.91132766  1
  Na  Na15  1  0.37424070  0.62725481  0.26113272  1
  Na  Na16  1  0.35936714  0.62893648  0.57610689  1
  Na  Na17  1  0.37316443  0.62926333  0.91664080  1
  Na  Na18  1  0.86463968  0.13689910  0.25047545  1
  Na  Na19  1  0.86205589  0.13760323  0.58766516  1
  Na  Na20  1  0.86273926  0.14260784  0.92091464  1
  Na  Na21  1  0.85475204  0.64273286  0.24728637  1
  Na  Na22  1  0.87320379  0.62784675  0.58465567  1
  Na  Na23  1  0.86262116  0.63881568  0.91867502  1
  Na  Na24  1  0.49144810  0.53537462  0.76421898  1
  Na  Na25  1  0.49413300  0.00840079  0.08631875  1
  Na  Na26  1  0.49725765  0.51100505  0.06759654  1
  Na  Na27  1  0.51152452  -0.04015096  0.47824331  1
  Na  Na28  1  0.94609426  0.50008286  0.41289200  1
  Na  Na29  1  0.99022948  0.00120811  0.75030676  1
  Na  Na30  1  0.98803316  0.01138421  0.08611329  1
  Na  Na31  1  1.00628759  0.00065932  0.41753247  1
  Na  Na32  1  0.98899213  0.53804468  0.08860467  1
  Na  Na33  1  0.00985087  0.98637533  0.58382685  1
  Na  Na34  1  0.49307405  0.99349403  0.27253163  1
  Na  Na35  1  0.00027542  0.51621919  0.88994579  1
  Na  Na36  1  0.55204466  0.48895290  0.28861700  1
  Na  Na37  1  0.03370505  0.98724857  0.25727958  1
  Na  Na38  1  -0.01898427  0.52081944  0.25633131  1
  Na  Na39  1  0.00276607  0.94975096  0.90451470  1
  Na  Na40  1  0.51837680  0.99155523  0.89740459  1
  Na  Na41  1  0.50538000  0.51077834  0.54454485  1
  Na  Na42  1  0.73359529  0.73636196  0.01444339  1
  Na  Na43  1  0.24913832  0.74694263  0.33278273  1
  Na  Na44  1  0.24099655  0.23159645  0.35818413  1
  Na  Na45  1  0.76111844  0.26858115  0.32862030  1
  Na  Na46  1  0.25154266  0.74823900  0.66399907  1
  Na  Na47  1  0.76431222  0.75970189  0.66889587  1
  Na  Na48  1  0.24690763  0.74725726  0.00295257  1
  Na  Na49  1  0.26045555  0.25246821  0.64616088  1
  Na  Na50  1  0.25477125  0.25617349  -0.00244243  1
  Na  Na51  1  0.74197832  0.73799729  0.33644905  1
  Na  Na52  1  0.25196764  0.74675078  0.83437292  1
  Na  Na53  1  0.74746585  0.73408084  0.50072074  1
  Na  Na54  1  0.26312555  0.75722149  0.49273071  1
  Na  Na55  1  0.25794900  0.26019481  0.17134090  1
  Na  Na56  1  0.76323267  0.26522402  0.15201504  1
  Na  Na57  1  0.74795399  0.25040704  0.83415870  1
  Na  Na58  1  0.74589142  0.25134408  0.50538789  1
  Na  Na59  1  0.24042486  0.74060838  0.17561371  1
  Na  Na60  1  0.74028130  0.74248037  0.84014528  1
  Na  Na61  1  0.25564764  0.25792740  0.82248478  1
  Fe  Fe62  1  0.97127777  0.80410471  0.44908350  1
  Fe  Fe63  1  0.96788784  0.79960175  0.12232372  1
  Fe  Fe64  1  0.96065894  0.31506792  0.12196724  1
  Fe  Fe65  1  0.46555406  0.31048454  0.12257638  1
  Fe  Fe66  1  0.96834473  0.30864916  0.45683945  1
  Fe  Fe67  1  0.96181147  0.30736872  0.78573736  1
  Fe  Fe68  1  0.46843614  0.79765291  0.79131520  1
  Fe  Fe69  1  0.46764867  0.30762216  0.44908652  1
  Fe  Fe70  1  0.46602736  0.30790779  0.78474496  1
  Fe  Fe71  1  0.46459458  0.80697550  0.11889079  1
  Fe  Fe72  1  0.68756966  0.03587238  0.71205204  1
  Fe  Fe73  1  0.68951247  0.53708041  0.71349503  1
  Fe  Fe74  1  0.19306424  0.53272582  0.04994936  1
  Fe  Fe75  1  0.69583409  0.03460797  0.38369656  1
  Fe  Fe76  1  0.19241888  0.03593484  0.04813175  1
  Fe  Fe77  1  0.19862245  0.52860218  0.37425134  1
  Fe  Fe78  1  0.18658448  0.53115661  0.70551823  1
  Fe  Fe79  1  0.19466644  0.03480942  0.71618299  1
  Fe  Fe80  1  0.69647578  0.03712336  0.04905025  1
  Fe  Fe81  1  0.68690811  0.53754345  0.04579082  1
  Fe  Fe82  1  0.53680757  0.19003350  0.21411681  1
  Fe  Fe83  1  0.03256516  0.19442429  0.88370915  1
  Fe  Fe84  1  0.03580799  0.68882012  0.54382470  1
  Fe  Fe85  1  0.03558980  0.19474534  0.21979029  1
  Fe  Fe86  1  0.03492628  0.19102897  0.55020283  1
  Fe  Fe87  1  0.53681860  0.19060613  0.87785481  1
  Fe  Fe88  1  0.52874279  0.70085676  0.53868394  1
  Fe  Fe89  1  0.53950252  0.19412858  0.54976094  1
  Fe  Fe90  1  0.02928757  0.69893467  0.87039255  1
  Fe  Fe91  1  0.53280387  0.69637103  0.21642752  1
  Fe  Fe92  1  0.30114492  0.97010570  0.29370619  1
  Fe  Fe93  1  0.31174850  0.96349096  0.61966345  1
  Fe  Fe94  1  0.30614809  0.46085020  0.61503238  1
  Fe  Fe95  1  0.30698954  0.96679768  0.95318444  1
  Fe  Fe96  1  0.81063218  0.46490774  0.62332284  1
  Fe  Fe97  1  0.80733904  0.96314625  0.61852041  1
  Fe  Fe98  1  0.80642739  0.46513355  0.95141088  1
  Fe  Fe99  1  0.80776744  0.96727150  0.95027185  1
  Fe  Fe100  1  0.80819667  0.96375104  0.28411028  1
  Fe  Fe101  1  0.30518164  0.46452394  0.95154346  1
  S  S102  1  0.35950503  0.14095418  0.08418332  1
  S  S103  1  0.36860854  0.13953003  0.41508734  1
  S  S104  1  0.35907609  0.14067236  0.74922336  1
  S  S105  1  0.35827757  0.64021549  0.08359501  1
  S  S106  1  0.35810181  0.63641609  0.42003746  1
  S  S107  1  0.35363564  0.63671711  0.74751759  1
  S  S108  1  0.86339088  0.14081173  0.08441980  1
  S  S109  1  0.85941019  0.14016039  0.41765641  1
  S  S110  1  0.85965029  0.13991932  0.75032708  1
  S  S111  1  0.85650193  0.64045165  0.08231819  1
  S  S112  1  0.86332450  0.64274458  0.41137351  1
  S  S113  1  0.85648248  0.63931594  0.75362606  1
  S  S114  1  0.13823304  0.35753555  0.24999820  1
  S  S115  1  0.14294220  0.35484060  0.58493555  1
  S  S116  1  0.13871072  0.35893925  0.91519715  1
  S  S117  1  0.14129306  0.86019844  0.24577115  1
  S  S118  1  0.14136795  0.85966227  0.58603296  1
  S  S119  1  0.14421382  0.86017359  0.91735374  1
  S  S120  1  0.64316771  0.34677789  0.24169885  1
  S  S121  1  0.63853558  0.36380023  0.58358011  1
  S  S122  1  0.63834727  0.35925148  0.91697901  1
  S  S123  1  0.63872952  0.86391016  0.25092752  1
  S  S124  1  0.64343022  0.86071240  0.58468432  1
  S  S125  1  0.64390822  0.86234804  0.91802087  1
  S  S126  1  0.06743692  0.16697485  0.04267640  1
  S  S127  1  0.05868843  0.16589178  0.37716625  1
  S  S128  1  0.06459423  0.16601638  0.71136170  1
  S  S129  1  0.06751285  0.66979244  0.03627377  1
  S  S130  1  0.07282556  0.66960294  0.37630325  1
  S  S131  1  0.07091966  0.67026147  0.70762547  1
  S  S132  1  0.56434858  0.16175985  0.03818269  1
  S  S133  1  0.57231280  0.17006883  0.37538229  1
  S  S134  1  0.56753306  0.17303984  0.71028943  1
  S  S135  1  0.56167476  0.67455583  0.04300413  1
  S  S136  1  0.56776064  0.67807776  0.38272513  1
  S  S137  1  0.56442245  0.66871679  0.70396030  1
  S  S138  1  0.33118802  0.43419386  0.12101140  1
  S  S139  1  0.32731116  0.42640015  0.45560736  1
  S  S140  1  0.32673864  0.42999935  0.78685832  1
  S  S141  1  0.33115869  0.93821923  0.12572387  1
  S  S142  1  0.32444172  0.92608054  0.45690476  1
  S  S143  1  0.32899825  0.93044667  0.79120494  1
  S  S144  1  0.83215648  0.44103300  0.12248338  1
  S  S145  1  0.83435883  0.42765636  0.46402074  1
  S  S146  1  0.82959371  0.43112237  0.79264836  1
  S  S147  1  0.83420293  0.93619922  0.12457877  1
  S  S148  1  0.83218351  0.93305565  0.45756827  1
  S  S149  1  0.83045317  0.94157943  0.78994595  1
  S  S150  1  0.44378248  0.33282895  0.28965441  1
  S  S151  1  0.43409236  0.32802334  0.62425755  1
  S  S152  1  0.43001670  0.32567684  0.95489579  1
  S  S153  1  0.42944168  0.83269913  0.28957864  1
  S  S154  1  0.43111206  0.82352164  0.62875659  1
  S  S155  1  0.43250696  0.83671049  0.96060051  1
  S  S156  1  0.93531230  0.33240598  0.29045179  1
  S  S157  1  0.93161734  0.32575461  0.62375129  1
  S  S158  1  0.93473209  0.33315790  0.95839482  1
  S  S159  1  0.93203799  0.83627897  0.29156607  1
  S  S160  1  0.93738171  0.83438522  0.62349199  1
  S  S161  1  0.93317159  0.83059102  0.95944243  1
  S  S162  1  0.16962577  0.07104082  0.20913646  1
  S  S163  1  0.16182011  0.06008086  0.54392821  1
  S  S164  1  0.16774319  0.06748534  0.87655561  1
  S  S165  1  0.16527317  0.56582533  0.20989015  1
  S  S166  1  0.16790276  0.56274343  0.53711551  1
  S  S167  1  0.17360904  0.56945958  0.87475457  1
  S  S168  1  0.67262176  0.06644269  0.20994693  1
  S  S169  1  0.67236043  0.06684014  0.54279819  1
  S  S170  1  0.67297410  0.07004736  0.87573912  1
  S  S171  1  0.65594420  0.56494347  0.20516185  1
  S  S172  1  0.67238179  0.57640639  0.54499622  1
  S  S173  1  0.66993739  0.56701310  0.87812009  1
  O  O174  1  0.36914688  0.22119253  0.07893888  1
  O  O175  1  0.38087301  0.21571134  0.40015326  1
  O  O176  1  0.36488639  0.22172759  0.74436416  1
  O  O177  1  0.36713059  0.71809695  0.07288057  1
  O  O178  1  0.35412317  0.71674011  0.41788418  1
  O  O179  1  0.36477537  0.71824315  0.74510327  1
  O  O180  1  0.87373067  0.22014249  0.07849613  1
  O  O181  1  0.86745558  0.21848934  0.40873835  1
  O  O182  1  0.87169283  0.21713545  0.74089411  1
  O  O183  1  0.86802255  0.71896982  0.07259952  1
  O  O184  1  0.87809668  0.72327022  0.40451001  1
  O  O185  1  0.86346444  0.71690434  0.74695047  1
  O  O186  1  0.28060070  0.13266852  0.09273413  1
  O  O187  1  0.29287030  0.13543448  0.42612606  1
  O  O188  1  0.28234629  0.13044820  0.76311971  1
  O  O189  1  0.27679810  0.63086295  0.08647146  1
  O  O190  1  0.28451161  0.61673445  0.43778082  1
  O  O191  1  0.27150473  0.62827434  0.74936532  1
  O  O192  1  0.78479213  0.13223949  0.09355163  1
  O  O193  1  0.78107090  0.13067266  0.42752785  1
  O  O194  1  0.78018873  0.13246636  0.75661449  1
  O  O195  1  0.77383975  0.63217729  0.08138219  1
  O  O196  1  0.78403476  0.63738530  0.41481057  1
  O  O197  1  0.78045262  0.62665030  0.76834577  1
  O  O198  1  0.12864464  0.28165480  0.26582597  1
  O  O199  1  0.13100308  0.27668412  0.59483671  1
  O  O200  1  0.13022743  0.27948308  0.92302574  1
  O  O201  1  0.13991604  0.78138990  0.25146540  1
  O  O202  1  0.13049350  0.78209637  0.59586805  1
  O  O203  1  0.13408382  0.77985251  0.92231233  1
  O  O204  1  0.63445847  0.26277588  0.24135765  1
  O  O205  1  0.63040544  0.28307227  0.58704680  1
  O  O206  1  0.62724308  0.28031591  0.92422369  1
  O  O207  1  0.63014515  0.78763840  0.26392980  1
  O  O208  1  0.62819594  0.77972066  0.58916222  1
  O  O209  1  0.63941679  0.78555889  0.92685439  1
  O  O210  1  0.21188515  0.36410538  0.23576535  1
  O  O211  1  0.22480756  0.36273507  0.58414098  1
  O  O212  1  0.21698152  0.36631708  0.90467414  1
  O  O213  1  0.21647320  0.87608189  0.23038210  1
  O  O214  1  0.22104062  0.86734226  0.58009438  1
  O  O215  1  0.22544449  0.86911713  0.91314091  1
  O  O216  1  0.71836934  0.35931434  0.23133583  1
  O  O217  1  0.71628814  0.37517200  0.57365250  1
  O  O218  1  0.71697632  0.36736078  0.90775227  1
  O  O219  1  0.71666851  0.87400468  0.24266171  1
  O  O220  1  0.72711142  0.86414260  0.58475823  1
  O  O221  1  0.71999495  0.87591947  0.90419889  1
  O  O222  1  0.41860004  0.12812596  0.14982156  1
  O  O223  1  0.43085422  0.13346305  0.48271556  1
  O  O224  1  0.42081997  0.13134495  0.81489122  1
  O  O225  1  0.41400019  0.63517330  0.15391229  1
  O  O226  1  0.42444744  0.63294760  0.48906786  1
  O  O227  1  0.40907413  0.62403990  0.81308110  1
  O  O228  1  0.92249860  0.12871601  0.15069640  1
  O  O229  1  0.91902778  0.13153418  0.48538744  1
  O  O230  1  0.91762580  0.13231629  0.81998577  1
  O  O231  1  0.91121704  0.63253639  0.15070787  1
  O  O232  1  0.91999979  0.63634600  0.48363972  1
  O  O233  1  0.91921352  0.62912238  0.81932056  1
  O  O234  1  0.36547023  0.08398295  0.01389459  1
  O  O235  1  0.37517413  0.07741161  0.34723444  1
  O  O236  1  0.36143341  0.08445659  0.67816128  1
  O  O237  1  0.36998171  0.57920426  0.01801160  1
  O  O238  1  0.36601288  0.58072410  0.35339880  1
  O  O239  1  0.36202448  0.58056204  0.67726139  1
  O  O240  1  0.87078945  0.08227004  0.01559148  1
  O  O241  1  0.86608806  0.08053164  0.34933004  1
  O  O242  1  0.87047389  0.07839424  0.68448181  1
  O  O243  1  0.86927889  0.58106067  0.01511075  1
  O  O244  1  0.87786774  0.58429726  0.34801356  1
  O  O245  1  0.85995668  0.57934174  0.68378656  1
  O  O246  1  0.07425988  0.36166136  0.18222166  1
  O  O247  1  0.08879908  0.36046126  0.51402064  1
  O  O248  1  0.07892480  0.36768834  0.84790778  1
  O  O249  1  0.07773095  0.86672308  0.17755658  1
  O  O250  1  0.08304840  0.86849520  0.51769315  1
  O  O251  1  0.08765941  0.87246748  0.85207739  1
  O  O252  1  0.57998622  0.35703406  0.17515196  1
  O  O253  1  0.57779644  0.37578416  0.51788614  1
  O  O254  1  0.57940042  0.36746616  0.84870357  1
  O  O255  1  0.57863725  0.86978608  0.18229297  1
  O  O256  1  0.59252816  0.87321999  0.51730981  1
  O  O257  1  0.58055437  0.87074864  0.85187139  1
  O  O258  1  0.13149144  0.42029897  0.31714090  1
  O  O259  1  0.13124834  0.41477361  0.65053540  1
  O  O260  1  0.13277691  0.41752187  0.98394719  1
  O  O261  1  0.13254325  0.91925092  0.31182526  1
  O  O262  1  0.13164034  0.92035048  0.65305757  1
  O  O263  1  0.13678141  0.91719249  0.98780362  1
  O  O264  1  0.63455860  0.39758398  0.31161592  1
  O  O265  1  0.63241573  0.41985228  0.65371193  1
  O  O266  1  0.63154951  0.41842184  0.98524218  1
  O  O267  1  0.62839251  0.92590129  0.31718672  1
  O  O268  1  0.63532553  0.91730621  0.65388083  1
  O  O269  1  0.63803367  0.92400678  0.98649450  1
  O  O270  1  0.03438951  0.19547386  0.10541389  1
  O  O271  1  0.02509389  0.20389286  0.43993201  1
  O  O272  1  0.03085358  0.19746738  0.77394052  1
  O  O273  1  0.02896564  0.69524841  0.09409564  1
  O  O274  1  0.04509981  0.70236566  0.44457891  1
  O  O275  1  0.03398397  0.69459165  0.76692151  1
  O  O276  1  0.52435790  0.18722066  0.09615453  1
  O  O277  1  0.54087318  0.20395447  0.43884849  1
  O  O278  1  0.52665687  0.20157681  0.76886706  1
  O  O279  1  0.52939578  0.70567872  0.10925702  1
  O  O280  1  0.52762798  0.70995116  0.44086616  1
  O  O281  1  0.52504203  0.69408650  0.76147972  1
  O  O282  1  0.29497611  0.46539154  0.05471502  1
  O  O283  1  0.29311633  0.45975944  0.39506182  1
  O  O284  1  0.29788302  0.47037386  0.72890782  1
  O  O285  1  0.30139646  0.97410294  0.06358383  1
  O  O286  1  0.30481033  0.96409799  0.39770157  1
  O  O287  1  0.30193344  0.96767590  0.73035476  1
  O  O288  1  0.79596276  0.46985661  0.05592830  1
  O  O289  1  0.81532713  0.45798554  0.40144625  1
  O  O290  1  0.79674596  0.46325244  0.72939440  1
  O  O291  1  0.80465893  0.97324477  0.06323720  1
  O  O292  1  0.79986797  0.96811406  0.39560482  1
  O  O293  1  0.79238739  0.97694387  0.72910073  1
  O  O294  1  0.47579825  0.28891393  0.22625203  1
  O  O295  1  0.47008708  0.30068234  0.56259093  1
  O  O296  1  0.46475279  0.29700519  0.89278827  1
  O  O297  1  0.46434328  0.79977531  0.22620418  1
  O  O298  1  0.47154667  0.79560209  0.57144956  1
  O  O299  1  0.46707907  0.81081353  0.90011029  1
  O  O300  1  0.96901798  0.29332849  0.22822663  1
  O  O301  1  0.97227255  0.29686809  0.56531829  1
  O  O302  1  0.97146954  0.30181873  0.89692420  1
  O  O303  1  0.96553207  0.81077202  0.23011464  1
  O  O304  1  0.96869517  0.80245693  0.55871669  1
  O  O305  1  0.97200151  0.80584963  0.90132976  1
  O  O306  1  0.20170569  0.03825947  0.27011487  1
  O  O307  1  0.19759145  0.03010468  0.60973354  1
  O  O308  1  0.19757976  0.03104588  0.93770839  1
  O  O309  1  0.19889028  0.53297226  0.27213735  1
  O  O310  1  0.19621457  0.52131715  0.59504461  1
  O  O311  1  0.20033979  0.53074154  0.93490573  1
  O  O312  1  0.70268499  0.03110368  0.27148403  1
  O  O313  1  0.70444952  0.03077231  0.60433758  1
  O  O314  1  0.70578675  0.03728570  0.93968126  1
  O  O315  1  0.66582295  0.52470888  0.25991031  1
  O  O316  1  0.69418611  0.54289299  0.60953688  1
  O  O317  1  0.70272301  0.52652207  0.93635529  1
  O  O318  1  0.08093326  0.08259171  0.03223562  1
  O  O319  1  0.06580358  0.08403906  0.37387303  1
  O  O320  1  0.08068483  0.08316108  0.70666326  1
  O  O321  1  0.08471544  0.58628125  0.02797660  1
  O  O322  1  0.09797713  0.58986407  0.37428714  1
  O  O323  1  0.09009821  0.58883350  0.69683788  1
  O  O324  1  0.58186125  0.07822073  0.03157113  1
  O  O325  1  0.59093178  0.08887528  0.37316402  1
  O  O326  1  0.59017643  0.09441790  0.71035018  1
  O  O327  1  0.58312056  0.59394813  0.04065062  1
  O  O328  1  0.58649350  0.60004660  0.38095574  1
  O  O329  1  0.57898543  0.58477389  0.69527219  1
  O  O330  1  0.40954139  0.41137231  0.11631980  1
  O  O331  1  0.40851831  0.40831105  0.45710768  1
  O  O332  1  0.40687720  0.41060960  0.78943065  1
  O  O333  1  0.41472286  0.92369150  0.13324289  1
  O  O334  1  0.40225462  0.90140789  0.47054211  1
  O  O335  1  0.40941174  0.90942093  0.79929803  1
  O  O336  1  0.91408285  0.42233871  0.12267924  1
  O  O337  1  0.91820332  0.40802482  0.47900904  1
  O  O338  1  0.91105466  0.41264433  0.79547190  1
  O  O339  1  0.91712436  0.92178116  0.13153401  1
  O  O340  1  0.91495200  0.91837732  0.46254986  1
  O  O341  1  0.91115567  0.93147233  0.78996927  1
  O  O342  1  0.43950247  0.41263905  0.28887005  1
  O  O343  1  0.41316758  0.40909439  0.63110652  1
  O  O344  1  0.41084401  0.40711863  0.96145894  1
  O  O345  1  0.39980305  0.90774905  0.28125691  1
  O  O346  1  0.40934431  0.90264273  0.63129548  1
  O  O347  1  0.41434982  0.92025776  0.96963454  1
  O  O348  1  0.92522158  0.41274285  0.29082970  1
  O  O349  1  0.91231711  0.40574413  0.62993625  1
  O  O350  1  0.91877925  0.41521265  0.96318423  1
  O  O351  1  0.91680268  0.92130770  0.30213620  1
  O  O352  1  0.91530883  0.91594283  0.62311792  1
  O  O353  1  0.91669587  0.91486317  0.96666519  1
  O  O354  1  0.08577879  0.08539327  0.20448903  1
  O  O355  1  0.08135342  0.08238469  0.54743827  1
  O  O356  1  0.08543500  0.08404995  0.87020591  1
  O  O357  1  0.08320743  0.57693364  0.20193217  1
  O  O358  1  0.08576177  0.57851298  0.52907952  1
  O  O359  1  0.09475955  0.59339162  0.87189354  1
  O  O360  1  0.59004677  0.08275550  0.20444467  1
  O  O361  1  0.59168635  0.08521287  0.54073428  1
  O  O362  1  0.59159500  0.08661892  0.87382228  1
  O  O363  1  0.57347790  0.58956488  0.18741450  1
  O  O364  1  0.59360227  0.60709626  0.54132013  1
  O  O365  1  0.59064686  0.58274822  0.87481574  1
  O  O366  1  0.14033572  0.21596550  0.05718517  1
  O  O367  1  0.13210881  0.21181033  0.39053065  1
  O  O368  1  0.13625064  0.21574121  0.72513108  1
  O  O369  1  0.14045961  0.72156956  0.05535818  1
  O  O370  1  0.14071784  0.72361081  0.38691478  1
  O  O371  1  0.14224506  0.72468652  0.72681229  1
  O  O372  1  0.63559968  0.21320009  0.05619018  1
  O  O373  1  0.64190896  0.22031964  0.38465910  1
  O  O374  1  0.63623339  0.22881706  0.72843845  1
  O  O375  1  0.63181115  0.72747481  0.05878465  1
  O  O376  1  0.63871876  0.73275482  0.40064831  1
  O  O377  1  0.63800074  0.71954908  0.72423813  1
  O  O378  1  0.27892657  0.36292387  0.10732527  1
  O  O379  1  0.27796323  0.35649296  0.44742007  1
  O  O380  1  0.27224375  0.35893803  0.76765046  1
  O  O381  1  0.28157752  0.86463957  0.10666551  1
  O  O382  1  0.26441876  0.85893333  0.43711283  1
  O  O383  1  0.27358776  0.86131537  0.77456278  1
  O  O384  1  0.78421878  0.36953084  0.11173233  1
  O  O385  1  0.78139222  0.35660506  0.44986710  1
  O  O386  1  0.77953980  0.36251255  0.78457997  1
  O  O387  1  0.78314550  0.86480598  0.10748961  1
  O  O388  1  0.78242849  0.86126690  0.44335445  1
  O  O389  1  0.78331385  0.86816798  0.77653477  1
  O  O390  1  0.36836529  0.28794720  0.27543604  1
  O  O391  1  0.36645757  0.27258369  0.60954613  1
  O  O392  1  0.35800657  0.27292762  0.93768166  1
  O  O393  1  0.36393594  0.77592449  0.27918149  1
  O  O394  1  0.36037927  0.76860137  0.61044210  1
  O  O395  1  0.36163669  0.78484771  0.94605099  1
  O  O396  1  0.86185331  0.28327339  0.27516565  1
  O  O397  1  0.86164582  0.27106465  0.60446011  1
  O  O398  1  0.86295679  0.28199504  0.94080279  1
  O  O399  1  0.86120483  0.78758319  0.27967059  1
  O  O400  1  0.86738855  0.78270713  0.61152757  1
  O  O401  1  0.86018182  0.78054461  0.94104757  1
  O  O402  1  0.21672430  0.14432165  0.22114103  1
  O  O403  1  0.21196857  0.12922676  0.55293476  1
  O  O404  1  0.21938946  0.13887949  0.89282060  1
  O  O405  1  0.21561698  0.63793243  0.22346848  1
  O  O406  1  0.21974724  0.63585741  0.55980453  1
  O  O407  1  0.23051067  0.63822087  0.89260141  1
  O  O408  1  0.72460552  0.13660684  0.22454677  1
  O  O409  1  0.72350453  0.13614235  0.55441316  1
  O  O410  1  0.72241521  0.14040264  0.88677859  1
  O  O411  1  0.71340783  0.63409091  0.22782363  1
  O  O412  1  0.73161189  0.64332731  0.56288938  1
  O  O413  1  0.72386459  0.63878463  0.89769260  1
  O  O414  1  0.48943492  0.32523915  0.02584046  1
  O  O415  1  0.50072433  0.32902347  0.36176344  1
  O  O416  1  0.49558534  0.33202596  0.69674135  1
  O  O417  1  0.49215347  0.84040706  0.03404889  1
  O  O418  1  0.49239713  0.85033436  0.36135739  1
  O  O419  1  0.48808539  0.82761394  0.70339282  1
  O  O420  1  0.99364208  0.33294501  0.03006312  1
  O  O421  1  0.99239253  0.33309246  0.36405568  1
  O  O422  1  0.99016896  0.32595841  0.69664126  1
  O  O423  1  0.98957254  0.83235358  0.03338722  1
  O  O424  1  0.99452096  0.83893274  0.36385675  1
  O  O425  1  0.99888627  0.84524600  0.69461055  1
  O  O426  1  0.16419264  0.01142381  0.13483944  1
  O  O427  1  0.14819432  -0.00341369  0.47360244  1
  O  O428  1  0.16658249  0.00801494  0.80437445  1
  O  O429  1  0.16791722  0.50697516  0.13717872  1
  O  O430  1  0.17164969  0.50668720  0.46504106  1
  O  O431  1  0.16949419  0.51005198  0.80196533  1
  O  O432  1  0.66870678  0.00654576  0.13687692  1
  O  O433  1  0.66640430  0.00452250  0.47014481  1
  O  O434  1  0.66850550  0.00745396  0.80461264  1
  O  O435  1  0.65860070  0.50871776  0.13092665  1
  O  O436  1  0.66538104  0.51416015  0.47610706  1
  O  O437  1  0.67064092  0.51067954  0.80401790  1
  O  O438  1  0.00040186  0.16702796  0.30431003  1
  O  O439  1  0.00423947  0.16359786  0.63960072  1
  O  O440  1  0.00729023  0.16921831  0.97186302  1
  O  O441  1  0.00630950  0.66180431  0.30935975  1
  O  O442  1  0.01274399  0.67302437  0.63584347  1
  O  O443  1  0.01130239  0.66807496  0.96169795  1
  O  O444  1  0.50911387  0.16159294  0.30271711  1
  O  O445  1  0.50944412  0.16724392  0.63640727  1
  O  O446  1  0.50651458  0.15852742  0.96393769  1
  O  O447  1  0.51101964  0.67844038  0.30885416  1
  O  O448  1  0.50955694  0.66872228  0.62914824  1
  O  O449  1  0.49960513  0.67139528  0.97491171  1
  O  O450  1  0.33794562  0.49575678  0.18980895  1
  O  O451  1  0.33684017  0.48788210  0.53060472  1
  O  O452  1  0.32971359  0.48617722  0.86136262  1
  O  O453  1  0.32950438  0.99703272  0.19642299  1
  O  O454  1  0.31977053  0.98729749  0.52767141  1
  O  O455  1  0.32983617  0.99173494  0.86283441  1
  O  O456  1  0.83982811  0.50471308  0.19142138  1
  O  O457  1  0.83217122  0.48876648  0.53472865  1
  O  O458  1  0.83803573  0.49489794  0.86528003  1
  O  O459  1  0.83346599  0.99545964  0.19644860  1
  O  O460  1  0.83376570  0.99337758  0.52957389  1
  O  O461  1  0.83349723  0.99892695  0.86450650  1
