# generated using pymatgen
data_Na31Fe20(SO4)36
_symmetry_space_group_name_H-M   'P 1'
_cell_length_a   18.07552741
_cell_length_b   18.08488749
_cell_length_c   19.71985804
_cell_angle_alpha   107.59975724
_cell_angle_beta   107.57004579
_cell_angle_gamma   90.74973795
_symmetry_Int_Tables_number   1
_chemical_formula_structural   Na31Fe20(SO4)36
_chemical_formula_sum   'Na62 Fe40 S72 O288'
_cell_volume   5819.15180406
_cell_formula_units_Z   2
loop_
 _symmetry_equiv_pos_site_id
 _symmetry_equiv_pos_as_xyz
  1  'x, y, z'
loop_
 _atom_site_type_symbol
 _atom_site_label
 _atom_site_symmetry_multiplicity
 _atom_site_fract_x
 _atom_site_fract_y
 _atom_site_fract_z
 _atom_site_occupancy
  Na  Na0  1  0.13365617  0.37550636  0.08552955  1
  Na  Na1  1  0.15058385  0.35193300  0.41572331  1
  Na  Na2  1  0.13476120  0.36527036  0.75220161  1
  Na  Na3  1  0.13865440  0.86600042  0.09242666  1
  Na  Na4  1  0.12017318  0.86607570  0.40706947  1
  Na  Na5  1  0.11650998  0.87762517  0.75402948  1
  Na  Na6  1  0.64094941  0.36608259  0.08910298  1
  Na  Na7  1  0.63552622  0.36882759  0.42214612  1
  Na  Na8  1  0.63771088  0.36556484  0.75042028  1
  Na  Na9  1  0.62909577  0.86421224  0.08228518  1
  Na  Na10  1  0.62993529  0.86206310  0.40921017  1
  Na  Na11  1  0.63492510  0.86731700  0.75132622  1
  Na  Na12  1  0.36154811  0.12800320  0.24261014  1
  Na  Na13  1  0.35402968  0.13797906  0.57243618  1
  Na  Na14  1  0.36919515  0.13765094  0.92237050  1
  Na  Na15  1  0.35852297  0.62747603  0.24029995  1
  Na  Na16  1  0.36778399  0.63795491  0.58774147  1
  Na  Na17  1  0.36898724  0.63936068  0.93140098  1
  Na  Na18  1  0.85190925  0.13444998  0.23649265  1
  Na  Na19  1  0.86450336  0.13396843  0.58105484  1
  Na  Na20  1  0.88394879  0.12911518  0.91880389  1
  Na  Na21  1  0.88008001  0.62772907  0.24871187  1
  Na  Na22  1  0.86477795  0.63116125  0.58717964  1
  Na  Na23  1  0.86318697  0.64110557  0.91665080  1
  Na  Na24  1  0.94880431  0.50840550  0.74000784  1
  Na  Na25  1  0.49103308  0.51358535  0.74752339  1
  Na  Na26  1  1.00228841  0.53759275  0.11096533  1
  Na  Na27  1  0.48853459  0.00885755  0.76033039  1
  Na  Na28  1  1.05293366  -0.01019160  0.00436490  1
  Na  Na29  1  0.95121653  0.01316395  0.30205616  1
  Na  Na30  1  0.48074066  0.51868007  0.08206013  1
  Na  Na31  1  0.49392161  0.01513349  0.39909164  1
  Na  Na32  1  0.48332612  0.51205170  0.41388197  1
  Na  Na33  1  0.50998712  0.99645533  0.58140580  1
  Na  Na34  1  0.52090756  0.48923810  0.58302617  1
  Na  Na35  1  0.06206112  0.49483341  0.93939129  1
  Na  Na36  1  0.00345106  0.98946324  0.58702182  1
  Na  Na37  1  0.51415154  0.48963626  0.24989623  1
  Na  Na38  1  0.51239741  0.49037324  0.91488529  1
  Na  Na39  1  0.00300777  0.48944017  0.57000583  1
  Na  Na40  1  0.52389724  0.96729712  0.20798148  1
  Na  Na41  1  0.49804796  0.98923006  0.95427311  1
  Na  Na42  1  0.76909169  0.76382408  0.66638837  1
  Na  Na43  1  0.23915371  0.74559083  0.67644985  1
  Na  Na44  1  0.75899230  0.25983927  0.32228081  1
  Na  Na45  1  0.76115843  0.76122099  0.32101459  1
  Na  Na46  1  0.75112834  0.24642239  0.00565527  1
  Na  Na47  1  0.23296419  0.73909376  0.33941689  1
  Na  Na48  1  0.76144712  0.26381152  0.65646049  1
  Na  Na49  1  0.22076481  0.22397859  0.00453175  1
  Na  Na50  1  0.24934255  0.25230624  0.66225155  1
  Na  Na51  1  0.24744779  0.74514889  0.01008722  1
  Na  Na52  1  0.75515319  0.75852740  0.49362621  1
  Na  Na53  1  0.75815453  0.25509002  0.83499501  1
  Na  Na54  1  0.23285960  0.73104905  0.17288519  1
  Na  Na55  1  0.23501271  0.23464803  0.84103024  1
  Na  Na56  1  0.24147100  0.74386726  0.50590304  1
  Na  Na57  1  0.76065195  0.76833527  0.15660876  1
  Na  Na58  1  0.75605525  0.75424893  0.83661320  1
  Na  Na59  1  0.23413520  0.23049978  0.17535394  1
  Na  Na60  1  0.76290579  0.26594929  0.49187774  1
  Na  Na61  1  0.24053133  0.74100392  0.84045797  1
  Fe  Fe62  1  0.46957139  0.30474846  0.11489229  1
  Fe  Fe63  1  0.96247097  0.80556676  0.45013794  1
  Fe  Fe64  1  0.96744177  0.31430595  0.12529826  1
  Fe  Fe65  1  0.46338040  0.80729321  0.45081985  1
  Fe  Fe66  1  0.97055949  0.30117160  0.79130580  1
  Fe  Fe67  1  0.46032819  0.30344132  0.44664280  1
  Fe  Fe68  1  0.46477023  0.80880885  0.78798047  1
  Fe  Fe69  1  0.96588172  0.80535754  0.12771411  1
  Fe  Fe70  1  0.46451216  0.30873300  0.78365357  1
  Fe  Fe71  1  0.96490086  0.30628429  0.45049615  1
  Fe  Fe72  1  0.70073514  0.03455612  0.04993378  1
  Fe  Fe73  1  0.18532029  0.03947988  0.37645791  1
  Fe  Fe74  1  0.69804542  0.02926522  0.37588126  1
  Fe  Fe75  1  0.69450733  0.53850944  0.05240198  1
  Fe  Fe76  1  0.69365853  0.03996870  0.71612846  1
  Fe  Fe77  1  0.70084753  0.52938125  0.71470540  1
  Fe  Fe78  1  0.19457846  0.53076991  0.71034941  1
  Fe  Fe79  1  0.69280384  0.53465783  0.38340409  1
  Fe  Fe80  1  0.18706187  0.53474929  0.37540899  1
  Fe  Fe81  1  0.19219505  0.03563899  0.71627497  1
  Fe  Fe82  1  0.53543271  0.69662246  0.55094048  1
  Fe  Fe83  1  0.03420117  0.18680831  0.54126100  1
  Fe  Fe84  1  0.03206474  0.69684220  0.87639724  1
  Fe  Fe85  1  0.03620077  0.19092417  0.21460796  1
  Fe  Fe86  1  0.53676261  0.18954135  0.21013166  1
  Fe  Fe87  1  0.53219016  0.19194003  0.54609014  1
  Fe  Fe88  1  0.53629690  0.19665864  0.88366332  1
  Fe  Fe89  1  0.03202020  0.68941940  0.54405803  1
  Fe  Fe90  1  0.53572608  0.69717737  0.88755242  1
  Fe  Fe91  1  0.52568780  0.69974708  0.21225802  1
  Fe  Fe92  1  0.30767496  0.46009091  0.28110927  1
  Fe  Fe93  1  0.30320911  0.96508998  0.96282223  1
  Fe  Fe94  1  0.29697240  0.46758507  0.95300146  1
  Fe  Fe95  1  0.80941491  0.47210987  0.95752995  1
  Fe  Fe96  1  0.30423045  0.96582820  0.61755763  1
  Fe  Fe97  1  0.30178616  0.96446358  0.27992292  1
  Fe  Fe98  1  0.30809635  0.46273904  0.61184483  1
  Fe  Fe99  1  0.81718989  0.96538930  0.63172961  1
  Fe  Fe100  1  0.81938274  0.96228378  0.95801540  1
  Fe  Fe101  1  0.81260508  0.46284495  0.28890467  1
  S  S102  1  0.36456166  0.14138406  0.07856808  1
  S  S103  1  0.36059912  0.13659847  0.41578995  1
  S  S104  1  0.36044803  0.14007535  0.74936643  1
  S  S105  1  0.35658780  0.63663406  0.08371183  1
  S  S106  1  0.36094769  0.64096537  0.41878689  1
  S  S107  1  0.36229107  0.63893528  0.74913252  1
  S  S108  1  0.86154508  0.14187044  0.08310246  1
  S  S109  1  0.85617540  0.14440859  0.41549643  1
  S  S110  1  0.85530063  0.14567399  0.74739472  1
  S  S111  1  0.85525225  0.64377355  0.08419356  1
  S  S112  1  0.85484159  0.63992224  0.41583103  1
  S  S113  1  0.85492119  0.64376699  0.75353913  1
  S  S114  1  0.14379482  0.35941495  0.25423604  1
  S  S115  1  0.14254568  0.35730873  0.57867086  1
  S  S116  1  0.14607564  0.35274152  0.91266374  1
  S  S117  1  0.13981434  0.86005255  0.25112013  1
  S  S118  1  0.13944275  0.85994268  0.58448917  1
  S  S119  1  0.14601583  0.85227433  0.91838725  1
  S  S120  1  0.63970550  0.36137911  0.25185223  1
  S  S121  1  0.63525771  0.35714323  0.58261919  1
  S  S122  1  0.64122238  0.36367215  0.91681372  1
  S  S123  1  0.64056235  0.85368606  0.25346777  1
  S  S124  1  0.63894059  0.86325454  0.58601552  1
  S  S125  1  0.63868708  0.86362923  0.91662635  1
  S  S126  1  0.06849848  0.18361956  0.05402206  1
  S  S127  1  0.06311687  0.16930152  0.37555764  1
  S  S128  1  0.06605608  0.16876335  0.70329620  1
  S  S129  1  0.06004040  0.67186468  0.04277760  1
  S  S130  1  0.06808884  0.67381578  0.38181303  1
  S  S131  1  0.06678592  0.65945876  0.70298507  1
  S  S132  1  0.57469297  0.17253241  0.04070549  1
  S  S133  1  0.57007955  0.17086788  0.37514082  1
  S  S134  1  0.56407950  0.17099062  0.71011484  1
  S  S135  1  0.56746334  0.66429092  0.04248914  1
  S  S136  1  0.56348119  0.66885827  0.37713865  1
  S  S137  1  0.56780413  0.66964534  0.71222460  1
  S  S138  1  0.33952554  0.42484542  0.12369526  1
  S  S139  1  0.34155134  0.43695104  0.45973764  1
  S  S140  1  0.33318059  0.43505640  0.79003636  1
  S  S141  1  0.33077919  0.93143784  0.12201546  1
  S  S142  1  0.33118181  0.93188732  0.45879337  1
  S  S143  1  0.33195654  0.93313993  0.79447975  1
  S  S144  1  0.82801130  0.43450681  0.12404822  1
  S  S145  1  0.82854450  0.43569871  0.45728468  1
  S  S146  1  0.82959955  0.42824289  0.79213841  1
  S  S147  1  0.82890778  0.93265375  0.12543633  1
  S  S148  1  0.82696421  0.93271401  0.46258162  1
  S  S149  1  0.82614708  0.93263750  0.78890713  1
  S  S150  1  0.43518861  0.32876481  0.28848744  1
  S  S151  1  0.43247927  0.33136437  0.62565481  1
  S  S152  1  0.43592997  0.33349260  0.95406477  1
  S  S153  1  0.42614372  0.82885144  0.29204280  1
  S  S154  1  0.43268238  0.83428237  0.62545953  1
  S  S155  1  0.42936383  0.82712154  0.95623026  1
  S  S156  1  0.93235640  0.32771800  0.29176652  1
  S  S157  1  0.94177429  0.33098777  0.62347304  1
  S  S158  1  0.93251161  0.34313775  0.96518089  1
  S  S159  1  0.92576287  0.82442766  0.28725495  1
  S  S160  1  0.93406152  0.82476746  0.62111719  1
  S  S161  1  0.93808477  0.82948199  0.96371614  1
  S  S162  1  0.16871924  0.06504709  0.20991340  1
  S  S163  1  0.16974171  0.06471197  0.54301009  1
  S  S164  1  0.17741662  0.06422169  0.87945316  1
  S  S165  1  0.17468760  0.56398693  0.21644750  1
  S  S166  1  0.17601032  0.56883817  0.54426925  1
  S  S167  1  0.16879183  0.56590115  0.87043469  1
  S  S168  1  0.66593475  0.06709206  0.20744518  1
  S  S169  1  0.66550715  0.06677785  0.54026015  1
  S  S170  1  0.67018659  0.07061364  0.87574264  1
  S  S171  1  0.66203640  0.56733065  0.21033966  1
  S  S172  1  0.66270314  0.57011221  0.54357512  1
  S  S173  1  0.66595351  0.56771245  0.87413579  1
  O  O174  1  0.38475007  0.21267244  0.06025521  1
  O  O175  1  0.37044362  0.21488475  0.40817795  1
  O  O176  1  0.36976795  0.21824655  0.74011694  1
  O  O177  1  0.36774395  0.70956465  0.06890684  1
  O  O178  1  0.36830571  0.72039204  0.41148905  1
  O  O179  1  0.37111802  0.71539791  0.73577775  1
  O  O180  1  0.86966544  0.22066872  0.07485817  1
  O  O181  1  0.86246700  0.22940303  0.41911185  1
  O  O182  1  0.86718377  0.22315629  0.73528663  1
  O  O183  1  0.86689890  0.72719008  0.08616899  1
  O  O184  1  0.86209652  0.71988843  0.40948931  1
  O  O185  1  0.85801515  0.72420800  0.75287255  1
  O  O186  1  0.28575206  0.14329880  0.08347764  1
  O  O187  1  0.28456782  0.12500254  0.42700480  1
  O  O188  1  0.28179362  0.13159229  0.75766155  1
  O  O189  1  0.28240442  0.62642027  0.09698810  1
  O  O190  1  0.28192726  0.63058812  0.42585819  1
  O  O191  1  0.28219714  0.63077114  0.75449953  1
  O  O192  1  0.78278407  0.13132232  0.09178961  1
  O  O193  1  0.77696982  0.13124934  0.42298253  1
  O  O194  1  0.77130374  0.13943232  0.74689826  1
  O  O195  1  0.77573173  0.63567175  0.09253810  1
  O  O196  1  0.77666797  0.63096235  0.42698312  1
  O  O197  1  0.77881242  0.62653271  0.76730472  1
  O  O198  1  0.13282982  0.28050650  0.26047005  1
  O  O199  1  0.13385268  0.27669153  0.58190770  1
  O  O200  1  0.14391392  0.27185073  0.91215851  1
  O  O201  1  0.13626642  0.78418482  0.26235144  1
  O  O202  1  0.13108623  0.78030825  0.59102268  1
  O  O203  1  0.13982160  0.76714539  0.91483584  1
  O  O204  1  0.62939165  0.28325583  0.26055248  1
  O  O205  1  0.62216451  0.28063348  0.59568812  1
  O  O206  1  0.63307174  0.28358169  0.92238482  1
  O  O207  1  0.62012002  0.78068920  0.27043752  1
  O  O208  1  0.62877362  0.78617798  0.59815806  1
  O  O209  1  0.62678037  0.78672056  0.92672818  1
  O  O210  1  0.22138221  0.36568831  0.24164831  1
  O  O211  1  0.22004044  0.36999913  0.56908859  1
  O  O212  1  0.22033677  0.37010372  0.89576787  1
  O  O213  1  0.21432496  0.87144565  0.23413274  1
  O  O214  1  0.22003020  0.86945771  0.57889785  1
  O  O215  1  0.23080237  0.86516739  0.91825281  1
  O  O216  1  0.71880608  0.37149165  0.24632655  1
  O  O217  1  0.71118343  0.36131488  0.57176801  1
  O  O218  1  0.71921571  0.37447999  0.90809637  1
  O  O219  1  0.72202153  0.85304506  0.25543723  1
  O  O220  1  0.71990992  0.87144935  0.58293438  1
  O  O221  1  0.71721664  0.87222644  0.90847325  1
  O  O222  1  0.42100870  0.13793677  0.15009180  1
  O  O223  1  0.42271558  0.12817343  0.48357468  1
  O  O224  1  0.42032012  0.13189796  0.81727635  1
  O  O225  1  0.42116695  0.62801848  0.15062495  1
  O  O226  1  0.41988545  0.63497619  0.48856839  1
  O  O227  1  0.42007546  0.63403398  0.81913064  1
  O  O228  1  0.92058785  0.13367134  0.15027604  1
  O  O229  1  0.91494701  0.13274197  0.48190301  1
  O  O230  1  0.90801449  0.14213862  0.81727625  1
  O  O231  1  0.91372835  0.62463623  0.14381936  1
  O  O232  1  0.91502107  0.63045803  0.48189107  1
  O  O233  1  0.91813211  0.63266443  0.81899552  1
  O  O234  1  0.37287258  0.07355448  0.01482071  1
  O  O235  1  0.37100569  0.07705111  0.34870847  1
  O  O236  1  0.36864323  0.07956155  0.68191671  1
  O  O237  1  0.36529641  0.57136858  0.01686488  1
  O  O238  1  0.37385113  0.58248809  0.35295867  1
  O  O239  1  0.37377702  0.57674154  0.68416603  1
  O  O240  1  0.86686582  0.08268222  0.01371871  1
  O  O241  1  0.86390111  0.09502548  0.34507341  1
  O  O242  1  0.86342660  0.08446059  0.68016413  1
  O  O243  1  0.85565482  0.59206585  0.00921665  1
  O  O244  1  0.85844644  0.58286638  0.34530783  1
  O  O245  1  0.85997789  0.58719025  0.68420572  1
  O  O246  1  0.08314091  0.37430239  0.19141627  1
  O  O247  1  0.08082603  0.37071803  0.51488723  1
  O  O248  1  0.08135054  0.36524974  0.84884194  1
  O  O249  1  0.07533043  0.86567628  0.18446805  1
  O  O250  1  0.08166316  0.87005216  0.51712050  1
  O  O251  1  0.09256214  0.86468048  0.85324001  1
  O  O252  1  0.58154090  0.36972526  0.18299181  1
  O  O253  1  0.57276252  0.36547817  0.51596016  1
  O  O254  1  0.58053467  0.37267397  0.84957559  1
  O  O255  1  0.58819413  0.85753238  0.18202029  1
  O  O256  1  0.58251380  0.86645638  0.51439418  1
  O  O257  1  0.57958689  0.86987887  0.84696178  1
  O  O258  1  0.14406526  0.41686543  0.32694571  1
  O  O259  1  0.13821137  0.41303232  0.65048597  1
  O  O260  1  0.14290658  0.40797734  0.98313708  1
  O  O261  1  0.13567432  0.92250191  0.31927292  1
  O  O262  1  0.13092245  0.91832209  0.65262401  1
  O  O263  1  0.13809595  0.90134853  0.98965135  1
  O  O264  1  0.62763201  0.42109165  0.31847934  1
  O  O265  1  0.62886952  0.41956659  0.65038401  1
  O  O266  1  0.63251546  0.42127069  0.98535039  1
  O  O267  1  0.62886682  0.92010336  0.31675216  1
  O  O268  1  0.62489603  0.92520134  0.64934723  1
  O  O269  1  0.62865192  0.92581804  0.98236168  1
  O  O270  1  0.02951551  0.21649128  0.11515640  1
  O  O271  1  0.02508174  0.20127543  0.43629695  1
  O  O272  1  0.02927564  0.19792532  0.76161597  1
  O  O273  1  0.02000300  0.70909913  0.09909249  1
  O  O274  1  0.03044331  0.70555403  0.44396634  1
  O  O275  1  0.02996509  0.67921551  0.76173677  1
  O  O276  1  0.54422510  0.20506437  0.10545866  1
  O  O277  1  0.53178304  0.19962217  0.43548954  1
  O  O278  1  0.52811686  0.20228764  0.77135778  1
  O  O279  1  0.53289072  0.68382365  0.10298040  1
  O  O280  1  0.52852096  0.70049685  0.43952099  1
  O  O281  1  0.53193136  0.69979381  0.77355308  1
  O  O282  1  0.31324339  0.45538734  0.06068734  1
  O  O283  1  0.31239398  0.47099432  0.39771283  1
  O  O284  1  0.30323833  0.47007572  0.72797547  1
  O  O285  1  0.30311026  0.97214899  0.06364714  1
  O  O286  1  0.30236021  0.96416300  0.39599870  1
  O  O287  1  0.30245336  0.97077286  0.73426326  1
  O  O288  1  0.79843001  0.47513511  0.06530041  1
  O  O289  1  0.79753237  0.46973536  0.39322073  1
  O  O290  1  0.79956725  0.46257515  0.73089957  1
  O  O291  1  0.80113755  0.96367581  0.05847302  1
  O  O292  1  0.80050528  0.97185254  0.40563968  1
  O  O293  1  0.79198609  0.97714152  0.73223344  1
  O  O294  1  0.47146315  0.29993811  0.22753522  1
  O  O295  1  0.46231419  0.29690246  0.56121637  1
  O  O296  1  0.47243346  0.30081145  0.89239438  1
  O  O297  1  0.45929105  0.79877123  0.23101726  1
  O  O298  1  0.46869997  0.80441297  0.56435179  1
  O  O299  1  0.46196152  0.80041416  0.89011284  1
  O  O300  1  0.96803209  0.29685871  0.23037874  1
  O  O301  1  0.97761355  0.29346015  0.56261476  1
  O  O302  1  0.96539898  0.32127860  0.90303825  1
  O  O303  1  0.96863074  0.80481490  0.23082697  1
  O  O304  1  0.96664374  0.79445453  0.55565495  1
  O  O305  1  0.98063101  0.80153917  0.90959311  1
  O  O306  1  0.20475462  0.03350883  0.27594787  1
  O  O307  1  0.19971435  0.02642634  0.60367198  1
  O  O308  1  0.21209184  0.01967555  0.93310989  1
  O  O309  1  0.21387484  0.52769956  0.27910384  1
  O  O310  1  0.20756408  0.53123846  0.60491066  1
  O  O311  1  0.19350612  0.52938920  0.93052859  1
  O  O312  1  0.68610226  0.02876352  0.26582191  1
  O  O313  1  0.69279702  0.03111861  0.60129348  1
  O  O314  1  0.69958291  0.03538932  0.93641194  1
  O  O315  1  0.69177894  0.53093659  0.27125791  1
  O  O316  1  0.68321494  0.53483023  0.60374717  1
  O  O317  1  0.69580269  0.53241763  0.93577023  1
  O  O318  1  0.10073235  0.11293656  0.06582813  1
  O  O319  1  0.07827163  0.08741333  0.37402191  1
  O  O320  1  0.08703791  0.08762384  0.69839638  1
  O  O321  1  0.07121056  0.59237216  0.04620486  1
  O  O322  1  0.09715582  0.59943678  0.39006501  1
  O  O323  1  0.08723163  0.57654816  0.68867710  1
  O  O324  1  0.59475774  0.09220753  0.03673916  1
  O  O325  1  0.58903307  0.08997593  0.37170827  1
  O  O326  1  0.58039839  0.08864673  0.70593493  1
  O  O327  1  0.58494249  0.57968946  0.02897970  1
  O  O328  1  0.57814981  0.58566701  0.37189803  1
  O  O329  1  0.58192599  0.58648220  0.70499449  1
  O  O330  1  0.42569663  0.41335642  0.13559140  1
  O  O331  1  0.42529229  0.42075009  0.46488050  1
  O  O332  1  0.41720102  0.42111624  0.79576148  1
  O  O333  1  0.40955012  0.91220405  0.12733305  1
  O  O334  1  0.41495498  0.91600332  0.46780710  1
  O  O335  1  0.41563777  0.91927381  0.79971068  1
  O  O336  1  0.90911889  0.41799992  0.12906954  1
  O  O337  1  0.90688162  0.40971614  0.45675233  1
  O  O338  1  0.91074591  0.40971883  0.79553129  1
  O  O339  1  0.90295463  0.89664995  0.12342888  1
  O  O340  1  0.90815482  0.91148842  0.46908586  1
  O  O341  1  0.89941087  0.90985743  0.78203181  1
  O  O342  1  0.41977904  0.41236896  0.29517497  1
  O  O343  1  0.41900991  0.41465651  0.62978810  1
  O  O344  1  0.42219583  0.41577710  0.95822038  1
  O  O345  1  0.40805232  0.91112067  0.29885429  1
  O  O346  1  0.41744344  0.91742512  0.63221410  1
  O  O347  1  0.40022372  0.90563609  0.95634604  1
  O  O348  1  0.91042784  0.40655231  0.29242682  1
  O  O349  1  0.93583474  0.41304208  0.62660351  1
  O  O350  1  0.91599172  0.42748740  0.98066545  1
  O  O351  1  0.89589939  0.89936348  0.29301032  1
  O  O352  1  0.91522689  0.90628978  0.62364869  1
  O  O353  1  0.92443595  0.91291994  0.96966613  1
  O  O354  1  0.09702254  0.09792649  0.22195616  1
  O  O355  1  0.08817645  0.08034477  0.53861174  1
  O  O356  1  0.10403367  0.08731036  0.88742991  1
  O  O357  1  0.09928076  0.58430849  0.22451850  1
  O  O358  1  0.09493970  0.58483169  0.54026571  1
  O  O359  1  0.08708202  0.58515292  0.86282736  1
  O  O360  1  0.58169159  0.08305674  0.19375955  1
  O  O361  1  0.58100310  0.08173504  0.53243139  1
  O  O362  1  0.58815360  0.09007702  0.87041539  1
  O  O363  1  0.57866205  0.58154593  0.20436978  1
  O  O364  1  0.57755483  0.58609736  0.53001636  1
  O  O365  1  0.58184709  0.58207191  0.86785266  1
  O  O366  1  0.13428461  0.24398055  0.06981828  1
  O  O367  1  0.13455495  0.21831611  0.39146491  1
  O  O368  1  0.13742561  0.22097367  0.71725738  1
  O  O369  1  0.13512552  0.71992583  0.06064300  1
  O  O370  1  0.13649695  0.73188830  0.39930139  1
  O  O371  1  0.13749970  0.71413892  0.72190009  1
  O  O372  1  0.64111077  0.22507687  0.04793570  1
  O  O373  1  0.64013699  0.22476319  0.39232744  1
  O  O374  1  0.63518500  0.22207786  0.72577094  1
  O  O375  1  0.63680095  0.71695974  0.05750228  1
  O  O376  1  0.63637989  0.71787632  0.39400133  1
  O  O377  1  0.63969958  0.71981028  0.72774942  1
  O  O378  1  0.29345906  0.35188391  0.11187558  1
  O  O379  1  0.29356237  0.36682368  0.44945320  1
  O  O380  1  0.28527807  0.36119876  0.77258749  1
  O  O381  1  0.27495208  0.86242737  0.10432724  1
  O  O382  1  0.28152579  0.86079249  0.44716770  1
  O  O383  1  0.28270725  0.85996275  0.77677096  1
  O  O384  1  0.77491760  0.36333788  0.10365289  1
  O  O385  1  0.77214613  0.36682063  0.44063024  1
  O  O386  1  0.77725972  0.35670928  0.77731698  1
  O  O387  1  0.76725887  0.87398382  0.11701897  1
  O  O388  1  0.77277982  0.86128177  0.44436011  1
  O  O389  1  0.76608233  0.86581918  0.77093095  1
  O  O390  1  0.36413584  0.27854376  0.27338887  1
  O  O391  1  0.36186564  0.28472339  0.61813188  1
  O  O392  1  0.36407766  0.28339101  0.93739283  1
  O  O393  1  0.35606761  0.77824804  0.28220677  1
  O  O394  1  0.36067794  0.78384942  0.60943190  1
  O  O395  1  0.36251978  0.77016790  0.94085099  1
  O  O396  1  0.86393918  0.27402087  0.27959271  1
  O  O397  1  0.86479551  0.28547251  0.60419028  1
  O  O398  1  0.86018239  0.29124311  0.94781348  1
  O  O399  1  0.86205565  0.76058905  0.26641420  1
  O  O400  1  0.86000536  0.77358002  0.60188963  1
  O  O401  1  0.86346860  0.78085564  0.94267449  1
  O  O402  1  0.22705069  0.12622264  0.21604170  1
  O  O403  1  0.22166177  0.13669641  0.56290573  1
  O  O404  1  0.23583110  0.13197941  0.89510102  1
  O  O405  1  0.22876189  0.63526228  0.23336252  1
  O  O406  1  0.22761878  0.64247874  0.56455449  1
  O  O407  1  0.22407823  0.63548030  0.88764668  1
  O  O408  1  0.71706711  0.13978078  0.22795365  1
  O  O409  1  0.71474073  0.13992323  0.55691388  1
  O  O410  1  0.72193269  0.14102530  0.88863993  1
  O  O411  1  0.71165863  0.63903012  0.22543012  1
  O  O412  1  0.71325701  0.64236883  0.56042556  1
  O  O413  1  0.71364583  0.63954868  0.88750908  1
  O  O414  1  0.49584929  0.33441503  0.02588900  1
  O  O415  1  0.49471260  0.33163524  0.36150716  1
  O  O416  1  0.49597095  0.33592240  0.69730663  1
  O  O417  1  0.49356054  0.83603770  0.02412690  1
  O  O418  1  0.48860819  0.83439336  0.36576118  1
  O  O419  1  0.49145249  0.83542167  0.69792649  1
  O  O420  1  0.99201130  0.33941469  0.03543893  1
  O  O421  1  0.99397976  0.33365129  0.36431546  1
  O  O422  1  0.99445985  0.32742996  0.69683458  1
  O  O423  1  0.99018185  0.83026697  0.04010125  1
  O  O424  1  0.98499151  0.82720125  0.36141481  1
  O  O425  1  0.99204884  0.82373929  0.68910371  1
  O  O426  1  0.14872539  -0.00074093  0.14029516  1
  O  O427  1  0.17051635  0.00816668  0.47056091  1
  O  O428  1  0.16890533  0.00918677  0.80154200  1
  O  O429  1  0.16909433  0.50607170  0.14469813  1
  O  O430  1  0.17939181  0.51179546  0.47372935  1
  O  O431  1  0.16812408  0.50666488  0.79761391  1
  O  O432  1  0.67061238  0.00992520  0.13615136  1
  O  O433  1  0.66442712  0.00851153  0.46781243  1
  O  O434  1  0.66417790  0.01050619  0.80206964  1
  O  O435  1  0.66077182  0.50814645  0.13750294  1
  O  O436  1  0.66473567  0.51075023  0.47203123  1
  O  O437  1  0.66314663  0.50647656  0.80169207  1
  O  O438  1  0.00248547  0.16510552  0.30332348  1
  O  O439  1  0.00718238  0.16164006  0.62799377  1
  O  O440  1  0.00985767  0.17074728  0.98147512  1
  O  O441  1  0.00938666  0.66365726  0.31051796  1
  O  O442  1  0.00784009  0.65983376  0.63019862  1
  O  O443  1  0.00826735  0.66669528  0.96569873  1
  O  O444  1  0.51105342  0.16790225  0.30236536  1
  O  O445  1  0.50445244  0.16658559  0.63704549  1
  O  O446  1  0.50880044  0.16601260  0.96971542  1
  O  O447  1  0.50427739  0.66771245  0.30557628  1
  O  O448  1  0.50837210  0.66988839  0.64005548  1
  O  O449  1  0.50660387  0.66368354  0.97014951  1
  O  O450  1  0.33885272  0.48627307  0.19502224  1
  O  O451  1  0.34720619  0.49899807  0.53294301  1
  O  O452  1  0.33373105  0.49284205  0.86213719  1
  O  O453  1  0.32955368  0.99087838  0.19442965  1
  O  O454  1  0.33384908  0.99353973  0.53098686  1
  O  O455  1  0.33407163  0.98959088  0.86826798  1
  O  O456  1  0.82709620  0.49130219  0.19666337  1
  O  O457  1  0.83671688  0.49643236  0.52789398  1
  O  O458  1  0.83170039  0.48786576  0.86465051  1
  O  O459  1  0.84656527  1.00011669  0.19364401  1
  O  O460  1  0.83043014  0.98963449  0.53764815  1
  O  O461  1  0.83119496  0.98915421  0.86461419  1
