# generated using pymatgen
data_Na31Fe20(SO4)36
_symmetry_space_group_name_H-M   'P 1'
_cell_length_a   18.08115790
_cell_length_b   18.08407879
_cell_length_c   19.71565929
_cell_angle_alpha   107.57736773
_cell_angle_beta   107.57043252
_cell_angle_gamma   90.71615982
_symmetry_Int_Tables_number   1
_chemical_formula_structural   Na31Fe20(SO4)36
_chemical_formula_sum   'Na62 Fe40 S72 O288'
_cell_volume   5820.70004542
_cell_formula_units_Z   2
loop_
 _symmetry_equiv_pos_site_id
 _symmetry_equiv_pos_as_xyz
  1  'x, y, z'
loop_
 _atom_site_type_symbol
 _atom_site_label
 _atom_site_symmetry_multiplicity
 _atom_site_fract_x
 _atom_site_fract_y
 _atom_site_fract_z
 _atom_site_occupancy
  Na  Na0  1  0.11535017  0.35668747  0.07045891  1
  Na  Na1  1  0.13420693  0.36806911  0.41702691  1
  Na  Na2  1  0.14326627  0.37018154  0.75880412  1
  Na  Na3  1  0.13528540  0.86643031  0.08353612  1
  Na  Na4  1  0.13105919  0.86711329  0.41837448  1
  Na  Na5  1  0.12984453  0.86373242  0.75465344  1
  Na  Na6  1  0.63415589  0.34666495  0.05972401  1
  Na  Na7  1  0.63161587  0.36822190  0.41874316  1
  Na  Na8  1  0.65008178  0.36949579  0.76845884  1
  Na  Na9  1  0.62766501  0.86705684  0.07938111  1
  Na  Na10  1  0.63986133  0.86453094  0.42072499  1
  Na  Na11  1  0.63660676  0.86137135  0.73112636  1
  Na  Na12  1  0.36482152  0.13074614  0.24524560  1
  Na  Na13  1  0.37400374  0.13118165  0.58728695  1
  Na  Na14  1  0.36329107  0.13840525  0.91100520  1
  Na  Na15  1  0.36640229  0.63611215  0.25334599  1
  Na  Na16  1  0.36250093  0.64904557  0.58686740  1
  Na  Na17  1  0.35617758  0.62728950  0.90088251  1
  Na  Na18  1  0.86840757  0.12984848  0.24499565  1
  Na  Na19  1  0.86973794  0.14118469  0.58910600  1
  Na  Na20  1  0.86045489  0.13443128  0.91993908  1
  Na  Na21  1  0.86455885  0.63431667  0.25088634  1
  Na  Na22  1  0.87396817  0.65759764  0.61290951  1
  Na  Na23  1  0.86334048  0.62549330  0.91108421  1
  Na  Na24  1  0.97959609  0.00662659  0.09825158  1
  Na  Na25  1  0.49685842  0.49960068  0.08739033  1
  Na  Na26  1  0.99953921  0.51639384  0.76330306  1
  Na  Na27  1  0.51216755  -0.01823061  0.47400092  1
  Na  Na28  1  0.49047841  0.51605662  0.73236787  1
  Na  Na29  1  0.50957024  0.02382253  0.75219547  1
  Na  Na30  1  0.98884855  0.51583312  0.41535092  1
  Na  Na31  1  0.91404525  0.48171910  0.03133825  1
  Na  Na32  1  0.98307608  -0.00051852  0.75322179  1
  Na  Na33  1  0.50957425  0.99358522  0.24630376  1
  Na  Na34  1  0.47885381  1.01215258  0.93381830  1
  Na  Na35  1  0.51716373  0.48837771  0.91322290  1
  Na  Na36  1  0.04717836  0.49061573  0.59941046  1
  Na  Na37  1  0.01361385  0.46013461  0.23023870  1
  Na  Na38  1  0.50262328  0.48538568  0.26891625  1
  Na  Na39  1  0.01818848  0.99782965  0.57348932  1
  Na  Na40  1  0.01380107  0.95704955  0.91403131  1
  Na  Na41  1  0.48639066  0.54681068  0.52840840  1
  Na  Na42  1  0.25540451  0.25118101  -0.00814346  1
  Na  Na43  1  0.75905063  0.25724929  0.32404312  1
  Na  Na44  1  0.24935351  0.24936979  0.33472625  1
  Na  Na45  1  0.75749784  0.75399804  -0.00845017  1
  Na  Na46  1  0.23905486  0.73884845  0.34909780  1
  Na  Na47  1  0.26048109  0.76091712  -0.00778722  1
  Na  Na48  1  0.74237551  0.23615919  0.68233282  1
  Na  Na49  1  0.74268866  0.74272255  0.34075385  1
  Na  Na50  1  0.25480225  0.76016231  0.65812522  1
  Na  Na51  1  0.24629317  0.24022511  0.67922359  1
  Na  Na52  1  0.25174765  0.75060474  0.16777702  1
  Na  Na53  1  0.75225170  0.75692503  0.16368640  1
  Na  Na54  1  0.25293175  0.25086711  0.16097151  1
  Na  Na55  1  0.76710583  0.25631056  0.13928810  1
  Na  Na56  1  0.72721379  0.23266452  0.85598783  1
  Na  Na57  1  0.76177403  0.75751862  0.80586194  1
  Na  Na58  1  0.25591773  0.75849949  0.82758978  1
  Na  Na59  1  0.24453833  0.24171363  0.50651745  1
  Na  Na60  1  0.73336745  0.74455044  0.53153621  1
  Na  Na61  1  0.74924256  0.24965331  0.50158752  1
  Fe  Fe62  1  0.46195090  0.31360959  0.45935126  1
  Fe  Fe63  1  0.96791955  0.30766868  0.45287128  1
  Fe  Fe64  1  0.96108124  0.80978137  0.45312485  1
  Fe  Fe65  1  0.96635462  0.81162615  0.12619301  1
  Fe  Fe66  1  0.47076471  0.79843556  0.45902178  1
  Fe  Fe67  1  0.96401374  0.31365951  0.78889566  1
  Fe  Fe68  1  0.46778088  0.30422316  0.11619055  1
  Fe  Fe69  1  0.46467357  0.80451123  0.11636686  1
  Fe  Fe70  1  0.46930301  0.80551557  0.78414650  1
  Fe  Fe71  1  0.46728970  0.30096048  0.79138717  1
  Fe  Fe72  1  0.20289541  0.02978543  0.04334059  1
  Fe  Fe73  1  0.18907712  0.53739449  0.37966207  1
  Fe  Fe74  1  0.69371241  0.03683994  0.38025861  1
  Fe  Fe75  1  0.19918705  0.03417791  0.71814628  1
  Fe  Fe76  1  0.18177947  0.53751543  0.04204201  1
  Fe  Fe77  1  0.69702547  0.53296750  0.04544130  1
  Fe  Fe78  1  0.19013790  0.03445548  0.37571447  1
  Fe  Fe79  1  0.69364552  0.53252233  0.71358093  1
  Fe  Fe80  1  0.69536420  0.53486993  0.38615644  1
  Fe  Fe81  1  0.68754220  0.03532060  0.04596130  1
  Fe  Fe82  1  0.03177948  0.70267674  0.88119404  1
  Fe  Fe83  1  0.53451834  0.19664684  0.54966102  1
  Fe  Fe84  1  0.53550155  0.69153513  0.87967516  1
  Fe  Fe85  1  0.03227628  0.69823025  0.55388923  1
  Fe  Fe86  1  0.03807450  0.18920500  0.87897162  1
  Fe  Fe87  1  0.53591371  0.18941467  0.21364806  1
  Fe  Fe88  1  0.03562141  0.18840059  0.54319411  1
  Fe  Fe89  1  0.03403168  0.69020114  0.21374181  1
  Fe  Fe90  1  0.53471077  0.69162991  0.21378147  1
  Fe  Fe91  1  0.03246511  0.19726736  0.20663248  1
  Fe  Fe92  1  0.81076929  0.96633115  0.28936430  1
  Fe  Fe93  1  0.30824908  0.46592172  0.28860290  1
  Fe  Fe94  1  0.80102746  0.96458293  0.94360571  1
  Fe  Fe95  1  0.81212142  0.46400604  0.61988983  1
  Fe  Fe96  1  0.29843865  0.47058113  0.62307819  1
  Fe  Fe97  1  0.79818040  0.97247075  0.62315373  1
  Fe  Fe98  1  0.30363981  0.46659082  0.95068796  1
  Fe  Fe99  1  0.80717782  0.46492550  0.28438359  1
  Fe  Fe100  1  0.31199200  0.96411080  0.28998096  1
  Fe  Fe101  1  0.31056861  0.96195674  0.61930390  1
  S  S102  1  0.36331014  0.14172460  0.08340901  1
  S  S103  1  0.35980221  0.14177675  0.41755615  1
  S  S104  1  0.36144378  0.13665031  0.74823108  1
  S  S105  1  0.35803792  0.63842419  0.08357599  1
  S  S106  1  0.35523926  0.63832416  0.41408432  1
  S  S107  1  0.36009782  0.64115802  0.74881990  1
  S  S108  1  0.86061645  0.13463666  0.08402550  1
  S  S109  1  0.85941353  0.14340335  0.41446768  1
  S  S110  1  0.86395213  0.14068821  0.74737031  1
  S  S111  1  0.85723261  0.64775331  0.08692804  1
  S  S112  1  0.85966499  0.64123784  0.41845971  1
  S  S113  1  0.86227114  0.63679462  0.75414048  1
  S  S114  1  0.14575283  0.35868943  0.25017059  1
  S  S115  1  0.14242080  0.35373067  0.58197186  1
  S  S116  1  0.14116585  0.36047959  0.91663684  1
  S  S117  1  0.14300468  0.85792899  0.25186590  1
  S  S118  1  0.13794786  0.86300867  0.58298120  1
  S  S119  1  0.14632516  0.85748103  0.92231871  1
  S  S120  1  0.64042099  0.35998815  0.25159911  1
  S  S121  1  0.64087084  0.35909516  0.58283251  1
  S  S122  1  0.63575486  0.36327382  0.91581398  1
  S  S123  1  0.64053214  0.85941938  0.25113473  1
  S  S124  1  0.63767720  0.87041448  0.58008864  1
  S  S125  1  0.64124868  0.85624397  0.91743102  1
  S  S126  1  0.07175842  0.16069690  0.03861074  1
  S  S127  1  0.07022014  0.17402824  0.37388500  1
  S  S128  1  0.07166146  0.16816109  0.70462928  1
  S  S129  1  0.06511382  0.67625150  0.04718605  1
  S  S130  1  0.06228463  0.66932787  0.37533803  1
  S  S131  1  0.06607859  0.67297733  0.71427738  1
  S  S132  1  0.56530336  0.16951214  0.04748452  1
  S  S133  1  0.56630900  0.17117907  0.37675106  1
  S  S134  1  0.56671946  0.17423605  0.71039201  1
  S  S135  1  0.56509423  0.66562156  0.04243539  1
  S  S136  1  0.56800614  0.66838080  0.37463426  1
  S  S137  1  0.56575158  0.66613612  0.70632267  1
  S  S138  1  0.33299038  0.43292508  0.12581967  1
  S  S139  1  0.32545103  0.43507284  0.45892524  1
  S  S140  1  0.33354422  0.42967372  0.79037533  1
  S  S141  1  0.33368638  0.93166821  0.12905005  1
  S  S142  1  0.32606896  0.92821434  0.45291950  1
  S  S143  1  0.33113875  0.93253345  0.79063696  1
  S  S144  1  0.82903891  0.43912914  0.12743292  1
  S  S145  1  0.83465319  0.43331337  0.45834109  1
  S  S146  1  0.83178563  0.43251701  0.78454445  1
  S  S147  1  0.82425355  0.93043089  0.12416220  1
  S  S148  1  0.82792257  0.93570465  0.45776567  1
  S  S149  1  0.83247831  0.93800417  0.78932943  1
  S  S150  1  0.43247322  0.32815672  0.29275799  1
  S  S151  1  0.42875868  0.33004684  0.62611121  1
  S  S152  1  0.42936638  0.33528734  0.96084234  1
  S  S153  1  0.43586434  0.82774467  0.29177078  1
  S  S154  1  0.43248340  0.83463395  0.62717823  1
  S  S155  1  0.43565991  0.82652958  0.95485181  1
  S  S156  1  0.93589268  0.33131108  0.29059972  1
  S  S157  1  0.93893402  0.33068456  0.62290056  1
  S  S158  1  0.92879555  0.31866575  0.94080359  1
  S  S159  1  0.93053763  0.82838503  0.29089396  1
  S  S160  1  0.92983930  0.84124721  0.62376621  1
  S  S161  1  0.93084024  0.83267196  0.96239444  1
  S  S162  1  0.17337404  0.06841048  0.20875518  1
  S  S163  1  0.17427003  0.06636182  0.54144580  1
  S  S164  1  0.16850308  0.06444495  0.87349978  1
  S  S165  1  0.16956888  0.56636277  0.20920564  1
  S  S166  1  0.16471719  0.56747407  0.54079767  1
  S  S167  1  0.16781532  0.57067620  0.87913786  1
  S  S168  1  0.67069477  0.06571237  0.21226016  1
  S  S169  1  0.67556302  0.07472366  0.54120539  1
  S  S170  1  0.65812484  0.05281255  0.87744516  1
  S  S171  1  0.67012748  0.56552431  0.20952127  1
  S  S172  1  0.68071755  0.56621104  0.54521224  1
  S  S173  1  0.66423734  0.56924361  0.87361013  1
  O  O174  1  0.36971059  0.22650818  0.08554501  1
  O  O175  1  0.36971116  0.22244092  0.41249975  1
  O  O176  1  0.37216754  0.21654044  0.74023465  1
  O  O177  1  0.36689211  0.71902169  0.07890834  1
  O  O178  1  0.36949800  0.71613215  0.40528797  1
  O  O179  1  0.37258020  0.72009657  0.74011944  1
  O  O180  1  0.86734138  0.21193935  0.07753511  1
  O  O181  1  0.86979645  0.22285498  0.40712173  1
  O  O182  1  0.88155765  0.21403964  0.73118229  1
  O  O183  1  0.86481742  0.73101347  0.08757191  1
  O  O184  1  0.86820317  0.71731848  0.40461146  1
  O  O185  1  0.86410248  0.71271996  0.74342514  1
  O  O186  1  0.28372702  0.13006531  0.09121102  1
  O  O187  1  0.27983078  0.13258907  0.42372757  1
  O  O188  1  0.27917494  0.12998840  0.74990922  1
  O  O189  1  0.28104629  0.62877944  0.09507669  1
  O  O190  1  0.27099793  0.63169004  0.41035665  1
  O  O191  1  0.28591836  0.63463164  0.76226219  1
  O  O192  1  0.78502941  0.12165848  0.09875344  1
  O  O193  1  0.77921623  0.13543141  0.42030551  1
  O  O194  1  0.78840471  0.14190154  0.75920738  1
  O  O195  1  0.77876058  0.63591886  0.09582571  1
  O  O196  1  0.77871250  0.63216879  0.42101341  1
  O  O197  1  0.78577798  0.62091497  0.76612189  1
  O  O198  1  0.13419686  0.28011214  0.25841317  1
  O  O199  1  0.13526822  0.26961337  0.57839528  1
  O  O200  1  0.13434031  0.28189515  0.92585630  1
  O  O201  1  0.13300214  0.77818080  0.25852106  1
  O  O202  1  0.12615888  0.78510367  0.59264675  1
  O  O203  1  0.12909583  0.78152361  0.93562177  1
  O  O204  1  0.63128959  0.28308211  0.26351700  1
  O  O205  1  0.63446374  0.27947685  0.59037933  1
  O  O206  1  0.62606548  0.28884621  0.92825109  1
  O  O207  1  0.63115002  0.78033109  0.25910198  1
  O  O208  1  0.63500284  0.79060333  0.58236048  1
  O  O209  1  0.63157584  0.77933677  0.93031555  1
  O  O210  1  0.22891578  0.36634982  0.25048781  1
  O  O211  1  0.22125521  0.36735408  0.57487829  1
  O  O212  1  0.21907772  0.37226899  0.90757419  1
  O  O213  1  0.22240560  0.86744703  0.24460546  1
  O  O214  1  0.21609790  0.86943781  0.57444255  1
  O  O215  1  0.22610678  0.85860494  0.91917623  1
  O  O216  1  0.72127633  0.36848010  0.24757341  1
  O  O217  1  0.71679032  0.36866618  0.56900597  1
  O  O218  1  0.70781664  0.37421921  0.89919368  1
  O  O219  1  0.72025033  0.86876515  0.24545505  1
  O  O220  1  0.71600470  0.88424029  0.56441551  1
  O  O221  1  0.72152111  0.86203761  0.91101668  1
  O  O222  1  0.42061119  0.13261245  0.15245959  1
  O  O223  1  0.41789574  0.13229459  0.48510161  1
  O  O224  1  0.41713139  0.12643646  0.81435469  1
  O  O225  1  0.41973499  0.62764307  0.14915345  1
  O  O226  1  0.40535615  0.62988220  0.48392907  1
  O  O227  1  0.42408574  0.62850690  0.81219965  1
  O  O228  1  0.92378556  0.12453306  0.15078470  1
  O  O229  1  0.91650261  0.13647712  0.48382666  1
  O  O230  1  0.92555566  0.12546965  0.80979683  1
  O  O231  1  0.91687384  0.63611097  0.15323299  1
  O  O232  1  0.91617904  0.63826789  0.48984089  1
  O  O233  1  0.92463521  0.63166549  0.82278211  1
  O  O234  1  0.37206746  0.09064314  0.01469051  1
  O  O235  1  0.36734233  0.08480767  0.34865637  1
  O  O236  1  0.36887220  0.07853355  0.67850228  1
  O  O237  1  0.36431874  0.58198603  0.01354713  1
  O  O238  1  0.36733624  0.57844824  0.34748703  1
  O  O239  1  0.36409050  0.58231082  0.67776459  1
  O  O240  1  0.86825277  0.07332960  0.01648342  1
  O  O241  1  0.86746130  0.08472644  0.34688170  1
  O  O242  1  0.86513574  0.07638268  0.67630076  1
  O  O243  1  0.86408115  0.59517130  0.01707696  1
  O  O244  1  0.87309569  0.57866908  0.35487337  1
  O  O245  1  0.87440643  0.57545762  0.68864699  1
  O  O246  1  0.09224522  0.36721007  0.18167148  1
  O  O247  1  0.08340833  0.36688705  0.51523857  1
  O  O248  1  0.08119377  0.36732586  0.84891605  1
  O  O249  1  0.08462903  0.86624120  0.18381784  1
  O  O250  1  0.07806410  0.87084424  0.51469884  1
  O  O251  1  0.08953991  0.86787250  0.85599505  1
  O  O252  1  0.58332042  0.36638253  0.18205743  1
  O  O253  1  0.57837323  0.36562421  0.51582459  1
  O  O254  1  0.56877263  0.37297072  0.85018934  1
  O  O255  1  0.58219472  0.86658948  0.18217349  1
  O  O256  1  0.57622162  0.87689465  0.51005750  1
  O  O257  1  0.58407634  0.86061477  0.84765221  1
  O  O258  1  0.13427971  0.41852623  0.31718766  1
  O  O259  1  0.13254805  0.40521748  0.65065090  1
  O  O260  1  0.13453691  0.41891332  0.98580665  1
  O  O261  1  0.13573077  0.91626376  0.32015741  1
  O  O262  1  0.12936741  0.92416986  0.64955418  1
  O  O263  1  0.13810768  0.91942350  0.99065096  1
  O  O264  1  0.62944299  0.42165145  0.31739508  1
  O  O265  1  0.63459032  0.41698370  0.65172993  1
  O  O266  1  0.62771791  0.42756953  0.98318169  1
  O  O267  1  0.63016224  0.91897288  0.31786804  1
  O  O268  1  0.63246216  0.92889149  0.64638539  1
  O  O269  1  0.63211685  0.91697549  0.98394461  1
  O  O270  1  0.03871904  0.18473571  0.10092239  1
  O  O271  1  0.02920231  0.20013366  0.43227001  1
  O  O272  1  0.03993815  0.19755780  0.76776583  1
  O  O273  1  0.02643501  0.70535333  0.10770820  1
  O  O274  1  0.02746503  0.69861517  0.43764848  1
  O  O275  1  0.03399544  0.70756074  0.77585598  1
  O  O276  1  0.53485930  0.20449270  0.11429307  1
  O  O277  1  0.52928320  0.19804123  0.43714449  1
  O  O278  1  0.52838200  0.20914607  0.76862501  1
  O  O279  1  0.52834078  0.69794474  0.10351446  1
  O  O280  1  0.53012198  0.69579530  0.43237524  1
  O  O281  1  0.53473241  0.69962105  0.77193616  1
  O  O282  1  0.30486958  0.46829388  0.06479631  1
  O  O283  1  0.29637636  0.47255317  0.39859070  1
  O  O284  1  0.31788160  0.46812060  0.73225318  1
  O  O285  1  0.30681149  0.97011215  0.07202177  1
  O  O286  1  0.30074980  0.97120393  0.39553882  1
  O  O287  1  0.29850125  0.96412246  0.72476339  1
  O  O288  1  0.79716392  0.47617993  0.06798888  1
  O  O289  1  0.80221766  0.46975029  0.39737203  1
  O  O290  1  0.79425178  0.46209444  0.71802037  1
  O  O291  1  0.79510993  0.96427321  0.06229983  1
  O  O292  1  0.80073435  0.97495252  0.39805121  1
  O  O293  1  0.80348532  0.96870576  0.72392574  1
  O  O294  1  0.47282646  0.30114540  0.23497556  1
  O  O295  1  0.46889798  0.30196842  0.56679824  1
  O  O296  1  0.45626838  0.30411361  0.89566390  1
  O  O297  1  0.47170559  0.79771896  0.22964199  1
  O  O298  1  0.46157928  0.80841062  0.56283299  1
  O  O299  1  0.47264950  0.79107683  0.89401981  1
  O  O300  1  0.97401640  0.30438089  0.23258458  1
  O  O301  1  0.97598322  0.29828539  0.56196685  1
  O  O302  1  0.97278566  0.28303972  0.88354433  1
  O  O303  1  0.97287126  0.79988161  0.23436932  1
  O  O304  1  0.96069375  0.80857051  0.55774592  1
  O  O305  1  0.96903500  0.80667878  0.90449576  1
  O  O306  1  0.20133886  0.03049426  0.26952985  1
  O  O307  1  0.20277273  0.02720639  0.59990798  1
  O  O308  1  0.19090359  0.02867619  0.93317974  1
  O  O309  1  0.19878257  0.52514106  0.26683618  1
  O  O310  1  0.19053798  0.52711091  0.59755583  1
  O  O311  1  0.20058692  0.53701890  0.94408486  1
  O  O312  1  0.70278078  0.02723641  0.27220206  1
  O  O313  1  0.70729070  0.04103110  0.60220358  1
  O  O314  1  0.70443716  0.02490058  0.94463242  1
  O  O315  1  0.70098241  0.53026988  0.27144544  1
  O  O316  1  0.71088309  0.52856603  0.60611213  1
  O  O317  1  0.68909882  0.54173578  0.93884746  1
  O  O318  1  0.09179652  0.07849366  0.02794508  1
  O  O319  1  0.09189708  0.09482474  0.37031356  1
  O  O320  1  0.09182330  0.08634197  0.69846492  1
  O  O321  1  0.08246506  0.59544752  0.04348881  1
  O  O322  1  0.07769073  0.58600128  0.36797434  1
  O  O323  1  0.07253933  0.58949476  0.70493295  1
  O  O324  1  0.58458423  0.08896193  0.04736056  1
  O  O325  1  0.58591300  0.08947788  0.36873572  1
  O  O326  1  0.58106687  0.09524385  0.70881189  1
  O  O327  1  0.58266859  0.58459727  0.04137251  1
  O  O328  1  0.58915350  0.58714200  0.36874965  1
  O  O329  1  0.58860027  0.58609927  0.70756703  1
  O  O330  1  0.41673254  0.41659901  0.13444993  1
  O  O331  1  0.40804302  0.41945003  0.46538887  1
  O  O332  1  0.41564814  0.40715277  0.80508283  1
  O  O333  1  0.41502578  0.91011036  0.13492813  1
  O  O334  1  0.40333083  0.90177110  0.45227544  1
  O  O335  1  0.40987173  0.90752440  0.79065626  1
  O  O336  1  0.90867079  0.42332215  0.12810451  1
  O  O337  1  0.91694125  0.41833320  0.46174036  1
  O  O338  1  0.91241842  0.41567947  0.78102003  1
  O  O339  1  0.90603129  0.91262139  0.13005886  1
  O  O340  1  0.91072271  0.92074461  0.46697826  1
  O  O341  1  0.91600669  0.92892416  0.80233975  1
  O  O342  1  0.41251945  0.40889548  0.29553794  1
  O  O343  1  0.40694038  0.40952008  0.62759704  1
  O  O344  1  0.41342577  0.41919665  0.96914580  1
  O  O345  1  0.42070779  0.91029805  0.29835589  1
  O  O346  1  0.41751029  0.91883444  0.64116131  1
  O  O347  1  0.42188811  0.90574105  0.95739369  1
  O  O348  1  0.91777954  0.41417339  0.29727161  1
  O  O349  1  0.92600390  0.41348894  0.62773578  1
  O  O350  1  0.90389546  0.39032309  0.92559663  1
  O  O351  1  0.90901063  0.90706242  0.29196601  1
  O  O352  1  0.90045607  0.91940944  0.62106224  1
  O  O353  1  0.90961127  0.91433757  0.96672767  1
  O  O354  1  0.09228751  0.08743033  0.20191605  1
  O  O355  1  0.09320083  0.08528195  0.53824545  1
  O  O356  1  0.08477376  0.08293140  0.86034050  1
  O  O357  1  0.08884464  0.58438789  0.20794623  1
  O  O358  1  0.08217789  0.58672459  0.53599524  1
  O  O359  1  0.09083758  0.59788285  0.88188205  1
  O  O360  1  0.59051835  0.08357411  0.21321396  1
  O  O361  1  0.59564098  0.09557527  0.53941776  1
  O  O362  1  0.58023176  0.06530359  0.88515904  1
  O  O363  1  0.58753652  0.58186141  0.20420180  1
  O  O364  1  0.60538019  0.59237600  0.54500536  1
  O  O365  1  0.57834062  0.58233614  0.85991981  1
  O  O366  1  0.14195763  0.21540559  0.05480447  1
  O  O367  1  0.14068566  0.22995364  0.39489045  1
  O  O368  1  0.13839942  0.22125670  0.71341171  1
  O  O369  1  0.13775198  0.72828851  0.06774375  1
  O  O370  1  0.13309724  0.72002905  0.39024153  1
  O  O371  1  0.14064316  0.71838777  0.72617218  1
  O  O372  1  0.63643867  0.21955491  0.06093604  1
  O  O373  1  0.63663413  0.22493538  0.39364225  1
  O  O374  1  0.63883886  0.22656535  0.72723723  1
  O  O375  1  0.63595484  0.71746483  0.05812731  1
  O  O376  1  0.63891374  0.72162952  0.39052816  1
  O  O377  1  0.63425125  0.71791735  0.71667818  1
  O  O378  1  0.28175373  0.36144172  0.11022512  1
  O  O379  1  0.27521109  0.36194301  0.44035860  1
  O  O380  1  0.27718010  0.36106596  0.76962241  1
  O  O381  1  0.28048873  0.86106464  0.11404508  1
  O  O382  1  0.26741702  0.86231244  0.43450915  1
  O  O383  1  0.27585297  0.86393041  0.77681130  1
  O  O384  1  0.77689131  0.36990432  0.11525545  1
  O  O385  1  0.78458521  0.36018223  0.44086222  1
  O  O386  1  0.78398922  0.35951745  0.77093694  1
  O  O387  1  0.77198520  0.85930359  0.10935550  1
  O  O388  1  0.77685928  0.86270344  0.43590030  1
  O  O389  1  0.78348243  0.86567931  0.77428116  1
  O  O390  1  0.36163498  0.27439234  0.27430085  1
  O  O391  1  0.35985764  0.27388300  0.60739557  1
  O  O392  1  0.36070655  0.28666404  0.95518797  1
  O  O393  1  0.36332260  0.77687506  0.27370817  1
  O  O394  1  0.36052719  0.78556729  0.61458732  1
  O  O395  1  0.36428507  0.77349795  0.93861734  1
  O  O396  1  0.86337282  0.27969607  0.27278420  1
  O  O397  1  0.86471559  0.28218020  0.60375978  1
  O  O398  1  0.86210830  0.26127578  0.92509375  1
  O  O399  1  0.86072040  0.77319114  0.27260446  1
  O  O400  1  0.86464833  0.78654683  0.61518700  1
  O  O401  1  0.86110362  0.77849618  0.94641781  1
  O  O402  1  0.22723075  0.13974004  0.22812959  1
  O  O403  1  0.22752842  0.13757757  0.55982401  1
  O  O404  1  0.22073795  0.13535331  0.89013502  1
  O  O405  1  0.22246036  0.63848118  0.22951194  1
  O  O406  1  0.21709527  0.63785783  0.55712403  1
  O  O407  1  0.22444781  0.63745755  0.89219490  1
  O  O408  1  0.72238935  0.13702720  0.22903188  1
  O  O409  1  0.72770135  0.14415571  0.55204331  1
  O  O410  1  0.70494408  0.12401574  0.88606450  1
  O  O411  1  0.72006735  0.63861259  0.22666890  1
  O  O412  1  0.73939113  0.62982031  0.55631393  1
  O  O413  1  0.71247050  0.64142477  0.88594146  1
  O  O414  1  0.49472897  0.34008122  0.03199495  1
  O  O415  1  0.48868333  0.33209485  0.36727052  1
  O  O416  1  0.48643460  0.33505457  0.70003438  1
  O  O417  1  0.49314147  0.82461040  0.02805233  1
  O  O418  1  0.49415715  0.82709508  0.36339748  1
  O  O419  1  0.49525197  0.83067625  0.69573197  1
  O  O420  1  0.98494123  0.33388627  0.01601754  1
  O  O421  1  0.99270317  0.33477193  0.36546185  1
  O  O422  1  0.99556137  0.32909020  0.69480741  1
  O  O423  1  0.98921322  0.84084169  0.03820349  1
  O  O424  1  0.98739462  0.83271879  0.36549707  1
  O  O425  1  0.99570531  0.85714402  0.69276784  1
  O  O426  1  0.17482152  0.01001404  0.13765977  1
  O  O427  1  0.17087994  0.00984383  0.46744966  1
  O  O428  1  0.16861798  0.00469067  0.80141848  1
  O  O429  1  0.16755127  0.51088822  0.13538390  1
  O  O430  1  0.15828481  0.50999911  0.46480503  1
  O  O431  1  0.15680265  0.50722397  0.80918545  1
  O  O432  1  0.66633588  0.00780636  0.13898760  1
  O  O433  1  0.66615085  0.01269334  0.46710567  1
  O  O434  1  0.65139518  -0.01043848  0.80795720  1
  O  O435  1  0.66813929  0.50729950  0.13729557  1
  O  O436  1  0.67298660  0.50303097  0.47141268  1
  O  O437  1  0.66652160  0.50718529  0.80430815  1
  O  O438  1  0.01363281  0.17331096  0.30086878  1
  O  O439  1  0.00796039  0.16059016  0.63148557  1
  O  O440  1  0.01127802  0.16199313  0.96808053  1
  O  O441  1  0.00254214  0.66826449  0.30321863  1
  O  O442  1  0.00820557  0.67897429  0.64203086  1
  O  O443  1  0.00810014  0.67764311  0.97575270  1
  O  O444  1  0.50700592  0.16917655  0.30406024  1
  O  O445  1  0.50985738  0.17358982  0.63552187  1
  O  O446  1  0.50151148  0.16533356  0.98001394  1
  O  O447  1  0.50960795  0.66261687  0.29919028  1
  O  O448  1  0.50101451  0.65542506  0.63674339  1
  O  O449  1  0.50658890  0.65993574  0.96876934  1
  O  O450  1  0.33486773  0.49227773  0.19861370  1
  O  O451  1  0.32478777  0.49270045  0.53076966  1
  O  O452  1  0.33161991  0.48931563  0.86187247  1
  O  O453  1  0.34028683  0.98972893  0.20498484  1
  O  O454  1  0.33367043  0.98668795  0.52732617  1
  O  O455  1  0.33997122  0.99601896  0.85997200  1
  O  O456  1  0.83404957  0.49838052  0.20297242  1
  O  O457  1  0.83670213  0.49052533  0.53101629  1
  O  O458  1  0.83558980  0.49402155  0.85300825  1
  O  O459  1  0.82631133  0.99006859  0.19649045  1
  O  O460  1  0.82356232  0.99292977  0.52882913  1
  O  O461  1  0.82507601  0.99845473  0.85810112  1
