# generated using pymatgen
data_Na31Fe20(SO4)36
_symmetry_space_group_name_H-M   'P 1'
_cell_length_a   18.07948350
_cell_length_b   18.07635652
_cell_length_c   19.70756749
_cell_angle_alpha   107.55417541
_cell_angle_beta   107.58336884
_cell_angle_gamma   90.75019010
_symmetry_Int_Tables_number   1
_chemical_formula_structural   Na31Fe20(SO4)36
_chemical_formula_sum   'Na62 Fe40 S72 O288'
_cell_volume   5815.21950490
_cell_formula_units_Z   2
loop_
 _symmetry_equiv_pos_site_id
 _symmetry_equiv_pos_as_xyz
  1  'x, y, z'
loop_
 _atom_site_type_symbol
 _atom_site_label
 _atom_site_symmetry_multiplicity
 _atom_site_fract_x
 _atom_site_fract_y
 _atom_site_fract_z
 _atom_site_occupancy
  Na  Na0  1  0.13949486  0.36077551  0.08529202  1
  Na  Na1  1  0.13052063  0.37293922  0.41529991  1
  Na  Na2  1  0.13059891  0.37348552  0.75199244  1
  Na  Na3  1  0.13335609  0.87089659  0.08910651  1
  Na  Na4  1  0.13811509  0.86551678  0.41944373  1
  Na  Na5  1  0.13260723  0.85663479  0.75056826  1
  Na  Na6  1  0.64746654  0.35950817  0.09441849  1
  Na  Na7  1  0.63024963  0.35604220  0.40572357  1
  Na  Na8  1  0.63541850  0.36692827  0.75193174  1
  Na  Na9  1  0.62970346  0.86214084  0.07495299  1
  Na  Na10  1  0.63632556  0.87208757  0.41737930  1
  Na  Na11  1  0.63977426  0.86334669  0.75078228  1
  Na  Na12  1  0.36057079  0.12413343  0.24504639  1
  Na  Na13  1  0.36348874  0.13755313  0.58410513  1
  Na  Na14  1  0.36311726  0.13897379  0.92225358  1
  Na  Na15  1  0.35658583  0.63921675  0.24734431  1
  Na  Na16  1  0.36253684  0.64035197  0.57849760  1
  Na  Na17  1  0.37582835  0.63633825  0.91986737  1
  Na  Na18  1  0.82526866  0.14031516  0.22890896  1
  Na  Na19  1  0.85150912  0.12464422  0.56481159  1
  Na  Na20  1  0.87607615  0.14159817  0.93525018  1
  Na  Na21  1  0.86951036  0.62954802  0.25317519  1
  Na  Na22  1  0.88416301  0.63420449  0.59878749  1
  Na  Na23  1  0.87152507  0.64713415  0.92601009  1
  Na  Na24  1  0.98959448  0.02303315  0.38297290  1
  Na  Na25  1  0.49158525  0.00880104  0.08762515  1
  Na  Na26  1  0.45397674  0.01271588  0.39863945  1
  Na  Na27  1  1.00499124  -0.02038047  0.76355893  1
  Na  Na28  1  0.97351851  0.00432045  0.10894739  1
  Na  Na29  1  0.48997771  0.00960658  0.75561249  1
  Na  Na30  1  1.00325551  0.49186171  0.07589390  1
  Na  Na31  1  0.49857341  0.50276274  0.07839644  1
  Na  Na32  1  0.49473558  0.54941237  0.78046054  1
  Na  Na33  1  0.00966259  0.99196139  0.58060900  1
  Na  Na34  1  0.00418379  0.95270417  0.91994635  1
  Na  Na35  1  0.51058250  0.49814739  0.57395513  1
  Na  Na36  1  -0.01273955  0.54615685  0.85557871  1
  Na  Na37  1  0.51140150  0.98872461  0.58110466  1
  Na  Na38  1  0.54287572  0.98351685  0.93282343  1
  Na  Na39  1  0.53332820  0.98716926  0.26492054  1
  Na  Na40  1  0.46212251  0.51290388  0.29937267  1
  Na  Na41  1  0.00800085  0.45336779  0.24447112  1
  Na  Na42  1  0.24984197  0.25205600  0.67001597  1
  Na  Na43  1  0.75243031  0.74899563  0.33110176  1
  Na  Na44  1  0.76475901  0.75531363  0.66733588  1
  Na  Na45  1  0.74666181  0.23470859  0.02759141  1
  Na  Na46  1  0.75592325  0.25272759  0.65922570  1
  Na  Na47  1  0.24835082  0.74972295  0.66270302  1
  Na  Na48  1  0.25719889  0.26336943  0.32490486  1
  Na  Na49  1  0.24006812  0.74386146  0.34608727  1
  Na  Na50  1  0.73565151  0.73855946  -0.00181883  1
  Na  Na51  1  0.23169588  0.74178868  -0.00009143  1
  Na  Na52  1  0.25151076  0.75979597  0.16979964  1
  Na  Na53  1  0.26554934  0.26505961  0.15689414  1
  Na  Na54  1  0.75625893  0.75093659  0.50056916  1
  Na  Na55  1  0.74661915  0.74859656  0.16564394  1
  Na  Na56  1  0.25969948  0.26273808  0.49746078  1
  Na  Na57  1  0.75257814  0.24651170  0.84274685  1
  Na  Na58  1  0.75157405  0.74750189  0.83419358  1
  Na  Na59  1  0.24238886  0.24317685  0.84399282  1
  Na  Na60  1  0.75627377  0.25076761  0.47678046  1
  Na  Na61  1  0.23564403  0.74023964  0.83845804  1
  Fe  Fe62  1  0.46455892  0.80429617  0.11479390  1
  Fe  Fe63  1  0.46379484  0.31013588  0.12194469  1
  Fe  Fe64  1  0.96228010  0.80910917  0.12382142  1
  Fe  Fe65  1  0.96520427  0.80336233  0.45204280  1
  Fe  Fe66  1  0.46953935  0.80112419  0.78626221  1
  Fe  Fe67  1  0.46312037  0.30964655  0.45143915  1
  Fe  Fe68  1  0.46730453  0.31368070  0.79117844  1
  Fe  Fe69  1  0.96579294  0.30944352  0.45171313  1
  Fe  Fe70  1  0.46479145  0.80789588  0.44861817  1
  Fe  Fe71  1  0.96507315  0.31041483  0.78750141  1
  Fe  Fe72  1  0.68886709  0.53333847  0.04419386  1
  Fe  Fe73  1  0.69199856  0.03834375  0.71734004  1
  Fe  Fe74  1  0.19721458  0.03241279  0.37438880  1
  Fe  Fe75  1  0.19586783  0.03371490  0.04916208  1
  Fe  Fe76  1  0.19269773  0.53375151  0.04442954  1
  Fe  Fe77  1  0.69410406  0.53097763  0.37960713  1
  Fe  Fe78  1  0.18889305  0.53584166  0.70878840  1
  Fe  Fe79  1  0.20052763  0.53177830  0.37556767  1
  Fe  Fe80  1  0.69241884  0.53495635  0.71555217  1
  Fe  Fe81  1  0.19614752  0.03295035  0.71572261  1
  Fe  Fe82  1  0.03029628  0.19955571  0.20719345  1
  Fe  Fe83  1  0.03342912  0.69271418  0.21401273  1
  Fe  Fe84  1  0.53504019  0.69021067  0.54306691  1
  Fe  Fe85  1  0.53467709  0.19500071  0.88835335  1
  Fe  Fe86  1  0.53538839  0.68986970  0.21189152  1
  Fe  Fe87  1  0.53437653  0.19284762  0.54912113  1
  Fe  Fe88  1  0.53885304  0.19080275  0.21948680  1
  Fe  Fe89  1  0.03750528  0.19275115  0.54482211  1
  Fe  Fe90  1  0.03857880  0.68530417  0.54166446  1
  Fe  Fe91  1  0.03505021  0.19393701  0.88272362  1
  Fe  Fe92  1  0.79783315  0.96967866  0.96039684  1
  Fe  Fe93  1  0.80602084  0.96706213  0.62160719  1
  Fe  Fe94  1  0.30881000  0.96655658  0.95235564  1
  Fe  Fe95  1  0.81189929  0.45702710  0.28668486  1
  Fe  Fe96  1  0.80876675  0.46489124  0.61940873  1
  Fe  Fe97  1  0.30883943  0.46304114  0.95114473  1
  Fe  Fe98  1  0.30938364  0.96301722  0.61734389  1
  Fe  Fe99  1  0.30877866  0.46822932  0.62070285  1
  Fe  Fe100  1  0.79122618  0.97236249  0.28847666  1
  Fe  Fe101  1  0.81097809  0.46308934  0.95531908  1
  S  S102  1  0.36118234  0.13933677  0.08494122  1
  S  S103  1  0.35582778  0.14781636  0.42190146  1
  S  S104  1  0.36130273  0.14120023  0.75037132  1
  S  S105  1  0.36040770  0.63959077  0.08235919  1
  S  S106  1  0.36245733  0.64361384  0.41228045  1
  S  S107  1  0.35637109  0.64355375  0.74875508  1
  S  S108  1  0.86246396  0.13913723  0.08519976  1
  S  S109  1  0.86565306  0.13829670  0.41701997  1
  S  S110  1  0.86004877  0.14219349  0.74996697  1
  S  S111  1  0.85947522  0.64024072  0.08262669  1
  S  S112  1  0.85911931  0.63619725  0.41608434  1
  S  S113  1  0.85546677  0.63803647  0.74996858  1
  S  S114  1  0.14320877  0.35656502  0.24882085  1
  S  S115  1  0.14254761  0.35873844  0.58477218  1
  S  S116  1  0.14009023  0.35944179  0.91420519  1
  S  S117  1  0.13738342  0.86038926  0.25292469  1
  S  S118  1  0.14045951  0.86100012  0.58174637  1
  S  S119  1  0.14335789  0.86390246  0.91384920  1
  S  S120  1  0.63953533  0.35952237  0.25036228  1
  S  S121  1  0.64035715  0.36029711  0.58372036  1
  S  S122  1  0.64367872  0.35581227  0.92064697  1
  S  S123  1  0.63930714  0.85228294  0.24703988  1
  S  S124  1  0.63862632  0.85994542  0.58433845  1
  S  S125  1  0.64380466  0.85274997  0.90842713  1
  S  S126  1  0.07294908  0.16693862  0.04288429  1
  S  S127  1  0.07627010  0.17778783  0.37592993  1
  S  S128  1  0.06834989  0.16740455  0.70717628  1
  S  S129  1  0.06624867  0.66985332  0.04442780  1
  S  S130  1  0.07019813  0.66876148  0.37496105  1
  S  S131  1  0.07298678  0.67021207  0.70437605  1
  S  S132  1  0.55857280  0.16882954  0.04371884  1
  S  S133  1  0.55520383  0.16678043  0.38048059  1
  S  S134  1  0.56468412  0.17045925  0.71244028  1
  S  S135  1  0.56483083  0.66600328  0.04129651  1
  S  S136  1  0.57152664  0.67178312  0.37658549  1
  S  S137  1  0.56431857  0.66706532  0.70487982  1
  S  S138  1  0.33432645  0.43902060  0.12369875  1
  S  S139  1  0.33231454  0.43737229  0.46107122  1
  S  S140  1  0.33073483  0.43467076  0.78963892  1
  S  S141  1  0.33155336  0.93139429  0.12365565  1
  S  S142  1  0.33364353  0.93692739  0.45871388  1
  S  S143  1  0.33459094  0.93472255  0.79021990  1
  S  S144  1  0.83266318  0.43897003  0.12297553  1
  S  S145  1  0.82604577  0.42938992  0.45676635  1
  S  S146  1  0.82793764  0.43092611  0.79028583  1
  S  S147  1  0.82004093  0.92544829  0.12469043  1
  S  S148  1  0.83027991  0.92769414  0.45775303  1
  S  S149  1  0.82823018  0.94012904  0.79433784  1
  S  S150  1  0.43110389  0.32236091  0.28717881  1
  S  S151  1  0.43622150  0.33455425  0.62878548  1
  S  S152  1  0.43477337  0.33084378  0.95758217  1
  S  S153  1  0.44038346  0.83044373  0.28801614  1
  S  S154  1  0.43473120  0.83180628  0.62499756  1
  S  S155  1  0.43193542  0.83407770  0.95439613  1
  S  S156  1  0.93279079  0.32539817  0.29115021  1
  S  S157  1  0.92900022  0.32256392  0.61979606  1
  S  S158  1  0.93784298  0.33121732  0.95648567  1
  S  S159  1  0.92562596  0.82922558  0.29202842  1
  S  S160  1  0.93545965  0.83530487  0.62435218  1
  S  S161  1  0.92616004  0.83829694  0.96499662  1
  S  S162  1  0.16614387  0.07456156  0.20874498  1
  S  S163  1  0.17298050  0.06794498  0.54250448  1
  S  S164  1  0.17042107  0.06834422  0.87334201  1
  S  S165  1  0.16669391  0.56858591  0.20692081  1
  S  S166  1  0.17553877  0.56630690  0.53986777  1
  S  S167  1  0.18101659  0.57070918  0.87973969  1
  S  S168  1  0.65095155  0.05680872  0.20421085  1
  S  S169  1  0.66380539  0.06453725  0.54582279  1
  S  S170  1  0.66728804  0.06830826  0.87675207  1
  S  S171  1  0.67051667  0.56494402  0.20810080  1
  S  S172  1  0.67186782  0.56722167  0.54246779  1
  S  S173  1  0.67637145  0.56330172  0.87932970  1
  O  O174  1  0.36845324  0.21916057  0.07934449  1
  O  O175  1  0.36082310  0.23123651  0.42265145  1
  O  O176  1  0.37121945  0.21988591  0.74222749  1
  O  O177  1  0.36843685  0.71706540  0.07057615  1
  O  O178  1  0.37076535  0.72522058  0.40686297  1
  O  O179  1  0.36716539  0.72193200  0.73908178  1
  O  O180  1  0.87607406  0.21009542  0.06792735  1
  O  O181  1  0.87562538  0.21876434  0.41363420  1
  O  O182  1  0.86983987  0.22070140  0.74099892  1
  O  O183  1  0.86909728  0.71790951  0.07176771  1
  O  O184  1  0.86832824  0.71422295  0.40488007  1
  O  O185  1  0.86627577  0.71301171  0.73869698  1
  O  O186  1  0.28371814  0.12813257  0.09554019  1
  O  O187  1  0.27846059  0.13368320  0.43172290  1
  O  O188  1  0.28117045  0.13208486  0.75603915  1
  O  O189  1  0.28035221  0.63189800  0.08879130  1
  O  O190  1  0.28185938  0.63256252  0.41496859  1
  O  O191  1  0.27434887  0.63440898  0.74957799  1
  O  O192  1  0.78833060  0.13224831  0.09873273  1
  O  O193  1  0.79548160  0.12821988  0.43687362  1
  O  O194  1  0.78143230  0.13555727  0.75971607  1
  O  O195  1  0.77824336  0.63229021  0.08601971  1
  O  O196  1  0.77900472  0.62955232  0.42317912  1
  O  O197  1  0.77174911  0.62878191  0.75209677  1
  O  O198  1  0.12385995  0.27811782  0.25897458  1
  O  O199  1  0.13273792  0.27858652  0.59180080  1
  O  O200  1  0.13028759  0.27924170  0.91850535  1
  O  O201  1  0.12458908  0.78238171  0.26415096  1
  O  O202  1  0.13014208  0.78209346  0.58804796  1
  O  O203  1  0.13832095  0.78495560  0.91815329  1
  O  O204  1  0.63093400  0.28313219  0.26230846  1
  O  O205  1  0.62950831  0.28247468  0.59408900  1
  O  O206  1  0.63387436  0.27674114  0.92905406  1
  O  O207  1  0.63497194  0.77039916  0.25126469  1
  O  O208  1  0.63056118  0.78080569  0.59229224  1
  O  O209  1  0.64354438  0.77144541  0.90636195  1
  O  O210  1  0.22308011  0.35607795  0.24633703  1
  O  O211  1  0.22325103  0.36752297  0.57976911  1
  O  O212  1  0.21821402  0.36828934  0.90394809  1
  O  O213  1  0.21288849  0.86673400  0.24167987  1
  O  O214  1  0.21879853  0.87203593  0.57418607  1
  O  O215  1  0.22191414  0.87760900  0.90292577  1
  O  O216  1  0.71669172  0.37073457  0.23994840  1
  O  O217  1  0.72053851  0.36682872  0.57800735  1
  O  O218  1  0.72333557  0.36421976  0.91396094  1
  O  O219  1  0.71927908  0.86525846  0.24230456  1
  O  O220  1  0.71846863  0.86996963  0.57809176  1
  O  O221  1  0.72038243  0.87472606  0.89761728  1
  O  O222  1  0.42237821  0.12720971  0.14941269  1
  O  O223  1  0.41666731  0.13725562  0.48900965  1
  O  O224  1  0.41896928  0.13250129  0.81890543  1
  O  O225  1  0.41745631  0.63507504  0.15296463  1
  O  O226  1  0.41851159  0.63943112  0.48412978  1
  O  O227  1  0.41112200  0.63692854  0.81768420  1
  O  O228  1  0.92721989  0.13196904  0.15361956  1
  O  O229  1  0.93453435  0.12216464  0.47579202  1
  O  O230  1  0.91970509  0.13349512  0.81721680  1
  O  O231  1  0.91509666  0.63619531  0.15408687  1
  O  O232  1  0.91703806  0.63261821  0.48575079  1
  O  O233  1  0.90750132  0.63065139  0.81998195  1
  O  O234  1  0.36653866  0.08178829  0.01435542  1
  O  O235  1  0.36460970  0.09523362  0.35323320  1
  O  O236  1  0.37092440  0.08132023  0.68329726  1
  O  O237  1  0.37260042  0.57839915  0.01802288  1
  O  O238  1  0.37646837  0.58843228  0.34742429  1
  O  O239  1  0.36816637  0.58367066  0.68213978  1
  O  O240  1  0.86911788  0.07097396  0.02012950  1
  O  O241  1  0.86483172  0.08149679  0.34321994  1
  O  O242  1  0.86517507  0.08273086  0.68072203  1
  O  O243  1  0.87242672  0.57959873  0.01837488  1
  O  O244  1  0.86612628  0.57556004  0.34901877  1
  O  O245  1  0.86407118  0.57444408  0.68366750  1
  O  O246  1  0.08670644  0.36731010  0.18243660  1
  O  O247  1  0.08510896  0.36563382  0.51619813  1
  O  O248  1  0.08066935  0.36984266  0.84713904  1
  O  O249  1  0.07475586  0.86811851  0.18657419  1
  O  O250  1  0.08023921  0.87143596  0.51503767  1
  O  O251  1  0.08298937  0.87931116  0.85201266  1
  O  O252  1  0.57924039  0.36635077  0.18205310  1
  O  O253  1  0.58294903  0.36858405  0.51502589  1
  O  O254  1  0.58667739  0.36161172  0.85046097  1
  O  O255  1  0.58161607  0.85839152  0.17700538  1
  O  O256  1  0.58023424  0.86776666  0.51558129  1
  O  O257  1  0.58176807  0.86454956  0.84229085  1
  O  O258  1  0.13595321  0.41737465  0.31764146  1
  O  O259  1  0.13529183  0.41618529  0.65334623  1
  O  O260  1  0.13437077  0.41707063  0.98373731  1
  O  O261  1  0.13245659  0.92058113  0.32250374  1
  O  O262  1  0.13240850  0.92010118  0.65066555  1
  O  O263  1  0.13941602  0.92074789  0.98699730  1
  O  O264  1  0.63121673  0.42089128  0.31762112  1
  O  O265  1  0.63083473  0.42099678  0.65043946  1
  O  O266  1  0.63380313  0.41462317  0.98733272  1
  O  O267  1  0.62657259  0.90707797  0.31284615  1
  O  O268  1  0.62785770  0.91901283  0.65103837  1
  O  O269  1  0.63437195  0.90551108  0.97719712  1
  O  O270  1  0.03776725  0.19066184  0.10419670  1
  O  O271  1  0.03530919  0.20541433  0.43386256  1
  O  O272  1  0.03212728  0.19661714  0.76775909  1
  O  O273  1  0.03199357  0.70151813  0.10803719  1
  O  O274  1  0.03122793  0.69669380  0.43538628  1
  O  O275  1  0.03909944  0.69124420  0.76371007  1
  O  O276  1  0.52723943  0.20753623  0.10728906  1
  O  O277  1  0.52135925  0.20858285  0.44313982  1
  O  O278  1  0.53051424  0.20032041  0.77472802  1
  O  O279  1  0.52964958  0.69805336  0.10444201  1
  O  O280  1  0.53530904  0.70351254  0.43771431  1
  O  O281  1  0.52499911  0.69413164  0.76188849  1
  O  O282  1  0.29759315  0.46863584  0.05729230  1
  O  O283  1  0.30584605  0.47453833  0.40276800  1
  O  O284  1  0.29981179  0.47296705  0.72998589  1
  O  O285  1  0.30154411  0.96519600  0.05929834  1
  O  O286  1  0.30586625  0.97582342  0.40135348  1
  O  O287  1  0.30332640  0.97151973  0.72847742  1
  O  O288  1  0.79373763  0.47611413  0.06301778  1
  O  O289  1  0.79696528  0.46604536  0.39490985  1
  O  O290  1  0.79415563  0.46480874  0.72819153  1
  O  O291  1  0.79623761  0.95883187  0.06247626  1
  O  O292  1  0.80508152  0.95903809  0.39514619  1
  O  O293  1  0.79365849  0.97641945  0.73255783  1
  O  O294  1  0.47142793  0.28918931  0.22867442  1
  O  O295  1  0.47198585  0.30425622  0.56757420  1
  O  O296  1  0.47174306  0.30076111  0.89624936  1
  O  O297  1  0.47463947  0.79248152  0.22603548  1
  O  O298  1  0.46930218  0.80288910  0.56264996  1
  O  O299  1  0.46831068  0.81293851  0.89465428  1
  O  O300  1  0.97017390  0.29465040  0.23112278  1
  O  O301  1  0.97062681  0.29560138  0.56231846  1
  O  O302  1  0.96908506  0.29862344  0.89045370  1
  O  O303  1  0.96152783  0.79907253  0.23088356  1
  O  O304  1  0.96596994  0.80283308  0.55892731  1
  O  O305  1  0.96042085  0.82235772  0.90546422  1
  O  O306  1  0.18575201  0.04004033  0.26955961  1
  O  O307  1  0.20226960  0.03095734  0.60342570  1
  O  O308  1  0.20268855  0.03752684  0.93733783  1
  O  O309  1  0.19066728  0.53349053  0.26717745  1
  O  O310  1  0.20182055  0.52456960  0.59799475  1
  O  O311  1  0.21064688  0.52862944  0.93775297  1
  O  O312  1  0.68892704  0.02955347  0.26974887  1
  O  O313  1  0.69874131  0.03299799  0.61171032  1
  O  O314  1  0.69696674  0.03221143  0.93632126  1
  O  O315  1  0.70035550  0.53189674  0.27083639  1
  O  O316  1  0.70036008  0.52869925  0.60205764  1
  O  O317  1  0.70916820  0.52274400  0.93791531  1
  O  O318  1  0.08843328  0.08315767  0.02837317  1
  O  O319  1  0.09362867  0.09658796  0.37341089  1
  O  O320  1  0.08781325  0.08551193  0.70214850  1
  O  O321  1  0.09073106  0.59081561  0.04524442  1
  O  O322  1  0.09177474  0.58909739  0.36948079  1
  O  O323  1  0.09250570  0.58756927  0.68791042  1
  O  O324  1  0.56371502  0.08647839  0.03866342  1
  O  O325  1  0.55749998  0.08535136  0.37981146  1
  O  O326  1  0.57837789  0.08662418  0.70484947  1
  O  O327  1  0.58766477  0.58670096  0.04501951  1
  O  O328  1  0.58996523  0.59124968  0.37403251  1
  O  O329  1  0.58230957  0.58445685  0.70022903  1
  O  O330  1  0.41212735  0.41346557  0.11775266  1
  O  O331  1  0.41307279  0.41388209  0.46616815  1
  O  O332  1  0.41092050  0.41555409  0.79052643  1
  O  O333  1  0.41297891  0.91057192  0.12565088  1
  O  O334  1  0.41623980  0.91827987  0.46211691  1
  O  O335  1  0.41717419  0.92034137  0.79546605  1
  O  O336  1  0.91457788  0.43443224  0.12553740  1
  O  O337  1  0.90423213  0.40623956  0.45836984  1
  O  O338  1  0.90930944  0.41481049  0.79237274  1
  O  O339  1  0.90432574  0.91186067  0.13991797  1
  O  O340  1  0.91382678  0.91101230  0.47075969  1
  O  O341  1  0.91108648  0.93475231  0.80207537  1
  O  O342  1  0.40568740  0.39657520  0.28134486  1
  O  O343  1  0.41953762  0.41642140  0.63439072  1
  O  O344  1  0.41593394  0.41175965  0.96067837  1
  O  O345  1  0.43354934  0.91205828  0.29143888  1
  O  O346  1  0.42195395  0.91659456  0.63332623  1
  O  O347  1  0.41736502  0.91898369  0.96875605  1
  O  O348  1  0.91382654  0.40559470  0.28844893  1
  O  O349  1  0.90619597  0.40094250  0.62249377  1
  O  O350  1  0.91220184  0.41006411  0.95518499  1
  O  O351  1  0.90468500  0.90919230  0.29738839  1
  O  O352  1  0.91428649  0.91705761  0.62682686  1
  O  O353  1  0.90401300  0.92185796  0.98055346  1
  O  O354  1  0.08385744  0.09730468  0.19561268  1
  O  O355  1  0.08961417  0.08189269  0.53460413  1
  O  O356  1  0.08870269  0.08683638  0.86768907  1
  O  O357  1  0.08265480  0.58472603  0.19364389  1
  O  O358  1  0.09491661  0.58455997  0.53254179  1
  O  O359  1  0.10744216  0.59837910  0.88494899  1
  O  O360  1  0.57119138  0.08013826  0.21212708  1
  O  O361  1  0.58324152  0.08508727  0.54814447  1
  O  O362  1  0.58458356  0.08525637  0.87332322  1
  O  O363  1  0.58893016  0.58433241  0.20234029  1
  O  O364  1  0.59067489  0.58570325  0.53922635  1
  O  O365  1  0.60056741  0.58556338  0.88319770  1
  O  O366  1  0.14395569  0.21913670  0.06042485  1
  O  O367  1  0.14773342  0.23087804  0.39611845  1
  O  O368  1  0.13963365  0.22014533  0.72362011  1
  O  O369  1  0.13591853  0.72487265  0.05987635  1
  O  O370  1  0.13731107  0.72565323  0.39186427  1
  O  O371  1  0.14505058  0.72365630  0.72006947  1
  O  O372  1  0.63237260  0.21320798  0.05478643  1
  O  O373  1  0.63139768  0.20971497  0.39656362  1
  O  O374  1  0.63807429  0.21893568  0.72801153  1
  O  O375  1  0.63631782  0.71881768  0.05787477  1
  O  O376  1  0.64192835  0.72448231  0.39147852  1
  O  O377  1  0.63593416  0.71856745  0.72085245  1
  O  O378  1  0.28206036  0.37266059  0.11695074  1
  O  O379  1  0.27776190  0.36819866  0.44690902  1
  O  O380  1  0.27790393  0.36360265  0.77333430  1
  O  O381  1  0.27905640  0.85957635  0.10690187  1
  O  O382  1  0.28237370  0.86657602  0.44462130  1
  O  O383  1  0.28408949  0.86261240  0.77271258  1
  O  O384  1  0.78726625  0.36343556  0.10485240  1
  O  O385  1  0.76966361  0.36262121  0.44315900  1
  O  O386  1  0.77799043  0.35842210  0.77614524  1
  O  O387  1  0.77064990  0.85111397  0.10599573  1
  O  O388  1  0.77915753  0.85548533  0.44307749  1
  O  O389  1  0.78186098  0.86368951  0.77276504  1
  O  O390  1  0.36456943  0.26477517  0.27373523  1
  O  O391  1  0.36418622  0.28310912  0.61289795  1
  O  O392  1  0.36444086  0.27810955  0.94072083  1
  O  O393  1  0.36549601  0.78440171  0.27276947  1
  O  O394  1  0.36188780  0.78455288  0.61029072  1
  O  O395  1  0.35935497  0.78334374  0.93594178  1
  O  O396  1  0.86401418  0.27517004  0.28029600  1
  O  O397  1  0.85956692  0.26565421  0.60002440  1
  O  O398  1  0.86992096  0.27692488  0.94419006  1
  O  O399  1  0.85668696  0.77392460  0.27711198  1
  O  O400  1  0.86440533  0.78382483  0.61127893  1
  O  O401  1  0.85635387  0.78351764  0.94879140  1
  O  O402  1  0.22159018  0.14316146  0.22523305  1
  O  O403  1  0.22288727  0.14179177  0.56236391  1
  O  O404  1  0.22176130  0.13643688  0.88169031  1
  O  O405  1  0.21756232  0.64197510  0.22504525  1
  O  O406  1  0.22990082  0.63727046  0.56190446  1
  O  O407  1  0.24077278  0.63687658  0.89656076  1
  O  O408  1  0.69538053  0.12558258  0.20609145  1
  O  O409  1  0.71404777  0.13606257  0.55907650  1
  O  O410  1  0.71773091  0.13994145  0.89102452  1
  O  O411  1  0.72333178  0.63496728  0.22137749  1
  O  O412  1  0.72405487  0.63878974  0.55938911  1
  O  O413  1  0.73332913  0.63076050  0.89438291  1
  O  O414  1  0.49475070  0.33501232  0.02993118  1
  O  O415  1  0.49055333  0.33251320  0.36263998  1
  O  O416  1  0.49530978  0.33465777  0.70086997  1
  O  O417  1  0.49005503  0.82932790  0.02540119  1
  O  O418  1  0.49704164  0.82796210  0.36091677  1
  O  O419  1  0.49479317  0.83139561  0.69633467  1
  O  O420  1  1.00171919  0.34271982  0.02605902  1
  O  O421  1  0.99382684  0.33623744  0.36574138  1
  O  O422  1  0.98664732  0.32561571  0.69376389  1
  O  O423  1  0.98620995  0.83903247  0.03807812  1
  O  O424  1  0.98703439  0.83182065  0.36420153  1
  O  O425  1  0.99729390  0.84317687  0.69460246  1
  O  O426  1  0.16564893  0.01258429  0.13798536  1
  O  O427  1  0.17512998  0.01139796  0.47068868  1
  O  O428  1  0.16458959  0.00413474  0.80134128  1
  O  O429  1  0.17041674  0.50973889  0.13590854  1
  O  O430  1  0.17744227  0.50973640  0.46757310  1
  O  O431  1  0.17254031  0.51265653  0.80452681  1
  O  O432  1  0.63131723  -0.00851281  0.13335620  1
  O  O433  1  0.65748700  0.00316558  0.47665221  1
  O  O434  1  0.66012879  0.01007100  0.80134844  1
  O  O435  1  0.66623019  0.50375945  0.13603097  1
  O  O436  1  0.66898864  0.50875845  0.46971354  1
  O  O437  1  0.66841105  0.50487755  0.80380570  1
  O  O438  1  0.02061290  0.17641411  0.30207614  1
  O  O439  1  0.00979064  0.16267024  0.63348886  1
  O  O440  1  0.01263295  0.17127983  0.97261447  1
  O  O441  1  0.00866189  0.66574303  0.30271432  1
  O  O442  1  0.01501365  0.67414321  0.63163561  1
  O  O443  1  0.00561547  0.66158110  0.97332969  1
  O  O444  1  0.50005124  0.17053320  0.30836594  1
  O  O445  1  0.50558078  0.17134649  0.64099745  1
  O  O446  1  0.49920597  0.17176224  0.97153758  1
  O  O447  1  0.51123940  0.66637825  0.30363644  1
  O  O448  1  0.50722622  0.66186926  0.62925903  1
  O  O449  1  0.50637499  0.65949967  0.97047306  1
  O  O450  1  0.34902100  0.50470813  0.19307957  1
  O  O451  1  0.34113326  0.49594264  0.53691729  1
  O  O452  1  0.33533790  0.49202961  0.86338844  1
  O  O453  1  0.33503907  0.99129020  0.19318130  1
  O  O454  1  0.34177136  0.99460149  0.53525644  1
  O  O455  1  0.33406472  0.99385707  0.86164724  1
  O  O456  1  0.83017229  0.49257624  0.19703046  1
  O  O457  1  0.83184811  0.49141004  0.52899858  1
  O  O458  1  0.83189146  0.49049155  0.86268376  1
  O  O459  1  0.81177277  0.98449510  0.19279974  1
  O  O460  1  0.82714200  0.98825410  0.52814522  1
  O  O461  1  0.82114291  0.99345904  0.86635667  1
