# generated using pymatgen
data_Na31Fe20(SO4)36
_symmetry_space_group_name_H-M   'P 1'
_cell_length_a   18.07693317
_cell_length_b   18.07357042
_cell_length_c   19.69861900
_cell_angle_alpha   107.59289432
_cell_angle_beta   107.60129458
_cell_angle_gamma   90.72554474
_symmetry_Int_Tables_number   1
_chemical_formula_structural   Na31Fe20(SO4)36
_chemical_formula_sum   'Na62 Fe40 S72 O288'
_cell_volume   5809.12718771
_cell_formula_units_Z   2
loop_
 _symmetry_equiv_pos_site_id
 _symmetry_equiv_pos_as_xyz
  1  'x, y, z'
loop_
 _atom_site_type_symbol
 _atom_site_label
 _atom_site_symmetry_multiplicity
 _atom_site_fract_x
 _atom_site_fract_y
 _atom_site_fract_z
 _atom_site_occupancy
  Na  Na0  1  0.12983719  0.35881266  0.08015425  1
  Na  Na1  1  0.14743298  0.36065477  0.42973330  1
  Na  Na2  1  0.13738872  0.36216723  0.73913361  1
  Na  Na3  1  0.14602265  0.86714916  0.08393612  1
  Na  Na4  1  0.12688211  0.87223412  0.41858187  1
  Na  Na5  1  0.13937149  0.87471005  0.75646708  1
  Na  Na6  1  0.63175068  0.35855059  0.07882338  1
  Na  Na7  1  0.63147937  0.36083436  0.41727389  1
  Na  Na8  1  0.62326271  0.35563443  0.73221283  1
  Na  Na9  1  0.63503210  0.87217150  0.08833592  1
  Na  Na10  1  0.66154522  0.86303187  0.43837400  1
  Na  Na11  1  0.63172419  0.86203290  0.74231178  1
  Na  Na12  1  0.37710908  0.14237004  0.26450615  1
  Na  Na13  1  0.35740925  0.14954266  0.57703798  1
  Na  Na14  1  0.36279628  0.14170434  0.92909925  1
  Na  Na15  1  0.36822782  0.62273969  0.24499887  1
  Na  Na16  1  0.36068901  0.63705601  0.58793504  1
  Na  Na17  1  0.34890651  0.63014708  0.90200455  1
  Na  Na18  1  0.87458781  0.13077686  0.25523721  1
  Na  Na19  1  0.87244539  0.13850147  0.58437279  1
  Na  Na20  1  0.86780880  0.12789114  0.91367745  1
  Na  Na21  1  0.86737189  0.63606110  0.25744955  1
  Na  Na22  1  0.86038852  0.64314632  0.57663936  1
  Na  Na23  1  0.86151250  0.63505726  0.91431669  1
  Na  Na24  1  1.02235692  0.49217625  0.74276629  1
  Na  Na25  1  0.99682319  0.50740515  0.40583439  1
  Na  Na26  1  0.49977443  0.49305232  0.40753645  1
  Na  Na27  1  0.48157218  0.50978886  0.75232965  1
  Na  Na28  1  0.51224111  0.45813863  0.14455946  1
  Na  Na29  1  0.49622178  0.01104778  0.73913192  1
  Na  Na30  1  0.99079967  0.50307045  0.10009228  1
  Na  Na31  1  0.45023481  0.00277604  0.08361310  1
  Na  Na32  1  1.01677359  -0.00429927  0.08585472  1
  Na  Na33  1  0.49778858  0.98793009  0.28435643  1
  Na  Na34  1  0.47708167  1.00796140  0.92707022  1
  Na  Na35  1  -0.00927908  1.01428559  0.58398149  1
  Na  Na36  1  0.48729171  1.04217518  0.52899163  1
  Na  Na37  1  0.00767167  0.48838076  0.91606517  1
  Na  Na38  1  0.03402849  0.49971024  0.58574167  1
  Na  Na39  1  0.49677928  0.43371792  0.56268430  1
  Na  Na40  1  0.06363307  0.99834339  0.92360410  1
  Na  Na41  1  0.49636331  0.49595319  0.93279358  1
  Na  Na42  1  0.26259364  0.76843000  -0.01262579  1
  Na  Na43  1  0.24512745  0.23564149  0.01125690  1
  Na  Na44  1  0.25254294  0.23948858  0.35194923  1
  Na  Na45  1  0.24360623  0.25196126  0.65356325  1
  Na  Na46  1  0.73584349  0.23486383  0.66682832  1
  Na  Na47  1  0.76016424  0.77288005  0.64418341  1
  Na  Na48  1  0.74992383  0.74966674  0.00215092  1
  Na  Na49  1  0.24668748  0.74579246  0.33537878  1
  Na  Na50  1  0.74956292  0.24625320  0.34091066  1
  Na  Na51  1  0.74775909  0.24622369  0.00108091  1
  Na  Na52  1  0.24996097  0.23072816  0.17466874  1
  Na  Na53  1  0.24215679  0.74426974  0.50779575  1
  Na  Na54  1  0.25663184  0.76314444  0.81428553  1
  Na  Na55  1  0.25320372  0.75116069  0.16256919  1
  Na  Na56  1  0.75629806  0.76068004  0.82475413  1
  Na  Na57  1  0.25000089  0.24829596  0.83447524  1
  Na  Na58  1  0.74874829  0.24823339  0.83197229  1
  Na  Na59  1  0.73937463  0.74162230  0.18281463  1
  Na  Na60  1  0.74093970  0.24132680  0.50824652  1
  Na  Na61  1  0.74551148  0.24194429  0.17314550  1
  Fe  Fe62  1  0.95861366  0.81267449  0.45437337  1
  Fe  Fe63  1  0.46332762  0.81061737  0.78612197  1
  Fe  Fe64  1  0.96383308  0.80996512  0.78036811  1
  Fe  Fe65  1  0.46393307  0.30783637  0.78381560  1
  Fe  Fe66  1  0.96600594  0.30900430  0.12357006  1
  Fe  Fe67  1  0.97179321  0.30051932  0.45591525  1
  Fe  Fe68  1  0.96597461  0.81129454  0.12340305  1
  Fe  Fe69  1  0.46900723  0.80296955  0.12132634  1
  Fe  Fe70  1  0.46515187  0.80530593  0.45328079  1
  Fe  Fe71  1  0.96351422  0.30322452  0.77815788  1
  Fe  Fe72  1  0.19042768  0.03544997  0.70909436  1
  Fe  Fe73  1  0.18575838  0.53211148  0.37666273  1
  Fe  Fe74  1  0.69775007  0.03576852  0.38117935  1
  Fe  Fe75  1  0.69669502  0.03043156  0.70287819  1
  Fe  Fe76  1  0.69475348  0.53398974  0.05064065  1
  Fe  Fe77  1  0.18993793  0.53715540  0.05009769  1
  Fe  Fe78  1  0.68920528  0.53609494  0.71317124  1
  Fe  Fe79  1  0.19021845  0.03728508  0.38260951  1
  Fe  Fe80  1  0.69277503  0.53674587  0.38202929  1
  Fe  Fe81  1  0.69165414  0.03425606  0.04416008  1
  Fe  Fe82  1  0.03097543  0.68918169  0.87817353  1
  Fe  Fe83  1  0.03794702  0.18944435  0.21533852  1
  Fe  Fe84  1  0.03439855  0.69464644  0.21652545  1
  Fe  Fe85  1  0.03320827  0.18935117  0.87584118  1
  Fe  Fe86  1  0.53900532  0.69100620  0.22042557  1
  Fe  Fe87  1  0.03509655  0.69600994  0.55160019  1
  Fe  Fe88  1  0.53637052  0.69252686  0.88115527  1
  Fe  Fe89  1  0.53304005  0.19653355  0.88126273  1
  Fe  Fe90  1  0.53069652  0.69049670  0.54703123  1
  Fe  Fe91  1  0.52882997  0.20260628  0.20889442  1
  Fe  Fe92  1  0.30944371  0.46011541  0.28549919  1
  Fe  Fe93  1  0.81435361  0.96451446  0.29056615  1
  Fe  Fe94  1  0.80927753  0.46360420  0.28815694  1
  Fe  Fe95  1  0.80745223  0.47102574  0.61894935  1
  Fe  Fe96  1  0.30433950  0.46353907  0.95373908  1
  Fe  Fe97  1  0.30667752  0.96373888  0.61673390  1
  Fe  Fe98  1  0.29595097  0.47205175  0.62112221  1
  Fe  Fe99  1  0.80816648  0.96650661  0.95425245  1
  Fe  Fe100  1  0.30553188  0.96460700  0.28809602  1
  Fe  Fe101  1  0.80640363  0.46610035  0.95210952  1
  S  S102  1  0.36396624  0.14084819  0.08251634  1
  S  S103  1  0.36301224  0.13296643  0.41483713  1
  S  S104  1  0.36188060  0.13938959  0.74923454  1
  S  S105  1  0.36273051  0.63778079  0.08197403  1
  S  S106  1  0.35662770  0.63977497  0.41383951  1
  S  S107  1  0.36136189  0.64122194  0.75437693  1
  S  S108  1  0.85904525  0.14197289  0.08372126  1
  S  S109  1  0.86177965  0.14075240  0.41578891  1
  S  S110  1  0.85969494  0.14479323  0.75022982  1
  S  S111  1  0.85945265  0.64039015  0.08473299  1
  S  S112  1  0.86224237  0.63820049  0.41574137  1
  S  S113  1  0.85491498  0.64349846  0.75058016  1
  S  S114  1  0.14176487  0.35597676  0.24811138  1
  S  S115  1  0.13586699  0.36883128  0.58693064  1
  S  S116  1  0.13445960  0.36080620  0.91659347  1
  S  S117  1  0.14176931  0.85813880  0.24992649  1
  S  S118  1  0.13929725  0.85781202  0.58152998  1
  S  S119  1  0.13781808  0.85253749  0.91649987  1
  S  S120  1  0.64545664  0.36117628  0.25151395  1
  S  S121  1  0.64550944  0.36274042  0.58369578  1
  S  S122  1  0.64015403  0.36124754  0.91597855  1
  S  S123  1  0.64116040  0.85931109  0.25094304  1
  S  S124  1  0.63445214  0.85811048  0.58356977  1
  S  S125  1  0.64115365  0.85857688  0.91497713  1
  S  S126  1  0.06091728  0.16787615  0.04385074  1
  S  S127  1  0.07117997  0.17281297  0.37416520  1
  S  S128  1  0.06721464  0.17422601  0.70886282  1
  S  S129  1  0.06218917  0.66865991  0.04349197  1
  S  S130  1  0.06631787  0.67033589  0.37574989  1
  S  S131  1  0.05883414  0.66920131  0.71064414  1
  S  S132  1  0.57100042  0.17024960  0.04224687  1
  S  S133  1  0.57777272  0.17313357  0.37178216  1
  S  S134  1  0.56509317  0.16827220  0.70975424  1
  S  S135  1  0.57030087  0.66984802  0.04362405  1
  S  S136  1  0.56622112  0.66540904  0.37671558  1
  S  S137  1  0.56516731  0.66793497  0.71014406  1
  S  S138  1  0.31677831  0.42863354  0.11725765  1
  S  S139  1  0.32771441  0.44284920  0.45570357  1
  S  S140  1  0.33107487  0.43238008  0.79228217  1
  S  S141  1  0.33888676  0.92399892  0.13035452  1
  S  S142  1  0.32858838  0.92806305  0.45674266  1
  S  S143  1  0.33534991  0.94015538  0.79079138  1
  S  S144  1  0.82805706  0.43206542  0.12340606  1
  S  S145  1  0.83665933  0.43626545  0.45997044  1
  S  S146  1  0.82906736  0.43309049  0.79104855  1
  S  S147  1  0.82874810  0.93296575  0.12222194  1
  S  S148  1  0.83789839  0.93991985  0.45837503  1
  S  S149  1  0.82680488  0.93187128  0.79101244  1
  S  S150  1  0.43762275  0.33288681  0.29113694  1
  S  S151  1  0.42165338  0.33831207  0.62799522  1
  S  S152  1  0.43532322  0.33465452  0.95739026  1
  S  S153  1  0.43013959  0.81944724  0.28954108  1
  S  S154  1  0.42965640  0.82795241  0.62311823  1
  S  S155  1  0.43874868  0.82936584  0.95634284  1
  S  S156  1  0.93429943  0.32763952  0.29094034  1
  S  S157  1  0.92955146  0.33838874  0.62558850  1
  S  S158  1  0.93176439  0.33444759  0.96001931  1
  S  S159  1  0.93179700  0.82504698  0.28664951  1
  S  S160  1  0.94029662  0.83607232  0.62437215  1
  S  S161  1  0.93070595  0.82983501  0.95963515  1
  S  S162  1  0.17200476  0.06250939  0.20940502  1
  S  S163  1  0.16792915  0.06196707  0.54432121  1
  S  S164  1  0.17045658  0.07389031  0.87240928  1
  S  S165  1  0.16713890  0.56608526  0.20898954  1
  S  S166  1  0.16611824  0.56829560  0.53561669  1
  S  S167  1  0.16403984  0.56368720  0.87957545  1
  S  S168  1  0.66944039  0.07222528  0.20632066  1
  S  S169  1  0.67746085  0.06968299  0.54290411  1
  S  S170  1  0.66917881  0.06742809  0.87291744  1
  S  S171  1  0.67227133  0.56435241  0.20907995  1
  S  S172  1  0.66857237  0.57057489  0.54320067  1
  S  S173  1  0.66875197  0.56526166  0.87675554  1
  O  O174  1  0.37245138  0.21721647  0.07180991  1
  O  O175  1  0.37314366  0.20491553  0.39784782  1
  O  O176  1  0.37029724  0.21784395  0.73979402  1
  O  O177  1  0.37221785  0.71617282  0.07215861  1
  O  O178  1  0.36904232  0.71770687  0.40431801  1
  O  O179  1  0.37435885  0.71962299  0.74662412  1
  O  O180  1  0.86726645  0.22190629  0.07685700  1
  O  O181  1  0.87312255  0.21818816  0.40299998  1
  O  O182  1  0.86463910  0.22875387  0.74906211  1
  O  O183  1  0.86926948  0.71987226  0.07873831  1
  O  O184  1  0.87229356  0.71462228  0.40477700  1
  O  O185  1  0.86026562  0.72398615  0.74576569  1
  O  O186  1  0.29013209  0.12813463  0.09579175  1
  O  O187  1  0.28020074  0.12339749  0.41684430  1
  O  O188  1  0.28240871  0.13003739  0.75523183  1
  O  O189  1  0.28527283  0.63143644  0.09419449  1
  O  O190  1  0.27537862  0.63398450  0.41711587  1
  O  O191  1  0.28952642  0.63538074  0.77223299  1
  O  O192  1  0.77878186  0.13191662  0.08908048  1
  O  O193  1  0.77914270  0.13639736  0.41862664  1
  O  O194  1  0.77873429  0.13275871  0.75515490  1
  O  O195  1  0.78065293  0.63159684  0.09341278  1
  O  O196  1  0.78411822  0.62702108  0.42351369  1
  O  O197  1  0.77771898  0.63051616  0.76191034  1
  O  O198  1  0.13471009  0.27464240  0.25106163  1
  O  O199  1  0.12999962  0.29291732  0.59753456  1
  O  O200  1  0.12605704  0.28392084  0.92863736  1
  O  O201  1  0.13272310  0.77791023  0.25656646  1
  O  O202  1  0.13237059  0.77854872  0.58890984  1
  O  O203  1  0.12104577  0.77345876  0.92502884  1
  O  O204  1  0.63201468  0.27936666  0.25445014  1
  O  O205  1  0.64163537  0.28802965  0.59721780  1
  O  O206  1  0.63201786  0.28360721  0.92736215  1
  O  O207  1  0.63337035  0.77863793  0.25531614  1
  O  O208  1  0.61856140  0.78198016  0.59720851  1
  O  O209  1  0.63410835  0.77910822  0.92315039  1
  O  O210  1  0.22016174  0.36732916  0.23944658  1
  O  O211  1  0.21327917  0.38107758  0.57397969  1
  O  O212  1  0.21346810  0.36960257  0.90871088  1
  O  O213  1  0.22139083  0.86555966  0.24221057  1
  O  O214  1  0.21632377  0.86735593  0.56946788  1
  O  O215  1  0.21450160  0.85259848  0.90578901  1
  O  O216  1  0.72773886  0.36579003  0.24813776  1
  O  O217  1  0.72533300  0.37750709  0.57695114  1
  O  O218  1  0.72104902  0.36997623  0.91157839  1
  O  O219  1  0.71928344  0.87143854  0.24193470  1
  O  O220  1  0.71168089  0.86077018  0.57578061  1
  O  O221  1  0.72092174  0.86934340  0.90892966  1
  O  O222  1  0.42889631  0.13654358  0.15500456  1
  O  O223  1  0.41587031  0.12924304  0.48615544  1
  O  O224  1  0.42006453  0.13401991  0.81952548  1
  O  O225  1  0.42365403  0.62951911  0.14870550  1
  O  O226  1  0.41230787  0.63372553  0.48469028  1
  O  O227  1  0.42760384  0.62634000  0.81604276  1
  O  O228  1  0.91682225  0.13341212  0.15150472  1
  O  O229  1  0.91697203  0.13497530  0.48367721  1
  O  O230  1  0.91521316  0.14104374  0.82258587  1
  O  O231  1  0.91916774  0.62784145  0.15024171  1
  O  O232  1  0.92236252  0.62997463  0.48359424  1
  O  O233  1  0.91547237  0.63386508  0.81742184  1
  O  O234  1  0.37843409  0.07903936  0.02026123  1
  O  O235  1  0.37514291  0.06672457  0.35076785  1
  O  O236  1  0.37420714  0.07934748  0.68382466  1
  O  O237  1  0.36670629  0.57827334  0.01244867  1
  O  O238  1  0.36704457  0.57872575  0.34809466  1
  O  O239  1  0.36214477  0.58148499  0.68240897  1
  O  O240  1  0.86701705  0.08406348  0.01510833  1
  O  O241  1  0.86565798  0.07981221  0.34606768  1
  O  O242  1  0.87337036  0.09213862  0.68514570  1
  O  O243  1  0.86510680  0.58238432  0.01463463  1
  O  O244  1  0.87222819  0.57621300  0.34876237  1
  O  O245  1  0.86157046  0.58750977  0.68071835  1
  O  O246  1  0.08206389  0.36638559  0.18118434  1
  O  O247  1  0.07563294  0.37435874  0.51622082  1
  O  O248  1  0.07568053  0.36725955  0.84727379  1
  O  O249  1  0.08420516  0.86474956  0.18045624  1
  O  O250  1  0.07789721  0.86577491  0.51451231  1
  O  O251  1  0.07837230  0.86389467  0.84867441  1
  O  O252  1  0.59194856  0.37265771  0.18454333  1
  O  O253  1  0.58667284  0.36845941  0.51618251  1
  O  O254  1  0.58394043  0.36631105  0.84572204  1
  O  O255  1  0.58146903  0.86633553  0.18207316  1
  O  O256  1  0.57513705  0.86446540  0.51430718  1
  O  O257  1  0.58322315  0.86521023  0.84590114  1
  O  O258  1  0.13342639  0.41118170  0.31750243  1
  O  O259  1  0.12611878  0.43135890  0.65094027  1
  O  O260  1  0.12314712  0.42219625  0.98207813  1
  O  O261  1  0.13395868  0.91579721  0.31783909  1
  O  O262  1  0.13413233  0.91661436  0.65076625  1
  O  O263  1  0.13221394  0.91272386  0.98357120  1
  O  O264  1  0.64000139  0.41741674  0.32206300  1
  O  O265  1  0.63464545  0.42496658  0.65118567  1
  O  O266  1  0.62899250  0.42200821  0.98168612  1
  O  O267  1  0.63079459  0.91709409  0.31815345  1
  O  O268  1  0.62656603  0.92100795  0.65019150  1
  O  O269  1  0.63190062  0.91691657  0.98266101  1
  O  O270  1  0.02501832  0.20452350  0.10503314  1
  O  O271  1  0.03740146  0.20540684  0.43467834  1
  O  O272  1  0.03209544  0.20476829  0.77303994  1
  O  O273  1  0.02714081  0.70070841  0.10520459  1
  O  O274  1  0.03217421  0.70053446  0.43739099  1
  O  O275  1  0.01895464  0.70469436  0.76932936  1
  O  O276  1  0.54163736  0.19709206  0.10656258  1
  O  O277  1  0.54352156  0.19292881  0.43102394  1
  O  O278  1  0.53361881  0.20191101  0.77551386  1
  O  O279  1  0.53541524  0.69862044  0.10545819  1
  O  O280  1  0.52765820  0.69522083  0.43673829  1
  O  O281  1  0.53104215  0.70278798  0.77200121  1
  O  O282  1  0.28633800  0.47010820  0.05831787  1
  O  O283  1  0.28845903  0.47717516  0.39330773  1
  O  O284  1  0.30580690  0.46582691  0.73084597  1
  O  O285  1  0.32097451  0.94910976  0.06479551  1
  O  O286  1  0.29464179  0.96128976  0.39471334  1
  O  O287  1  0.30036888  0.96586727  0.72252415  1
  O  O288  1  0.79827158  0.46989474  0.06278051  1
  O  O289  1  0.80224484  0.46990709  0.39721216  1
  O  O290  1  0.80070414  0.47118873  0.73174025  1
  O  O291  1  0.79834556  0.97156678  0.06211326  1
  O  O292  1  0.79861978  0.96863433  0.39097318  1
  O  O293  1  0.79896721  0.97039984  0.73383804  1
  O  O294  1  0.47414732  0.30002879  0.23029620  1
  O  O295  1  0.45260549  0.31435681  0.56610765  1
  O  O296  1  0.46994245  0.30333970  0.89343958  1
  O  O297  1  0.46971162  0.79148555  0.23013949  1
  O  O298  1  0.46187908  0.79599438  0.55956048  1
  O  O299  1  0.47653859  0.79549377  0.89596592  1
  O  O300  1  0.97239950  0.29846531  0.23083220  1
  O  O301  1  0.95802696  0.31204372  0.56136109  1
  O  O302  1  0.96662263  0.30602187  0.89898731  1
  O  O303  1  0.97300238  0.79643237  0.22757334  1
  O  O304  1  0.97139382  0.79338804  0.55984185  1
  O  O305  1  0.96273622  0.80004543  0.89646299  1
  O  O306  1  0.19971380  0.02713016  0.27233076  1
  O  O307  1  0.20837473  0.02591776  0.60608032  1
  O  O308  1  0.19235748  0.04080594  0.93309806  1
  O  O309  1  0.19672679  0.52854946  0.26843654  1
  O  O310  1  0.19965868  0.53945055  0.59962378  1
  O  O311  1  0.19870742  0.53397365  0.94583886  1
  O  O312  1  0.69374441  0.03235454  0.26430413  1
  O  O313  1  0.70388422  0.03056039  0.60112501  1
  O  O314  1  0.69879542  0.03167696  0.93492771  1
  O  O315  1  0.70284722  0.52885962  0.27070808  1
  O  O316  1  0.69945743  0.53706168  0.60628297  1
  O  O317  1  0.70102453  0.53039525  0.93871457  1
  O  O318  1  0.06596246  0.08530884  0.03805162  1
  O  O319  1  0.09162340  0.09337951  0.37239446  1
  O  O320  1  0.08847603  0.09386988  0.70547994  1
  O  O321  1  0.07685671  0.58567499  0.03916571  1
  O  O322  1  0.08364969  0.58831784  0.37086742  1
  O  O323  1  0.07025841  0.58877337  0.71000596  1
  O  O324  1  0.58619159  0.08629993  0.02802949  1
  O  O325  1  0.59608491  0.08940062  0.35273955  1
  O  O326  1  0.58966590  0.08971089  0.71111833  1
  O  O327  1  0.59084082  0.58883031  0.03917252  1
  O  O328  1  0.58468018  0.58413698  0.37497578  1
  O  O329  1  0.58026428  0.58622485  0.70895562  1
  O  O330  1  0.39334267  0.40721167  0.11670971  1
  O  O331  1  0.40997329  0.44233762  0.45908034  1
  O  O332  1  0.41655425  0.41957204  0.80676730  1
  O  O333  1  0.42492676  0.90847599  0.15121034  1
  O  O334  1  0.40976893  0.91081884  0.45943253  1
  O  O335  1  0.41703195  0.91819519  0.79137648  1
  O  O336  1  0.90886128  0.41384846  0.12586650  1
  O  O337  1  0.91888964  0.42226923  0.46398130  1
  O  O338  1  0.91055540  0.41352946  0.79650981  1
  O  O339  1  0.90891695  0.91380667  0.12340762  1
  O  O340  1  0.91681593  0.91765514  0.45324379  1
  O  O341  1  0.90708154  0.90967211  0.79628185  1
  O  O342  1  0.41133125  0.41081815  0.28538993  1
  O  O343  1  0.40203245  0.42260511  0.63856532  1
  O  O344  1  0.41110823  0.41391199  0.95629465  1
  O  O345  1  0.40828529  0.89898246  0.29329296  1
  O  O346  1  0.41324739  0.91002323  0.62875233  1
  O  O347  1  0.42830339  0.91075202  0.96100811  1
  O  O348  1  0.91441394  0.40853322  0.29404408  1
  O  O349  1  0.91310826  0.42256884  0.63798900  1
  O  O350  1  0.91678638  0.41862273  0.96807752  1
  O  O351  1  0.91098289  0.90342856  0.28652046  1
  O  O352  1  0.92972379  0.91454700  0.62200014  1
  O  O353  1  0.91396574  0.91248325  0.96874616  1
  O  O354  1  0.09169026  0.08661850  0.20576153  1
  O  O355  1  0.08878663  0.07064742  0.54528421  1
  O  O356  1  0.08610803  0.09066538  0.85934277  1
  O  O357  1  0.08753527  0.58887829  0.20722366  1
  O  O358  1  0.08448607  0.58766063  0.53433134  1
  O  O359  1  0.08148291  0.58139209  0.87811162  1
  O  O360  1  0.58969853  0.09725668  0.19795843  1
  O  O361  1  0.60094982  0.09575846  0.53930216  1
  O  O362  1  0.58761309  0.08661485  0.86825167  1
  O  O363  1  0.59150835  0.58383185  0.20580864  1
  O  O364  1  0.58536528  0.58484657  0.53534512  1
  O  O365  1  0.58650599  0.58101933  0.87275386  1
  O  O366  1  0.13726569  0.21356906  0.06294947  1
  O  O367  1  0.13949811  0.22473968  0.38223171  1
  O  O368  1  0.13873247  0.22788301  0.72788844  1
  O  O369  1  0.13520635  0.71711949  0.05898574  1
  O  O370  1  0.13777566  0.72122513  0.38936144  1
  O  O371  1  0.13092211  0.71887373  0.72710149  1
  O  O372  1  0.64338615  0.22056359  0.05639143  1
  O  O373  1  0.64982578  0.22611497  0.38883651  1
  O  O374  1  0.63473142  0.22269464  0.72373358  1
  O  O375  1  0.64055366  0.72308898  0.05859863  1
  O  O376  1  0.63498766  0.71725060  0.39020834  1
  O  O377  1  0.63755102  0.71647395  0.72352222  1
  O  O378  1  0.26015065  0.36016232  0.09919745  1
  O  O379  1  0.28586545  0.36598172  0.43840373  1
  O  O380  1  0.28252034  0.35849075  0.77595380  1
  O  O381  1  0.28772519  0.85151139  0.11634375  1
  O  O382  1  0.27834548  0.85703882  0.44506076  1
  O  O383  1  0.28547573  0.87217768  0.78448358  1
  O  O384  1  0.77560173  0.36075950  0.10586685  1
  O  O385  1  0.78789732  0.36404104  0.44685453  1
  O  O386  1  0.77517967  0.36391305  0.77645594  1
  O  O387  1  0.77536328  0.86198204  0.10422465  1
  O  O388  1  0.78949006  0.87154421  0.45182959  1
  O  O389  1  0.77207250  0.86115766  0.77409073  1
  O  O390  1  0.36877391  0.27915362  0.27846152  1
  O  O391  1  0.35357721  0.28760186  0.62076534  1
  O  O392  1  0.36586847  0.28100627  0.94232979  1
  O  O393  1  0.35998653  0.76434852  0.27062056  1
  O  O394  1  0.35927268  0.77741419  0.61057754  1
  O  O395  1  0.36501577  0.77900544  0.93654556  1
  O  O396  1  0.86360681  0.27419088  0.27296227  1
  O  O397  1  0.86018925  0.28760810  0.61659813  1
  O  O398  1  0.85902259  0.28505249  0.94493744  1
  O  O399  1  0.86277497  0.76908701  0.26662303  1
  O  O400  1  0.86929570  0.78723733  0.61490403  1
  O  O401  1  0.85885571  0.77857302  0.94551140  1
  O  O402  1  0.22736612  0.13224852  0.22742489  1
  O  O403  1  0.21706727  0.13479966  0.55978216  1
  O  O404  1  0.22074043  0.14754561  0.88827726  1
  O  O405  1  0.22160949  0.63473623  0.22268509  1
  O  O406  1  0.21510151  0.63585940  0.53974708  1
  O  O407  1  0.21286061  0.63522735  0.89157670  1
  O  O408  1  0.72738316  0.14030604  0.22456303  1
  O  O409  1  0.73611814  0.13755921  0.55976933  1
  O  O410  1  0.72217510  0.13906109  0.89052566  1
  O  O411  1  0.72483820  0.63259143  0.22069566  1
  O  O412  1  0.71840313  0.64207732  0.55762208  1
  O  O413  1  0.71863852  0.63784834  0.89247076  1
  O  O414  1  0.49725519  0.34416861  0.02829624  1
  O  O415  1  0.49729477  0.34958234  0.36504569  1
  O  O416  1  0.48617538  0.34371552  0.70119553  1
  O  O417  1  0.49407852  0.82717024  0.02969727  1
  O  O418  1  0.48924755  0.82233985  0.36167669  1
  O  O419  1  0.49187122  0.83043332  0.69438325  1
  O  O420  1  0.99042885  0.33644417  0.03306046  1
  O  O421  1  0.99265846  0.33225741  0.36409361  1
  O  O422  1  0.99369763  0.34112846  0.69692858  1
  O  O423  1  0.99177801  0.83102576  0.03141743  1
  O  O424  1  0.98941376  0.82720976  0.35948605  1
  O  O425  1  1.00106426  0.83624988  0.69646517  1
  O  O426  1  0.16432362  0.00178896  0.13822840  1
  O  O427  1  0.16981151  0.00488929  0.47134732  1
  O  O428  1  0.17378634  0.01527472  0.80067858  1
  O  O429  1  0.15780238  0.50646601  0.13419351  1
  O  O430  1  0.15428651  0.50325677  0.46260641  1
  O  O431  1  0.15735653  0.50034463  0.81051463  1
  O  O432  1  0.66654608  0.01251174  0.13285395  1
  O  O433  1  0.67477831  0.01048568  0.46891105  1
  O  O434  1  0.66717085  0.00837486  0.80107707  1
  O  O435  1  0.66574851  0.50207405  0.13598091  1
  O  O436  1  0.66856716  0.50908674  0.47231327  1
  O  O437  1  0.66693369  0.50642545  0.80456314  1
  O  O438  1  0.00890924  0.16547120  0.29992295  1
  O  O439  1  0.00694424  0.17153324  0.63954717  1
  O  O440  1  0.00701430  0.17334975  0.97129232  1
  O  O441  1  0.00659003  0.66740039  0.30314028  1
  O  O442  1  0.00219426  0.66604215  0.63562774  1
  O  O443  1  0.00281669  0.66638504  0.97106725  1
  O  O444  1  0.51933584  0.17841110  0.29886709  1
  O  O445  1  0.50235708  0.16099312  0.64025955  1
  O  O446  1  0.50980570  0.17318653  0.97223036  1
  O  O447  1  0.50578538  0.65892502  0.30257576  1
  O  O448  1  0.50553420  0.66428066  0.63729509  1
  O  O449  1  0.50977419  0.66431223  0.97077442  1
  O  O450  1  0.31893448  0.48763803  0.19053672  1
  O  O451  1  0.32226106  0.49676569  0.52870331  1
  O  O452  1  0.32690909  0.49122566  0.86328880  1
  O  O453  1  0.33423196  0.98631106  0.19894345  1
  O  O454  1  0.33426228  0.98976484  0.52933688  1
  O  O455  1  0.34626266  1.00675679  0.85870770  1
  O  O456  1  0.83045083  0.49026333  0.19591805  1
  O  O457  1  0.83727769  0.49740901  0.53129647  1
  O  O458  1  0.83450238  0.49326703  0.86518475  1
  O  O459  1  0.83123770  0.99030318  0.19510376  1
  O  O460  1  0.85109048  1.00620898  0.52664871  1
  O  O461  1  0.83180447  0.98899618  0.86675406  1
