# generated using pymatgen
data_Na31Fe20(SO4)36
_symmetry_space_group_name_H-M   'P 1'
_cell_length_a   18.07082234
_cell_length_b   18.06954136
_cell_length_c   19.70041197
_cell_angle_alpha   107.56919226
_cell_angle_beta   107.58380676
_cell_angle_gamma   90.70610892
_symmetry_Int_Tables_number   1
_chemical_formula_structural   Na31Fe20(SO4)36
_chemical_formula_sum   'Na62 Fe40 S72 O288'
_cell_volume   5808.14201979
_cell_formula_units_Z   2
loop_
 _symmetry_equiv_pos_site_id
 _symmetry_equiv_pos_as_xyz
  1  'x, y, z'
loop_
 _atom_site_type_symbol
 _atom_site_label
 _atom_site_symmetry_multiplicity
 _atom_site_fract_x
 _atom_site_fract_y
 _atom_site_fract_z
 _atom_site_occupancy
  Na  Na0  1  0.13603963  0.36484736  0.08223271  1
  Na  Na1  1  0.13763712  0.35680453  0.41016272  1
  Na  Na2  1  0.13923514  0.36871029  0.75875958  1
  Na  Na3  1  0.13475373  0.86401271  0.09279418  1
  Na  Na4  1  0.13359882  0.85327329  0.40342494  1
  Na  Na5  1  0.13039814  0.88177322  0.75161384  1
  Na  Na6  1  0.63228268  0.36758476  0.08288124  1
  Na  Na7  1  0.64307424  0.36445525  0.42833515  1
  Na  Na8  1  0.62170948  0.36996406  0.74009562  1
  Na  Na9  1  0.62704719  0.85161166  0.06713377  1
  Na  Na10  1  0.63834131  0.86021476  0.42264098  1
  Na  Na11  1  0.62147921  0.87589567  0.74393245  1
  Na  Na12  1  0.34889567  0.14179400  0.25294872  1
  Na  Na13  1  0.38111145  0.12605241  0.58489868  1
  Na  Na14  1  0.35601607  0.12763755  0.90326877  1
  Na  Na15  1  0.37048316  0.66583577  0.28272115  1
  Na  Na16  1  0.37592620  0.62663700  0.58293077  1
  Na  Na17  1  0.36059587  0.63586119  0.91942509  1
  Na  Na18  1  0.86944313  0.13301572  0.25268011  1
  Na  Na19  1  0.86302310  0.14425651  0.58530584  1
  Na  Na20  1  0.86726119  0.12427592  0.90415905  1
  Na  Na21  1  0.86449826  0.63783635  0.24967248  1
  Na  Na22  1  0.86248532  0.63608596  0.57943110  1
  Na  Na23  1  0.87131424  0.63718675  0.92390001  1
  Na  Na24  1  0.48635317  0.00779098  0.09041967  1
  Na  Na25  1  0.49345541  0.49640463  0.44858840  1
  Na  Na26  1  0.99791566  -0.00606237  0.06720277  1
  Na  Na27  1  0.98481088  0.51100817  0.74690608  1
  Na  Na28  1  0.99118481  0.51072581  0.41306781  1
  Na  Na29  1  0.99279306  0.52214016  0.07925609  1
  Na  Na30  1  0.99383517  0.00291735  0.42250878  1
  Na  Na31  1  0.49198083  -0.00701448  0.46290331  1
  Na  Na32  1  0.46586415  0.51612698  0.05871623  1
  Na  Na33  1  0.45822719  1.02243399  0.28473810  1
  Na  Na34  1  0.48491282  0.53894380  0.86290562  1
  Na  Na35  1  0.01246200  0.48658443  0.58182351  1
  Na  Na36  1  0.48891520  0.50570200  0.25175180  1
  Na  Na37  1  0.01439531  0.49452328  0.24406478  1
  Na  Na38  1  0.51593185  0.99303434  0.89292343  1
  Na  Na39  1  0.01023145  0.96605020  0.23904043  1
  Na  Na40  1  0.01647415  0.98910220  0.62697196  1
  Na  Na41  1  0.01903008  0.48727743  0.91328676  1
  Na  Na42  1  0.71869455  0.22504855  0.65888312  1
  Na  Na43  1  0.24840000  0.75137066  0.00489413  1
  Na  Na44  1  0.74299710  0.74304686  0.34398025  1
  Na  Na45  1  0.25640779  0.75315761  0.65788140  1
  Na  Na46  1  0.25634421  0.24873575  0.66262733  1
  Na  Na47  1  0.75385154  0.76433072  0.64798016  1
  Na  Na48  1  0.75940619  0.75679849  -0.00595429  1
  Na  Na49  1  0.74255221  0.23858978  0.34793501  1
  Na  Na50  1  0.74799853  0.24736062  0.00052513  1
  Na  Na51  1  0.25594601  0.25942447  -0.00498638  1
  Na  Na52  1  0.25376183  0.75377301  0.18455995  1
  Na  Na53  1  0.74368504  0.24186807  0.17290819  1
  Na  Na54  1  0.24080405  0.24431756  0.17615349  1
  Na  Na55  1  0.75347539  0.75062715  0.15986193  1
  Na  Na56  1  0.26503441  0.24951371  0.48645264  1
  Na  Na57  1  0.25296312  0.75811148  0.82726922  1
  Na  Na58  1  0.27235905  0.75634816  0.48218860  1
  Na  Na59  1  0.75365896  0.76016751  0.82601590  1
  Na  Na60  1  0.73277157  0.22816865  0.82872959  1
  Na  Na61  1  0.25827763  0.25752352  0.83043114  1
  Fe  Fe62  1  0.46835207  0.29916368  0.46080452  1
  Fe  Fe63  1  0.96502510  0.30691926  0.77952201  1
  Fe  Fe64  1  0.46540513  0.81385379  0.12507898  1
  Fe  Fe65  1  0.96617622  0.80951749  0.45527710  1
  Fe  Fe66  1  0.46316560  0.31002938  0.78877076  1
  Fe  Fe67  1  0.46513548  0.30834912  0.11920918  1
  Fe  Fe68  1  0.96698274  0.30340448  0.44893287  1
  Fe  Fe69  1  0.96481827  0.81007324  0.78654841  1
  Fe  Fe70  1  0.46628367  0.79788195  0.79121891  1
  Fe  Fe71  1  0.96485593  0.30520835  0.11362174  1
  Fe  Fe72  1  0.68548354  0.53700377  0.04145993  1
  Fe  Fe73  1  0.19501238  0.53336117  0.38416347  1
  Fe  Fe74  1  0.68700087  0.53987472  0.71087677  1
  Fe  Fe75  1  0.69143291  0.03539653  0.38163562  1
  Fe  Fe76  1  0.19258516  0.53212001  0.71581091  1
  Fe  Fe77  1  0.69468966  0.53348932  0.38133452  1
  Fe  Fe78  1  0.18976124  0.03463870  0.04726004  1
  Fe  Fe79  1  0.19932997  0.02763576  0.37553593  1
  Fe  Fe80  1  0.69169391  0.03680011  0.04769966  1
  Fe  Fe81  1  0.20124735  0.53352028  0.04782720  1
  Fe  Fe82  1  0.53405247  0.19582699  0.21799401  1
  Fe  Fe83  1  0.53599978  0.18905773  0.87516221  1
  Fe  Fe84  1  0.03797488  0.19037698  0.54891620  1
  Fe  Fe85  1  0.03578591  0.69318758  0.54915493  1
  Fe  Fe86  1  0.03310813  0.70006925  0.21451469  1
  Fe  Fe87  1  0.03245789  0.69596128  0.88312758  1
  Fe  Fe88  1  0.53320625  0.70576040  0.54419219  1
  Fe  Fe89  1  0.03607571  0.19152482  0.21385595  1
  Fe  Fe90  1  0.03538710  0.18690597  0.87479752  1
  Fe  Fe91  1  0.53383199  0.69624787  0.21839505  1
  Fe  Fe92  1  0.30740785  0.46217806  0.28721797  1
  Fe  Fe93  1  0.80762956  0.96489779  0.28479302  1
  Fe  Fe94  1  0.31027340  0.46526517  0.62191011  1
  Fe  Fe95  1  0.30266654  0.96797529  0.62539479  1
  Fe  Fe96  1  0.80522155  0.96654990  0.94892752  1
  Fe  Fe97  1  0.80233911  0.96652218  0.62339395  1
  Fe  Fe98  1  0.80540890  0.46412798  0.61418196  1
  Fe  Fe99  1  0.80590560  0.46370086  0.94703659  1
  Fe  Fe100  1  0.80670586  0.46560947  0.28119844  1
  Fe  Fe101  1  0.30273352  0.96792093  0.95165457  1
  S  S102  1  0.35910368  0.14248149  0.08504976  1
  S  S103  1  0.35991381  0.13281788  0.41335469  1
  S  S104  1  0.35795575  0.13858394  0.75287788  1
  S  S105  1  0.35828536  0.64716710  0.08812249  1
  S  S106  1  0.36412567  0.63164098  0.42008879  1
  S  S107  1  0.35366256  0.63888958  0.75146844  1
  S  S108  1  0.86107959  0.14139469  0.08401840  1
  S  S109  1  0.86234138  0.13802030  0.41486584  1
  S  S110  1  0.86245743  0.14141802  0.74323494  1
  S  S111  1  0.85940692  0.63568577  0.08449597  1
  S  S112  1  0.86304321  0.63801780  0.41427610  1
  S  S113  1  0.85999560  0.63883316  0.74741154  1
  S  S114  1  0.13602280  0.36272764  0.24763496  1
  S  S115  1  0.13978936  0.35846324  0.58085462  1
  S  S116  1  0.13631286  0.35937552  0.91925008  1
  S  S117  1  0.13717280  0.86002565  0.24870955  1
  S  S118  1  0.13913764  0.85657756  0.58207072  1
  S  S119  1  0.13870548  0.85892179  0.91779193  1
  S  S120  1  0.64299861  0.35867241  0.24921006  1
  S  S121  1  0.64085420  0.36480941  0.58199000  1
  S  S122  1  0.64168438  0.36175179  0.91668392  1
  S  S123  1  0.64538147  0.85839959  0.24651979  1
  S  S124  1  0.64399930  0.86595069  0.58448836  1
  S  S125  1  0.63838768  0.86226362  0.91742550  1
  S  S126  1  0.06581916  0.17091185  0.04282250  1
  S  S127  1  0.06939567  0.16659897  0.37550607  1
  S  S128  1  0.07291661  0.17631020  0.71169944  1
  S  S129  1  0.07005246  0.66511092  0.04397114  1
  S  S130  1  0.06747645  0.66421000  0.37609721  1
  S  S131  1  0.06486943  0.66762640  0.70795581  1
  S  S132  1  0.56443617  0.16942815  0.04224813  1
  S  S133  1  0.56675304  0.17235064  0.37272199  1
  S  S134  1  0.56937590  0.17845240  0.71894726  1
  S  S135  1  0.56065915  0.66521101  0.04362503  1
  S  S136  1  0.56945045  0.66053274  0.37200203  1
  S  S137  1  0.56895656  0.67950682  0.70879759  1
  S  S138  1  0.33115623  0.43419207  0.12628237  1
  S  S139  1  0.32574156  0.42481799  0.45594695  1
  S  S140  1  0.32728950  0.43517725  0.79206306  1
  S  S141  1  0.32873803  0.93897748  0.12380059  1
  S  S142  1  0.32110612  0.92905456  0.46119845  1
  S  S143  1  0.32896744  0.92734858  0.79062539  1
  S  S144  1  0.83400835  0.43114797  0.12260716  1
  S  S145  1  0.83611230  0.43354538  0.45421033  1
  S  S146  1  0.83534979  0.43256489  0.78840564  1
  S  S147  1  0.83155914  0.93861341  0.12171080  1
  S  S148  1  0.83518264  0.93339214  0.46042492  1
  S  S149  1  0.83422792  0.93069709  0.78881406  1
  S  S150  1  0.43558614  0.33165084  0.29372042  1
  S  S151  1  0.42737856  0.32947075  0.62516878  1
  S  S152  1  0.43498236  0.32751232  0.95756486  1
  S  S153  1  0.44995368  0.83322660  0.29769654  1
  S  S154  1  0.42287055  0.82368187  0.62639057  1
  S  S155  1  0.42797650  0.83222797  0.95921688  1
  S  S156  1  0.93371569  0.33129198  0.28860309  1
  S  S157  1  0.93653547  0.33617487  0.62243613  1
  S  S158  1  0.92985926  0.33237633  0.95509361  1
  S  S159  1  0.93017916  0.82928680  0.29173717  1
  S  S160  1  0.93019581  0.82796000  0.62270913  1
  S  S161  1  0.93239789  0.82940140  0.95576877  1
  S  S162  1  0.15956250  0.06631302  0.20602919  1
  S  S163  1  0.17092559  0.06468563  0.53876146  1
  S  S164  1  0.17130002  0.06985867  0.88148496  1
  S  S165  1  0.17139989  0.56960426  0.21068070  1
  S  S166  1  0.16410321  0.56209488  0.54127647  1
  S  S167  1  0.16236332  0.56785599  0.87485866  1
  S  S168  1  0.67044959  0.06770226  0.20933510  1
  S  S169  1  0.67603878  0.06178663  0.53943884  1
  S  S170  1  0.67492137  0.06756492  0.88002246  1
  S  S171  1  0.67076285  0.56598381  0.20873577  1
  S  S172  1  0.67370868  0.57151277  0.54202913  1
  S  S173  1  0.67782641  0.57145175  0.87865541  1
  O  O174  1  0.36795344  0.22289600  0.07983166  1
  O  O175  1  0.36976653  0.21744229  0.41854271  1
  O  O176  1  0.36874836  0.21701928  0.74310212  1
  O  O177  1  0.36648234  0.72881945  0.08481421  1
  O  O178  1  0.36771248  0.70840697  0.41131025  1
  O  O179  1  0.36379649  0.72129461  0.74974661  1
  O  O180  1  0.86949833  0.21903540  0.07240597  1
  O  O181  1  0.87401575  0.21543055  0.40315550  1
  O  O182  1  0.87773870  0.21510230  0.72634182  1
  O  O183  1  0.86206687  0.71177484  0.07390016  1
  O  O184  1  0.87335502  0.71621921  0.40556156  1
  O  O185  1  0.87000975  0.71645151  0.73760579  1
  O  O186  1  0.28194222  0.13313316  0.09657305  1
  O  O187  1  0.27471259  0.12312950  0.41379783  1
  O  O188  1  0.28533296  0.13273000  0.76982307  1
  O  O189  1  0.27769794  0.63645818  0.09356417  1
  O  O190  1  0.28839684  0.61763373  0.43485453  1
  O  O191  1  0.27222379  0.63078047  0.75657245  1
  O  O192  1  0.78177185  0.13454002  0.09205381  1
  O  O193  1  0.78144960  0.13059211  0.41663117  1
  O  O194  1  0.78510362  0.13935696  0.75142805  1
  O  O195  1  0.78240834  0.62015954  0.09597611  1
  O  O196  1  0.78376227  0.62740525  0.41894339  1
  O  O197  1  0.78164595  0.63088546  0.75617618  1
  O  O198  1  0.12629866  0.28462926  0.25570703  1
  O  O199  1  0.13144962  0.27996529  0.58950534  1
  O  O200  1  0.11945779  0.28359892  0.93156016  1
  O  O201  1  0.12493474  0.78556936  0.26570555  1
  O  O202  1  0.13175146  0.77592242  0.58872467  1
  O  O203  1  0.12945120  0.78020928  0.92777705  1
  O  O204  1  0.63576496  0.27671037  0.25129964  1
  O  O205  1  0.63550678  0.28932991  0.59247673  1
  O  O206  1  0.63373411  0.28274421  0.92555802  1
  O  O207  1  0.63799429  0.77820562  0.25262163  1
  O  O208  1  0.63144148  0.78155919  0.58206301  1
  O  O209  1  0.63352735  0.78856382  0.93257186  1
  O  O210  1  0.21412050  0.37143833  0.23777788  1
  O  O211  1  0.21802959  0.36901876  0.57342426  1
  O  O212  1  0.21245271  0.36058777  0.90823376  1
  O  O213  1  0.21438513  0.86757929  0.24146192  1
  O  O214  1  0.22253333  0.86896058  0.58394916  1
  O  O215  1  0.21875575  0.86710297  0.91155991  1
  O  O216  1  0.72034027  0.36901041  0.23728421  1
  O  O217  1  0.71551879  0.37822225  0.56529039  1
  O  O218  1  0.71907160  0.36861981  0.90423107  1
  O  O219  1  0.72481937  0.86894868  0.23812463  1
  O  O220  1  0.72892405  0.86964807  0.57991676  1
  O  O221  1  0.71593654  0.87375344  0.90595986  1
  O  O222  1  0.42079149  0.13194784  0.15070644  1
  O  O223  1  0.41188751  0.11510303  0.47783041  1
  O  O224  1  0.42387893  0.12608273  0.81428215  1
  O  O225  1  0.41569454  0.63724911  0.15668198  1
  O  O226  1  0.42828480  0.62242989  0.48503272  1
  O  O227  1  0.40996721  0.62663539  0.81638658  1
  O  O228  1  0.91861439  0.13755792  0.15467371  1
  O  O229  1  0.91879024  0.13304562  0.48573350  1
  O  O230  1  0.92185585  0.13761321  0.81357169  1
  O  O231  1  0.92119986  0.62990611  0.15324343  1
  O  O232  1  0.92137081  0.62987480  0.48326085  1
  O  O233  1  0.91951768  0.63017362  0.81551014  1
  O  O234  1  0.36585583  0.08527925  0.01543269  1
  O  O235  1  0.36697864  0.08330564  0.34210921  1
  O  O236  1  0.35659641  0.07878562  0.67970762  1
  O  O237  1  0.36696489  0.59134926  0.02039099  1
  O  O238  1  0.36936061  0.57087908  0.35075032  1
  O  O239  1  0.35757879  0.58512185  0.67897896  1
  O  O240  1  0.87219512  0.08025800  0.01910667  1
  O  O241  1  0.87536983  0.07662308  0.35016951  1
  O  O242  1  0.87037500  0.07578302  0.67818368  1
  O  O243  1  0.87132392  0.57431714  0.01861247  1
  O  O244  1  0.87479309  0.57803343  0.34750462  1
  O  O245  1  0.86917836  0.57790950  0.68019262  1
  O  O246  1  0.07638054  0.37287412  0.18028849  1
  O  O247  1  0.08018724  0.36552611  0.51165967  1
  O  O248  1  0.07517017  0.37204359  0.85347881  1
  O  O249  1  0.07529360  0.86592695  0.18287861  1
  O  O250  1  0.08668304  0.85833257  0.50786364  1
  O  O251  1  0.08217466  0.86227506  0.84679671  1
  O  O252  1  0.58141146  0.37051477  0.18480350  1
  O  O253  1  0.57635088  0.37280211  0.51633940  1
  O  O254  1  0.58030655  0.37433231  0.85343144  1
  O  O255  1  0.58727233  0.86679794  0.17820628  1
  O  O256  1  0.59079372  0.88023744  0.51895490  1
  O  O257  1  0.57651656  0.86674005  0.84826626  1
  O  O258  1  0.12780267  0.42290058  0.31536388  1
  O  O259  1  0.12790422  0.41796032  0.64729449  1
  O  O260  1  0.13221300  0.42215269  0.98792847  1
  O  O261  1  0.12887206  0.92463066  0.31734035  1
  O  O262  1  0.12125855  0.91367031  0.64355676  1
  O  O263  1  0.12885442  0.91849371  0.98405694  1
  O  O264  1  0.63996722  0.41317821  0.32123398  1
  O  O265  1  0.63837751  0.42692826  0.65159658  1
  O  O266  1  0.64000331  0.41939419  0.98873565  1
  O  O267  1  0.63991793  0.91603317  0.31575862  1
  O  O268  1  0.64270859  0.91774479  0.65612733  1
  O  O269  1  0.62773465  0.92683345  0.98178949  1
  O  O270  1  0.02935674  0.20312900  0.10452686  1
  O  O271  1  0.03253815  0.19394343  0.43714190  1
  O  O272  1  0.03842034  0.21289284  0.77409951  1
  O  O273  1  0.03392180  0.68497863  0.10382317  1
  O  O274  1  0.03082081  0.69337425  0.43682032  1
  O  O275  1  0.03049316  0.69879222  0.76988182  1
  O  O276  1  0.52887056  0.20153172  0.10376401  1
  O  O277  1  0.53409948  0.20212118  0.43404020  1
  O  O278  1  0.53010521  0.21687202  0.78001150  1
  O  O279  1  0.52837940  0.69921549  0.10777408  1
  O  O280  1  0.53607678  0.68713944  0.43284136  1
  O  O281  1  0.52645603  0.70362696  0.76488945  1
  O  O282  1  0.30283391  0.47194190  0.06812781  1
  O  O283  1  0.29350173  0.45791098  0.39196718  1
  O  O284  1  0.29376733  0.46531120  0.72522675  1
  O  O285  1  0.29631707  0.97088264  0.05849900  1
  O  O286  1  0.29033935  0.97128850  0.40454426  1
  O  O287  1  0.30948797  0.96385348  0.73053884  1
  O  O288  1  0.80305106  0.46210881  0.05929666  1
  O  O289  1  0.80504501  0.46909743  0.39257177  1
  O  O290  1  0.80583810  0.46800704  0.72716821  1
  O  O291  1  0.79198004  0.97285498  0.06018612  1
  O  O292  1  0.80745886  0.97218785  0.40088347  1
  O  O293  1  0.81451062  0.96763720  0.72855031  1
  O  O294  1  0.47403180  0.30299996  0.23320661  1
  O  O295  1  0.46401711  0.30427205  0.56618117  1
  O  O296  1  0.47090752  0.29209292  0.89664652  1
  O  O297  1  0.47976393  0.80229365  0.22840971  1
  O  O298  1  0.46379177  0.80145626  0.57034421  1
  O  O299  1  0.46340755  0.80807636  0.89898657  1
  O  O300  1  0.96773424  0.30054383  0.22642636  1
  O  O301  1  0.97110300  0.30252805  0.56022756  1
  O  O302  1  0.95918798  0.30132476  0.89028224  1
  O  O303  1  0.96351971  0.79828224  0.23097570  1
  O  O304  1  0.96886995  0.80047217  0.56211173  1
  O  O305  1  0.96343879  0.79530409  0.88992980  1
  O  O306  1  0.18422282  0.03304263  0.26803066  1
  O  O307  1  0.19903235  0.02291581  0.59439872  1
  O  O308  1  0.20270104  0.03408884  0.94547784  1
  O  O309  1  0.20067914  0.53362790  0.27248859  1
  O  O310  1  0.19452631  0.52716495  0.60291214  1
  O  O311  1  0.18674735  0.53293198  0.93512078  1
  O  O312  1  0.70023458  0.03148558  0.27022825  1
  O  O313  1  0.71215976  0.02430043  0.59869946  1
  O  O314  1  0.70895049  0.03740812  0.94687121  1
  O  O315  1  0.70118865  0.52842183  0.26972482  1
  O  O316  1  0.70475744  0.53773102  0.60505219  1
  O  O317  1  0.70884751  0.53095653  0.93862929  1
  O  O318  1  0.08288690  0.09013074  0.04119996  1
  O  O319  1  0.08706504  0.08417921  0.36737577  1
  O  O320  1  0.08893221  0.09777980  0.71081790  1
  O  O321  1  0.08815448  0.58124269  0.03102020  1
  O  O322  1  0.08017081  0.57948293  0.36845421  1
  O  O323  1  0.07958137  0.58425271  0.70209837  1
  O  O324  1  0.58115176  0.08758819  0.03959776  1
  O  O325  1  0.58889854  0.09176928  0.36757853  1
  O  O326  1  0.60434152  0.11300585  0.73896532  1
  O  O327  1  0.58041960  0.58399899  0.04423661  1
  O  O328  1  0.58860572  0.57712401  0.36349031  1
  O  O329  1  0.59294987  0.60110224  0.70743874  1
  O  O330  1  0.41353851  0.41551977  0.13041149  1
  O  O331  1  0.40595375  0.40557611  0.45824695  1
  O  O332  1  0.40771334  0.41390596  0.79365929  1
  O  O333  1  0.41054077  0.91984093  0.12638413  1
  O  O334  1  0.39890609  0.91070266  0.46263212  1
  O  O335  1  0.40901618  0.90212876  0.80361903  1
  O  O336  1  0.91757448  0.41578557  0.12949020  1
  O  O337  1  0.91937992  0.41850200  0.45926215  1
  O  O338  1  0.91978607  0.41894707  0.79465595  1
  O  O339  1  0.91306822  0.93280545  0.12400325  1
  O  O340  1  0.91983323  0.92090078  0.46940593  1
  O  O341  1  0.91577730  0.91083245  0.80148195  1
  O  O342  1  0.42109865  0.41520425  0.30100797  1
  O  O343  1  0.40637649  0.41064704  0.63275863  1
  O  O344  1  0.41911695  0.40655586  0.95912198  1
  O  O345  1  0.44508644  0.91737233  0.31327077  1
  O  O346  1  0.39318018  0.90114278  0.62954740  1
  O  O347  1  0.40969649  0.91540318  0.97077387  1
  O  O348  1  0.91817126  0.41427964  0.29434311  1
  O  O349  1  0.92121356  0.41908103  0.62437699  1
  O  O350  1  0.91708202  0.41687704  0.96365727  1
  O  O351  1  0.91601286  0.91331187  0.29818815  1
  O  O352  1  0.90704403  0.90767872  0.62456195  1
  O  O353  1  0.90696977  0.90791330  0.95457982  1
  O  O354  1  0.07440333  0.08034155  0.19330421  1
  O  O355  1  0.08881787  0.08293302  0.53591435  1
  O  O356  1  0.09273865  0.09214153  0.88283620  1
  O  O357  1  0.08749419  0.58364364  0.20390710  1
  O  O358  1  0.08077211  0.57796105  0.53651408  1
  O  O359  1  0.07790656  0.58465918  0.86359730  1
  O  O360  1  0.58973546  0.08852288  0.20429367  1
  O  O361  1  0.59871091  0.08008522  0.54120344  1
  O  O362  1  0.59730799  0.09260492  0.88590975  1
  O  O363  1  0.58871091  0.58193412  0.20232236  1
  O  O364  1  0.59361318  0.59168519  0.53695123  1
  O  O365  1  0.60180667  0.59431423  0.88040261  1
  O  O366  1  0.13835837  0.22226894  0.06075825  1
  O  O367  1  0.13908183  0.21987227  0.39241271  1
  O  O368  1  0.14295189  0.22873615  0.72393897  1
  O  O369  1  0.14079151  0.71872794  0.06211104  1
  O  O370  1  0.14113989  0.71115155  0.39320344  1
  O  O371  1  0.13638605  0.71685889  0.72110632  1
  O  O372  1  0.63737202  0.22019176  0.05907562  1
  O  O373  1  0.63338943  0.22528773  0.37933706  1
  O  O374  1  0.63210708  0.24029577  0.72916633  1
  O  O375  1  0.63331259  0.71469971  0.05722985  1
  O  O376  1  0.63830705  0.71132198  0.38132399  1
  O  O377  1  0.63782613  0.73667922  0.72832130  1
  O  O378  1  0.27968228  0.36225738  0.11066041  1
  O  O379  1  0.27322417  0.35622396  0.44377733  1
  O  O380  1  0.27549661  0.36391473  0.77786203  1
  O  O381  1  0.27771859  0.86765821  0.10947153  1
  O  O382  1  0.26526202  0.86084529  0.44409873  1
  O  O383  1  0.26994697  0.85997603  0.77168519  1
  O  O384  1  0.78523137  0.35944200  0.11167045  1
  O  O385  1  0.78729111  0.36139370  0.43890834  1
  O  O386  1  0.78779796  0.35995614  0.77429557  1
  O  O387  1  0.78615655  0.86311851  0.10644299  1
  O  O388  1  0.78659705  0.85959727  0.44028002  1
  O  O389  1  0.77922322  0.86014658  0.76903412  1
  O  O390  1  0.36193925  0.28187948  0.27282512  1
  O  O391  1  0.35648982  0.27514174  0.60804845  1
  O  O392  1  0.36385751  0.27520486  0.94358452  1
  O  O393  1  0.37297562  0.78827534  0.27584878  1
  O  O394  1  0.35570379  0.76343639  0.60687684  1
  O  O395  1  0.35657633  0.77935449  0.94230758  1
  O  O396  1  0.86197711  0.28168810  0.27519034  1
  O  O397  1  0.86552350  0.28874417  0.61103751  1
  O  O398  1  0.85776789  0.28488570  0.94459894  1
  O  O399  1  0.85724423  0.78129711  0.27907911  1
  O  O400  1  0.86323341  0.77207765  0.60691076  1
  O  O401  1  0.86317179  0.77534816  0.94284038  1
  O  O402  1  0.20818440  0.13880645  0.22062871  1
  O  O403  1  0.22230879  0.13638416  0.55597057  1
  O  O404  1  0.22513961  0.14106440  0.89982259  1
  O  O405  1  0.22069616  0.64148228  0.22640846  1
  O  O406  1  0.21318178  0.63335338  0.55455612  1
  O  O407  1  0.21297703  0.63982283  0.89019932  1
  O  O408  1  0.72475299  0.13818739  0.22607737  1
  O  O409  1  0.72905466  0.13124088  0.55198656  1
  O  O410  1  0.72904013  0.13724494  0.89364734  1
  O  O411  1  0.72281599  0.63829073  0.22791377  1
  O  O412  1  0.72774719  0.63897117  0.55368198  1
  O  O413  1  0.73535788  0.63919960  0.89556624  1
  O  O414  1  0.49427393  0.32904500  0.03128779  1
  O  O415  1  0.49208417  0.33083426  0.36598374  1
  O  O416  1  0.48573046  0.33120959  0.69798218  1
  O  O417  1  0.48757282  0.83115148  0.03103824  1
  O  O418  1  0.50793798  0.81692897  0.35966145  1
  O  O419  1  0.47929822  0.83071840  0.70236035  1
  O  O420  1  0.99219497  0.33309943  0.02590759  1
  O  O421  1  0.99412908  0.33308770  0.36066635  1
  O  O422  1  0.99817475  0.34300090  0.69563541  1
  O  O423  1  0.99565976  0.83904290  0.02530330  1
  O  O424  1  0.98948762  0.83245203  0.36551405  1
  O  O425  1  0.99144929  0.83387720  0.69524220  1
  O  O426  1  0.16111677  0.00606089  0.13462290  1
  O  O427  1  0.16362819  0.00962377  0.46142786  1
  O  O428  1  0.16761470  0.01068586  0.81168313  1
  O  O429  1  0.17025494  0.50956583  0.13845575  1
  O  O430  1  0.15989124  0.50171228  0.46830595  1
  O  O431  1  0.16155345  0.50812339  0.80222102  1
  O  O432  1  0.66631868  0.00843464  0.13636987  1
  O  O433  1  0.67080972  0.00207901  0.46422536  1
  O  O434  1  0.66660525  0.00473024  0.81186798  1
  O  O435  1  0.67283256  0.50776214  0.13746795  1
  O  O436  1  0.67034562  0.50740430  0.47070145  1
  O  O437  1  0.67426653  0.51224934  0.80530423  1
  O  O438  1  0.00871440  0.16718255  0.30432219  1
  O  O439  1  0.01145144  0.17469513  0.63901248  1
  O  O440  1  0.00735451  0.17029475  0.97119054  1
  O  O441  1  0.00915993  0.66453071  0.30372241  1
  O  O442  1  0.00466773  0.66529178  0.63540574  1
  O  O443  1  0.01043801  0.66677509  0.97230009  1
  O  O444  1  0.50255356  0.16291418  0.29850931  1
  O  O445  1  0.50917753  0.16047522  0.64631250  1
  O  O446  1  0.50678325  0.16596847  0.96918762  1
  O  O447  1  0.50654479  0.65275341  0.29804671  1
  O  O448  1  0.51335834  0.67391104  0.63344413  1
  O  O449  1  0.50008045  0.65778372  0.97254889  1
  O  O450  1  0.33758042  0.49105966  0.20189118  1
  O  O451  1  0.32901843  0.48800284  0.52682729  1
  O  O452  1  0.33244401  0.49835967  0.86036525  1
  O  O453  1  0.33334120  1.00106208  0.19303611  1
  O  O454  1  0.32365118  0.98693775  0.53753871  1
  O  O455  1  0.32997063  0.98828904  0.86235583  1
  O  O456  1  0.83699740  0.49256352  0.19478963  1
  O  O457  1  0.83807334  0.49315949  0.52644342  1
  O  O458  1  0.83849854  0.49236854  0.86141949  1
  O  O459  1  0.82975540  0.99455657  0.19536249  1
  O  O460  1  0.83349006  0.98903590  0.53358920  1
  O  O461  1  0.83028978  0.99029841  0.85902897  1
