# generated using pymatgen
data_Na31Fe20(SO4)36
_symmetry_space_group_name_H-M   'P 1'
_cell_length_a   18.07692270
_cell_length_b   18.07250085
_cell_length_c   19.70648335
_cell_angle_alpha   107.58371660
_cell_angle_beta   107.55897455
_cell_angle_gamma   90.73261388
_symmetry_Int_Tables_number   1
_chemical_formula_structural   Na31Fe20(SO4)36
_chemical_formula_sum   'Na62 Fe40 S72 O288'
_cell_volume   5812.87682946
_cell_formula_units_Z   2
loop_
 _symmetry_equiv_pos_site_id
 _symmetry_equiv_pos_as_xyz
  1  'x, y, z'
loop_
 _atom_site_type_symbol
 _atom_site_label
 _atom_site_symmetry_multiplicity
 _atom_site_fract_x
 _atom_site_fract_y
 _atom_site_fract_z
 _atom_site_occupancy
  Na  Na0  1  0.13644128  0.36644956  0.08429114  1
  Na  Na1  1  0.13268209  0.36546006  0.41378581  1
  Na  Na2  1  0.12578064  0.36744693  0.74756451  1
  Na  Na3  1  0.12765779  0.86324210  0.07697236  1
  Na  Na4  1  0.13219148  0.86750649  0.41489803  1
  Na  Na5  1  0.13449170  0.87300410  0.76000720  1
  Na  Na6  1  0.65681233  0.35424380  0.09416122  1
  Na  Na7  1  0.63908416  0.35417800  0.40479222  1
  Na  Na8  1  0.62720350  0.35969469  0.75868816  1
  Na  Na9  1  0.63368308  0.85111146  0.06479419  1
  Na  Na10  1  0.65396806  0.87849069  0.43882809  1
  Na  Na11  1  0.64397119  0.86795626  0.75971339  1
  Na  Na12  1  0.36848391  0.13477774  0.24950308  1
  Na  Na13  1  0.36898533  0.13812449  0.59325595  1
  Na  Na14  1  0.35947366  0.12671287  0.91029863  1
  Na  Na15  1  0.37501942  0.62819115  0.25051026  1
  Na  Na16  1  0.36942705  0.63476806  0.58631769  1
  Na  Na17  1  0.37188238  0.63505923  0.91683292  1
  Na  Na18  1  0.85579572  0.13301386  0.23725238  1
  Na  Na19  1  0.86217646  0.14516124  0.59557466  1
  Na  Na20  1  0.83615633  0.13810213  0.88684467  1
  Na  Na21  1  0.86367156  0.63686451  0.24917179  1
  Na  Na22  1  0.86185916  0.63187133  0.57972968  1
  Na  Na23  1  0.85782841  0.63192371  0.91494853  1
  Na  Na24  1  0.98920713  0.01527461  0.40928521  1
  Na  Na25  1  0.95236221  -0.00053093  0.75906269  1
  Na  Na26  1  0.98599933  0.50792919  0.07660990  1
  Na  Na27  1  0.49140347  0.01121600  0.42012980  1
  Na  Na28  1  0.49616815  0.00551967  0.75160859  1
  Na  Na29  1  0.54441104  0.48871136  0.36594925  1
  Na  Na30  1  0.47905885  0.03739031  0.08466063  1
  Na  Na31  1  0.97438955  0.50868912  0.42371302  1
  Na  Na32  1  0.98894639  0.01621244  0.07033677  1
  Na  Na33  1  0.00119644  0.45021129  0.88091242  1
  Na  Na34  1  0.00601688  0.48997394  0.25445630  1
  Na  Na35  1  -0.03322526  1.01539446  0.60763797  1
  Na  Na36  1  0.00200150  0.48970823  0.60862292  1
  Na  Na37  1  0.51216136  0.48692815  0.58874165  1
  Na  Na38  1  0.50889345  0.99341596  0.24385483  1
  Na  Na39  1  0.49772989  0.98520782  0.91785964  1
  Na  Na40  1  0.51079494  0.47627229  0.89332400  1
  Na  Na41  1  0.59299016  1.00066664  0.62533486  1
  Na  Na42  1  0.25193571  0.25162890  0.32994468  1
  Na  Na43  1  0.26045168  0.26088097  0.66602659  1
  Na  Na44  1  0.25041826  0.74964964  0.66709376  1
  Na  Na45  1  0.74315412  0.74429181  0.67301352  1
  Na  Na46  1  0.25852251  0.76423641  -0.00733532  1
  Na  Na47  1  0.74497042  0.23006712  0.70256469  1
  Na  Na48  1  0.74385492  0.74472952  0.34048427  1
  Na  Na49  1  0.25566268  0.24876835  -0.00221823  1
  Na  Na50  1  0.75548112  0.25525572  0.31728486  1
  Na  Na51  1  0.25502146  0.75482848  0.32759295  1
  Na  Na52  1  0.73838470  0.73010805  0.50307615  1
  Na  Na53  1  0.25937226  0.25558976  0.16430557  1
  Na  Na54  1  0.26480777  0.76624477  0.83421635  1
  Na  Na55  1  0.25664364  0.75754050  0.16019880  1
  Na  Na56  1  0.74938905  0.74911019  0.15461164  1
  Na  Na57  1  0.25140036  0.75232182  0.49753884  1
  Na  Na58  1  0.25362323  0.25358270  0.49967810  1
  Na  Na59  1  0.72609404  0.74117339  0.85771323  1
  Na  Na60  1  0.26122888  0.25722522  0.82758583  1
  Na  Na61  1  0.74407537  0.24367175  0.50377812  1
  Fe  Fe62  1  0.96160577  0.80876443  0.78965647  1
  Fe  Fe63  1  0.96002588  0.30703663  0.10895608  1
  Fe  Fe64  1  0.46690520  0.81141574  0.45656708  1
  Fe  Fe65  1  0.46689286  0.80316672  0.11547516  1
  Fe  Fe66  1  0.95968598  0.81073293  0.11878079  1
  Fe  Fe67  1  0.46852142  0.79943449  0.78977211  1
  Fe  Fe68  1  0.47173514  0.30252426  0.12905214  1
  Fe  Fe69  1  0.96261803  0.81558409  0.45652907  1
  Fe  Fe70  1  0.96583786  0.30912774  0.45177464  1
  Fe  Fe71  1  0.46762136  0.30074224  0.45186503  1
  Fe  Fe72  1  0.68986525  0.53258618  0.04269075  1
  Fe  Fe73  1  0.69100191  0.53465443  0.71905451  1
  Fe  Fe74  1  0.19540350  0.53857562  0.71874072  1
  Fe  Fe75  1  0.19336199  0.53463542  0.04725257  1
  Fe  Fe76  1  0.19278537  0.03144992  0.71364330  1
  Fe  Fe77  1  0.19469637  0.03184691  0.03892521  1
  Fe  Fe78  1  0.69279075  0.03573258  0.37755771  1
  Fe  Fe79  1  0.19508764  0.53445948  0.38281579  1
  Fe  Fe80  1  0.68600005  0.04492475  0.04811590  1
  Fe  Fe81  1  0.18649242  0.03600108  0.37530303  1
  Fe  Fe82  1  0.53205429  0.20084994  0.87915914  1
  Fe  Fe83  1  0.03209987  0.19640152  0.20971657  1
  Fe  Fe84  1  0.03320479  0.69266293  0.21359255  1
  Fe  Fe85  1  0.53378885  0.19374525  0.55538636  1
  Fe  Fe86  1  0.53597386  0.68289435  0.53982254  1
  Fe  Fe87  1  0.03356430  0.19941121  0.55047402  1
  Fe  Fe88  1  0.03356380  0.19989546  0.87266305  1
  Fe  Fe89  1  0.03285368  0.68966977  0.88207106  1
  Fe  Fe90  1  0.03678786  0.69509897  0.54999176  1
  Fe  Fe91  1  0.53806313  0.68387406  0.20826194  1
  Fe  Fe92  1  0.80644698  0.45502906  0.94500632  1
  Fe  Fe93  1  0.30374978  0.96501725  0.28455075  1
  Fe  Fe94  1  0.80559274  0.96249181  0.27839444  1
  Fe  Fe95  1  0.31581484  0.46505221  0.95901332  1
  Fe  Fe96  1  0.80145720  0.47007683  0.28405403  1
  Fe  Fe97  1  0.31055781  0.46569627  0.28976744  1
  Fe  Fe98  1  0.80615260  0.46285128  0.62084947  1
  Fe  Fe99  1  0.30815121  0.96355694  0.61918725  1
  Fe  Fe100  1  0.31534506  0.46527208  0.62774626  1
  Fe  Fe101  1  0.80079986  0.97028149  0.95016758  1
  S  S102  1  0.35619239  0.14346105  0.08372447  1
  S  S103  1  0.35706178  0.13824752  0.41754172  1
  S  S104  1  0.35811445  0.13695309  0.75123315  1
  S  S105  1  0.35758743  0.64162258  0.08501212  1
  S  S106  1  0.35805547  0.64245584  0.41726783  1
  S  S107  1  0.35652490  0.64131638  0.74901939  1
  S  S108  1  0.85974908  0.14081612  0.08255079  1
  S  S109  1  0.86143316  0.14095128  0.41303444  1
  S  S110  1  0.87079022  0.13959296  0.74424534  1
  S  S111  1  0.86188252  0.63700656  0.08123843  1
  S  S112  1  0.86525992  0.64301025  0.41706332  1
  S  S113  1  0.85976028  0.63942502  0.75001701  1
  S  S114  1  0.13869520  0.36164496  0.24974545  1
  S  S115  1  0.14144958  0.36379801  0.58435921  1
  S  S116  1  0.14847163  0.36036558  0.92021080  1
  S  S117  1  0.13776084  0.85890360  0.24894607  1
  S  S118  1  0.14022787  0.85945508  0.58040941  1
  S  S119  1  0.13653619  0.85649718  0.91819789  1
  S  S120  1  0.64054256  0.36233187  0.25254027  1
  S  S121  1  0.63847839  0.35790143  0.58437140  1
  S  S122  1  0.64640211  0.35634906  0.92430307  1
  S  S123  1  0.63986764  0.85761583  0.25022657  1
  S  S124  1  0.64397094  0.84831990  0.58053950  1
  S  S125  1  0.63526925  0.86765734  0.91693162  1
  S  S126  1  0.07264877  0.17718937  0.04204689  1
  S  S127  1  0.06743916  0.17321062  0.37478419  1
  S  S128  1  0.07581029  0.17081086  0.70871212  1
  S  S129  1  0.06680815  0.66648767  0.04439267  1
  S  S130  1  0.06987378  0.66918807  0.37545521  1
  S  S131  1  0.06937058  0.67271244  0.71120158  1
  S  S132  1  0.56050041  0.17128962  0.04037736  1
  S  S133  1  0.56088541  0.16368723  0.37517632  1
  S  S134  1  0.55748261  0.17047435  0.71548837  1
  S  S135  1  0.56308475  0.66482350  0.04092421  1
  S  S136  1  0.56907660  0.68003611  0.37852327  1
  S  S137  1  0.56777870  0.67007681  0.70681426  1
  S  S138  1  0.33162625  0.42850723  0.12716833  1
  S  S139  1  0.32901327  0.43031882  0.45845797  1
  S  S140  1  0.32632783  0.43381700  0.79164291  1
  S  S141  1  0.32788582  0.93353606  0.12560132  1
  S  S142  1  0.32701049  0.93325610  0.45532548  1
  S  S143  1  0.33059395  0.93060580  0.78886288  1
  S  S144  1  0.84086221  0.43716955  0.12739296  1
  S  S145  1  0.83693435  0.43384643  0.45933890  1
  S  S146  1  0.82240718  0.42977965  0.78396607  1
  S  S147  1  0.82936997  0.93205992  0.12133602  1
  S  S148  1  0.83622708  0.94091768  0.45364269  1
  S  S149  1  0.83022125  0.92645338  0.79337421  1
  S  S150  1  0.43261052  0.33234997  0.29444036  1
  S  S151  1  0.43491755  0.33085969  0.62379408  1
  S  S152  1  0.42967289  0.32224217  0.96200996  1
  S  S153  1  0.43302419  0.83318840  0.29256579  1
  S  S154  1  0.43122000  0.82688443  0.62415148  1
  S  S155  1  0.43555833  0.83926813  0.96284436  1
  S  S156  1  0.93279951  0.33289725  0.29085324  1
  S  S157  1  0.93375929  0.33060280  0.62093367  1
  S  S158  1  0.94117992  0.33135929  0.95749281  1
  S  S159  1  0.93272715  0.82977767  0.28930700  1
  S  S160  1  0.93412253  0.82780614  0.62307973  1
  S  S161  1  0.92572148  0.82772542  0.95725779  1
  S  S162  1  0.17014488  0.07007458  0.20570035  1
  S  S163  1  0.16937239  0.07124004  0.54109452  1
  S  S164  1  0.16173639  0.07066463  0.87142256  1
  S  S165  1  0.16954871  0.56685951  0.21061536  1
  S  S166  1  0.16836720  0.56670305  0.54177972  1
  S  S167  1  0.17190689  0.56847772  0.88013281  1
  S  S168  1  0.66605617  0.05996719  0.20728900  1
  S  S169  1  0.67040769  0.07313097  0.54095237  1
  S  S170  1  0.65746532  0.06807901  0.87211480  1
  S  S171  1  0.67967306  0.57431750  0.20996160  1
  S  S172  1  0.66746050  0.55703795  0.54160729  1
  S  S173  1  0.66802111  0.55852569  0.87727106  1
  O  O174  1  0.36796649  0.23005835  0.09014873  1
  O  O175  1  0.36609952  0.21712531  0.40893971  1
  O  O176  1  0.35807245  0.21347789  0.74095729  1
  O  O177  1  0.36358641  0.72213739  0.07889397  1
  O  O178  1  0.36456031  0.72255082  0.41121474  1
  O  O179  1  0.36791763  0.71955821  0.73831206  1
  O  O180  1  0.86970158  0.21969521  0.07714579  1
  O  O181  1  0.86974455  0.21923500  0.40344079  1
  O  O182  1  0.87864058  0.21424879  0.73046769  1
  O  O183  1  0.87274994  0.71636496  0.07586905  1
  O  O184  1  0.87960323  0.72084306  0.40647471  1
  O  O185  1  0.87038846  0.71634676  0.73786173  1
  O  O186  1  0.27274218  0.13444854  0.08307963  1
  O  O187  1  0.27630397  0.12970318  0.42220942  1
  O  O188  1  0.28356094  0.12038719  0.76578341  1
  O  O189  1  0.27866564  0.63023254  0.09385286  1
  O  O190  1  0.27938775  0.63102806  0.42633577  1
  O  O191  1  0.27343852  0.63788239  0.75163839  1
  O  O192  1  0.78482008  0.12907082  0.09608242  1
  O  O193  1  0.78251858  0.13116768  0.42072444  1
  O  O194  1  0.79501781  0.12496697  0.75290001  1
  O  O195  1  0.78304735  0.62700337  0.08818181  1
  O  O196  1  0.78851516  0.63834038  0.42581791  1
  O  O197  1  0.78133128  0.63388368  0.75985610  1
  O  O198  1  0.12959720  0.28289456  0.25884982  1
  O  O199  1  0.13246537  0.28498986  0.59296854  1
  O  O200  1  0.13378393  0.28042598  0.92654652  1
  O  O201  1  0.12973744  0.78109864  0.26031846  1
  O  O202  1  0.13549322  0.77949015  0.58767176  1
  O  O203  1  0.12247507  0.77982323  0.93188638  1
  O  O204  1  0.63713819  0.28779039  0.26710897  1
  O  O205  1  0.63005992  0.28043643  0.59513019  1
  O  O206  1  0.62815149  0.27563304  0.92718096  1
  O  O207  1  0.62938302  0.77913275  0.25815157  1
  O  O208  1  0.63011849  0.76367902  0.57683058  1
  O  O209  1  0.63238411  0.79229310  0.92876091  1
  O  O210  1  0.21853732  0.37030665  0.24351337  1
  O  O211  1  0.22283981  0.37289882  0.58109008  1
  O  O212  1  0.23098059  0.36565328  0.91978224  1
  O  O213  1  0.21844449  0.86728450  0.24335746  1
  O  O214  1  0.21768336  0.87074482  0.56936432  1
  O  O215  1  0.21390510  0.86013299  0.90975745  1
  O  O216  1  0.71662925  0.37639943  0.23908976  1
  O  O217  1  0.71761651  0.36696817  0.57649482  1
  O  O218  1  0.72544002  0.35913751  0.91591110  1
  O  O219  1  0.71802748  0.86430965  0.23978871  1
  O  O220  1  0.71525459  0.85622496  0.56190447  1
  O  O221  1  0.71098890  0.88112184  0.90275815  1
  O  O222  1  0.40868162  0.12818849  0.14966133  1
  O  O223  1  0.41386237  0.12987463  0.48619674  1
  O  O224  1  0.42289958  0.13184448  0.81808062  1
  O  O225  1  0.41660285  0.63489787  0.15294237  1
  O  O226  1  0.41726169  0.63347727  0.48422268  1
  O  O227  1  0.41050590  0.63272255  0.81599136  1
  O  O228  1  0.92367649  0.13045659  0.14828314  1
  O  O229  1  0.92129713  0.13449682  0.48184621  1
  O  O230  1  0.93107920  0.14074691  0.82089108  1
  O  O231  1  0.92090394  0.62842700  0.15052231  1
  O  O232  1  0.92560119  0.63312474  0.48483439  1
  O  O233  1  0.91910257  0.63372524  0.81908098  1
  O  O234  1  0.36694062  0.09450619  0.01421878  1
  O  O235  1  0.36693693  0.07876282  0.35044912  1
  O  O236  1  0.36659362  0.07619362  0.68352773  1
  O  O237  1  0.36423996  0.58470858  0.01590361  1
  O  O238  1  0.36398704  0.58501487  0.34780209  1
  O  O239  1  0.36125105  0.58197809  0.67872484  1
  O  O240  1  0.86668518  0.08157161  0.01356685  1
  O  O241  1  0.87156438  0.08102415  0.34626933  1
  O  O242  1  0.89114801  0.07658449  0.68663091  1
  O  O243  1  0.87303098  0.57786073  0.01469046  1
  O  O244  1  0.87476019  0.58195537  0.35027883  1
  O  O245  1  0.86676648  0.57835421  0.68262924  1
  O  O246  1  0.07989293  0.37013749  0.18250999  1
  O  O247  1  0.08604059  0.36962005  0.51380881  1
  O  O248  1  0.09530744  0.37151439  0.85290653  1
  O  O249  1  0.08091150  0.86339601  0.17898797  1
  O  O250  1  0.08003078  0.86612986  0.51258694  1
  O  O251  1  0.07705300  0.86185849  0.84935167  1
  O  O252  1  0.57844338  0.35904230  0.17873994  1
  O  O253  1  0.58029786  0.36281757  0.51375347  1
  O  O254  1  0.58839537  0.37444005  0.86322496  1
  O  O255  1  0.57940021  0.86811387  0.18403314  1
  O  O256  1  0.57793560  0.86881044  0.52229583  1
  O  O257  1  0.57227763  0.87293170  0.84885037  1
  O  O258  1  0.12998029  0.42131177  0.31778002  1
  O  O259  1  0.12870943  0.42367683  0.64965311  1
  O  O260  1  0.13911213  0.41859450  0.98882646  1
  O  O261  1  0.12963130  0.91954071  0.31582708  1
  O  O262  1  0.13277118  0.91649079  0.64916658  1
  O  O263  1  0.13020498  0.91877135  0.98544156  1
  O  O264  1  0.62993770  0.42598253  0.31414051  1
  O  O265  1  0.62632089  0.41912482  0.64874085  1
  O  O266  1  0.64618227  0.41230590  0.99812485  1
  O  O267  1  0.63451213  0.91732026  0.31948193  1
  O  O268  1  0.64498640  0.89759415  0.65494083  1
  O  O269  1  0.62645693  0.93068044  0.98289898  1
  O  O270  1  0.02948937  0.20695926  0.09862918  1
  O  O271  1  0.03291243  0.20565849  0.43689675  1
  O  O272  1  0.04887703  0.20162153  0.77461858  1
  O  O273  1  0.03254788  0.69806308  0.10680357  1
  O  O274  1  0.03760711  0.69932344  0.43824761  1
  O  O275  1  0.03312506  0.69937382  0.77198964  1
  O  O276  1  0.51910077  0.19913791  0.09752286  1
  O  O277  1  0.52844213  0.19404025  0.44055725  1
  O  O278  1  0.52505132  0.20911228  0.77735384  1
  O  O279  1  0.52815605  0.69770901  0.10580500  1
  O  O280  1  0.52286747  0.70719612  0.43335213  1
  O  O281  1  0.53154987  0.69895134  0.76585830  1
  O  O282  1  0.30778370  0.46929947  0.06898623  1
  O  O283  1  0.29986518  0.46717988  0.39704429  1
  O  O284  1  0.29426685  0.47448039  0.73242462  1
  O  O285  1  0.29959570  0.97089401  0.06744717  1
  O  O286  1  0.29462740  0.96944706  0.39432686  1
  O  O287  1  0.29615029  0.96008752  0.72227682  1
  O  O288  1  0.81243066  0.47081041  0.06483198  1
  O  O289  1  0.81835183  0.46816416  0.39831610  1
  O  O290  1  0.78896160  0.47186816  0.72643583  1
  O  O291  1  0.79668573  0.96692136  0.06004480  1
  O  O292  1  0.80164943  0.96902253  0.38660827  1
  O  O293  1  0.81467391  0.95404743  0.72942266  1
  O  O294  1  0.46619606  0.30830495  0.23256716  1
  O  O295  1  0.46592175  0.29457575  0.55799908  1
  O  O296  1  0.47080828  0.29365469  0.90556512  1
  O  O297  1  0.46692496  0.80410359  0.23064952  1
  O  O298  1  0.46553523  0.79735847  0.56193997  1
  O  O299  1  0.46125977  0.80662416  0.89641495  1
  O  O300  1  0.96949441  0.30304041  0.23016780  1
  O  O301  1  0.97036077  0.30218726  0.55697229  1
  O  O302  1  0.98029734  0.30258124  0.89901586  1
  O  O303  1  0.96954132  0.79948315  0.22812944  1
  O  O304  1  0.97507413  0.79633702  0.56393387  1
  O  O305  1  0.96282339  0.79719926  0.89696551  1
  O  O306  1  0.19671259  0.03171336  0.26625951  1
  O  O307  1  0.19800014  0.03413511  0.60133316  1
  O  O308  1  0.17754982  0.03426422  0.93064162  1
  O  O309  1  0.20047136  0.53154687  0.27232114  1
  O  O310  1  0.19738263  0.53200677  0.60310690  1
  O  O311  1  0.20370916  0.52908268  0.93911732  1
  O  O312  1  0.70276781  0.02336416  0.26875505  1
  O  O313  1  0.69706205  0.03868142  0.60024615  1
  O  O314  1  0.69384399  0.04521493  0.94241919  1
  O  O315  1  0.71263332  0.54273927  0.27214141  1
  O  O316  1  0.70116078  0.52810222  0.60825231  1
  O  O317  1  0.70878462  0.52163270  0.93805057  1
  O  O318  1  0.08726589  0.09592189  0.03925059  1
  O  O319  1  0.08255735  0.09125806  0.37158685  1
  O  O320  1  0.08985133  0.08685557  0.69705302  1
  O  O321  1  0.08375536  0.58442928  0.04068628  1
  O  O322  1  0.08684639  0.58640279  0.36879292  1
  O  O323  1  0.09138782  0.59208004  0.70597816  1
  O  O324  1  0.57238884  0.08695129  0.03495945  1
  O  O325  1  0.57929235  0.08070256  0.37017145  1
  O  O326  1  0.56134249  0.08778563  0.71103310  1
  O  O327  1  0.58602570  0.58553447  0.04087902  1
  O  O328  1  0.59677964  0.60651433  0.38414449  1
  O  O329  1  0.58782682  0.58842923  0.70165271  1
  O  O330  1  0.40963931  0.40205201  0.13270111  1
  O  O331  1  0.40924829  0.40952128  0.46367176  1
  O  O332  1  0.40277523  0.41210564  0.79009400  1
  O  O333  1  0.40870073  0.91121458  0.13114298  1
  O  O334  1  0.40779624  0.91581705  0.45723228  1
  O  O335  1  0.41051462  0.90852794  0.78864766  1
  O  O336  1  0.92526830  0.42188987  0.13283355  1
  O  O337  1  0.92295763  0.41962001  0.47605665  1
  O  O338  1  0.89800158  0.40839581  0.77842338  1
  O  O339  1  0.91117052  0.91629141  0.12440496  1
  O  O340  1  0.91952271  0.92459966  0.45720976  1
  O  O341  1  0.91551070  0.91112115  0.81531660  1
  O  O342  1  0.41534222  0.41558857  0.30736443  1
  O  O343  1  0.41429013  0.41033852  0.61937459  1
  O  O344  1  0.41111148  0.40228751  0.96248938  1
  O  O345  1  0.41450888  0.91577548  0.29879735  1
  O  O346  1  0.41399475  0.90935188  0.63070523  1
  O  O347  1  0.42961237  0.92350242  0.97719716  1
  O  O348  1  0.91610841  0.41522476  0.29578158  1
  O  O349  1  0.91044303  0.41045447  0.62157953  1
  O  O350  1  0.91969346  0.41164840  0.95566227  1
  O  O351  1  0.91587307  0.91155894  0.29491771  1
  O  O352  1  0.91906842  0.90747936  0.62513152  1
  O  O353  1  0.90748862  0.90930735  0.96482904  1
  O  O354  1  0.08943254  0.09098731  0.19928604  1
  O  O355  1  0.08808234  0.09132710  0.53453951  1
  O  O356  1  0.08014465  0.09500585  0.85623729  1
  O  O357  1  0.08649505  0.58156185  0.20471949  1
  O  O358  1  0.08593098  0.58446547  0.53489499  1
  O  O359  1  0.09194047  0.58694088  0.87995599  1
  O  O360  1  0.58395000  0.06639452  0.20294428  1
  O  O361  1  0.58557927  0.08938613  0.53179542  1
  O  O362  1  0.57845820  0.09715353  0.87560733  1
  O  O363  1  0.59816917  0.58977727  0.20527535  1
  O  O364  1  0.58653615  0.57767812  0.54044914  1
  O  O365  1  0.58978619  0.57015206  0.88044636  1
  O  O366  1  0.14551066  0.22971062  0.06550537  1
  O  O367  1  0.14093708  0.22264181  0.39077356  1
  O  O368  1  0.14702541  0.21981651  0.71881801  1
  O  O369  1  0.13854377  0.71719780  0.05918818  1
  O  O370  1  0.14117542  0.71968208  0.38803239  1
  O  O371  1  0.13795793  0.72767616  0.72555421  1
  O  O372  1  0.63417339  0.21796797  0.05982663  1
  O  O373  1  0.63369386  0.21393309  0.39206761  1
  O  O374  1  0.63228576  0.21331842  0.72764503  1
  O  O375  1  0.63291338  0.71903385  0.05819754  1
  O  O376  1  0.63532941  0.74016206  0.39740186  1
  O  O377  1  0.63950413  0.72220315  0.72259967  1
  O  O378  1  0.27238911  0.36170290  0.10852871  1
  O  O379  1  0.27408636  0.36000775  0.44080727  1
  O  O380  1  0.26842214  0.36574152  0.77405807  1
  O  O381  1  0.27369153  0.86328476  0.11107140  1
  O  O382  1  0.27539600  0.86109635  0.43893582  1
  O  O383  1  0.27758053  0.86042453  0.77600440  1
  O  O384  1  0.79394881  0.36633678  0.11675548  1
  O  O385  1  0.78688353  0.36021191  0.44001494  1
  O  O386  1  0.76583291  0.36326740  0.77004444  1
  O  O387  1  0.78027673  0.86118028  0.11039649  1
  O  O388  1  0.78946029  0.86777449  0.44176202  1
  O  O389  1  0.78000889  0.85431162  0.78026813  1
  O  O390  1  0.36083815  0.28035692  0.27828537  1
  O  O391  1  0.36195680  0.28068742  0.60922857  1
  O  O392  1  0.35791764  0.26858949  0.94203449  1
  O  O393  1  0.36099356  0.78146031  0.27716234  1
  O  O394  1  0.35796997  0.77597457  0.60668013  1
  O  O395  1  0.36094633  0.79299150  0.95088515  1
  O  O396  1  0.86341779  0.28107746  0.27736540  1
  O  O397  1  0.86356024  0.27635307  0.60088729  1
  O  O398  1  0.87489914  0.27855498  0.94782819  1
  O  O399  1  0.86113299  0.77819125  0.27214007  1
  O  O400  1  0.86343246  0.77361684  0.60370999  1
  O  O401  1  0.85611629  0.77473760  0.94227094  1
  O  O402  1  0.22550221  0.14024873  0.22514077  1
  O  O403  1  0.22324465  0.14141877  0.55699865  1
  O  O404  1  0.21867186  0.13902264  0.89010223  1
  O  O405  1  0.21920506  0.63944185  0.22624296  1
  O  O406  1  0.21965704  0.63809339  0.55593303  1
  O  O407  1  0.22470787  0.63937894  0.89598260  1
  O  O408  1  0.71361155  0.13429848  0.22579767  1
  O  O409  1  0.71926116  0.14627715  0.55537229  1
  O  O410  1  0.70812432  0.12958174  0.87040892  1
  O  O411  1  0.72792001  0.64840231  0.22317778  1
  O  O412  1  0.71919290  0.62802179  0.55454984  1
  O  O413  1  0.71774818  0.63017194  0.89044740  1
  O  O414  1  0.48370573  0.32629261  0.03769005  1
  O  O415  1  0.49307324  0.33009999  0.36480992  1
  O  O416  1  0.49485779  0.33750044  0.69348952  1
  O  O417  1  0.49549963  0.82894666  0.03109818  1
  O  O418  1  0.49183404  0.83682333  0.36552536  1
  O  O419  1  0.48967633  0.82672823  0.69543345  1
  O  O420  1  1.00157324  0.34520161  0.03375513  1
  O  O421  1  0.99347133  0.33829247  0.36478372  1
  O  O422  1  0.99432936  0.33513368  0.69011125  1
  O  O423  1  0.98750418  0.82954845  0.02941500  1
  O  O424  1  0.99202510  0.83039465  0.36125614  1
  O  O425  1  0.99038961  0.82938162  0.69744996  1
  O  O426  1  0.16848946  0.01128369  0.13346479  1
  O  O427  1  0.16576552  0.01129507  0.46781826  1
  O  O428  1  0.16341571  0.00926764  0.80094809  1
  O  O429  1  0.16907101  0.50800971  0.13867246  1
  O  O430  1  0.16616649  0.50677260  0.46914494  1
  O  O431  1  0.16688334  0.51078250  0.80592074  1
  O  O432  1  0.66986727  0.00482840  0.13462134  1
  O  O433  1  0.66846438  0.01459736  0.46678491  1
  O  O434  1  0.63698065  -0.00280304  0.80621188  1
  O  O435  1  0.68037194  0.51469156  0.13867457  1
  O  O436  1  0.66069606  0.49438537  0.47205713  1
  O  O437  1  0.66552880  0.50053779  0.80313973  1
  O  O438  1  0.00959098  0.17260442  0.30278711  1
  O  O439  1  0.01195896  0.17062604  0.63888221  1
  O  O440  1  0.02051576  0.17940845  0.96797195  1
  O  O441  1  0.00900302  0.66635605  0.30328463  1
  O  O442  1  0.00894867  0.66619726  0.63764442  1
  O  O443  1  0.00682171  0.66448746  0.97282872  1
  O  O444  1  0.50047846  0.16058080  0.30576183  1
  O  O445  1  0.50111879  0.17205844  0.64136582  1
  O  O446  1  0.50460929  0.17021080  0.96554334  1
  O  O447  1  0.51244904  0.67177382  0.30242334  1
  O  O448  1  0.50947821  0.66462622  0.63194008  1
  O  O449  1  0.50189059  0.65915158  0.97161594  1
  O  O450  1  0.33470263  0.48838388  0.20019688  1
  O  O451  1  0.33008191  0.49029508  0.52987782  1
  O  O452  1  0.33074111  0.49211335  0.86603701  1
  O  O453  1  0.33388913  0.99208545  0.20105806  1
  O  O454  1  0.32943819  0.99105707  0.52829922  1
  O  O455  1  0.33775907  0.99275585  0.85841920  1
  O  O456  1  0.84637560  0.49877283  0.20042296  1
  O  O457  1  0.83169637  0.49190409  0.52983603  1
  O  O458  1  0.83165179  0.48882705  0.85999707  1
  O  O459  1  0.83379050  0.99285510  0.19467519  1
  O  O460  1  0.83984715  1.00390412  0.52192584  1
  O  O461  1  0.82175322  0.98967121  0.86051254  1
