# generated using pymatgen
data_Na31Fe20(SO4)36
_symmetry_space_group_name_H-M   'P 1'
_cell_length_a   18.06973519
_cell_length_b   18.06899525
_cell_length_c   19.71241529
_cell_angle_alpha   107.58262950
_cell_angle_beta   107.56245172
_cell_angle_gamma   90.72171866
_symmetry_Int_Tables_number   1
_chemical_formula_structural   Na31Fe20(SO4)36
_chemical_formula_sum   'Na62 Fe40 S72 O288'
_cell_volume   5811.24137346
_cell_formula_units_Z   2
loop_
 _symmetry_equiv_pos_site_id
 _symmetry_equiv_pos_as_xyz
  1  'x, y, z'
loop_
 _atom_site_type_symbol
 _atom_site_label
 _atom_site_symmetry_multiplicity
 _atom_site_fract_x
 _atom_site_fract_y
 _atom_site_fract_z
 _atom_site_occupancy
  Na  Na0  1  0.12476396  0.37027390  0.08834531  1
  Na  Na1  1  0.13484538  0.37020872  0.42003470  1
  Na  Na2  1  0.12846109  0.36179983  0.74265198  1
  Na  Na3  1  0.13427307  0.86833609  0.08750136  1
  Na  Na4  1  0.13566411  0.86499505  0.41568274  1
  Na  Na5  1  0.13916227  0.86794905  0.75171222  1
  Na  Na6  1  0.63104806  0.36103125  0.07645704  1
  Na  Na7  1  0.61962280  0.36781117  0.40734721  1
  Na  Na8  1  0.63326785  0.36769005  0.75439079  1
  Na  Na9  1  0.66555342  0.85451337  0.09664634  1
  Na  Na10  1  0.65073696  0.86740057  0.42465290  1
  Na  Na11  1  0.63979137  0.85847033  0.74424249  1
  Na  Na12  1  0.37938478  0.12763996  0.25270084  1
  Na  Na13  1  0.35789144  0.12308566  0.56688300  1
  Na  Na14  1  0.37277429  0.13823136  0.91496054  1
  Na  Na15  1  0.36006699  0.63086581  0.24704531  1
  Na  Na16  1  0.36128890  0.62600919  0.57878167  1
  Na  Na17  1  0.36898732  0.62598319  0.91614301  1
  Na  Na18  1  0.86798525  0.14059162  0.25674140  1
  Na  Na19  1  0.86357204  0.12981693  0.57781524  1
  Na  Na20  1  0.86670888  0.14301309  0.92807379  1
  Na  Na21  1  0.86916667  0.64044943  0.25430915  1
  Na  Na22  1  0.84459094  0.64755617  0.57369968  1
  Na  Na23  1  0.85886603  0.64386147  0.92171415  1
  Na  Na24  1  0.99663992  0.51875910  0.72675327  1
  Na  Na25  1  0.49867213  0.04898755  0.10221899  1
  Na  Na26  1  0.98896931  0.02327636  0.08678922  1
  Na  Na27  1  0.98104565  0.50912277  0.42543654  1
  Na  Na28  1  1.00697286  -0.00799196  0.41413711  1
  Na  Na29  1  0.46254407  0.50371104  0.75147723  1
  Na  Na30  1  0.50389352  0.50635263  0.08195057  1
  Na  Na31  1  0.49288693  0.03755104  0.74631762  1
  Na  Na32  1  0.98367051  0.01231337  0.74766570  1
  Na  Na33  1  0.03989547  0.99526324  0.26059092  1
  Na  Na34  1  0.58268857  1.01456404  0.30209562  1
  Na  Na35  1  0.01331567  0.46747018  0.22634025  1
  Na  Na36  1  -0.00303248  0.49163582  0.93084603  1
  Na  Na37  1  0.00968871  0.95974278  0.57421214  1
  Na  Na38  1  0.49365730  0.49387507  0.57712130  1
  Na  Na39  1  0.01051694  0.98653275  0.91422602  1
  Na  Na40  1  0.45975586  0.50930903  0.30596409  1
  Na  Na41  1  0.51468302  0.99823538  0.91578253  1
  Na  Na42  1  0.25944589  0.26127921  0.32576562  1
  Na  Na43  1  0.25646542  0.26027782  -0.00268348  1
  Na  Na44  1  0.25008630  0.74763294  0.00066591  1
  Na  Na45  1  0.76660746  0.76158888  0.32925415  1
  Na  Na46  1  0.24633354  0.74445130  0.33375395  1
  Na  Na47  1  0.25364570  0.75149631  0.66532394  1
  Na  Na48  1  0.74182347  0.24238339  0.67138249  1
  Na  Na49  1  0.74178971  0.24575984  0.00815463  1
  Na  Na50  1  0.73218932  0.23620596  0.34000771  1
  Na  Na51  1  0.26028429  0.26131873  0.65374039  1
  Na  Na52  1  0.25626703  0.26048388  0.49234553  1
  Na  Na53  1  0.25705807  0.75121410  0.83412343  1
  Na  Na54  1  0.25236907  0.74820006  0.49886142  1
  Na  Na55  1  0.25583733  0.25687590  0.82501969  1
  Na  Na56  1  0.74964501  0.74823564  0.83077096  1
  Na  Na57  1  0.73166012  0.23021953  0.50173753  1
  Na  Na58  1  0.25730994  0.26282510  0.16291249  1
  Na  Na59  1  0.24436605  0.74637067  0.16875942  1
  Na  Na60  1  0.73643443  0.24071737  0.17470024  1
  Na  Na61  1  0.73448866  0.24255068  0.84306263  1
  Fe  Fe62  1  0.46971454  0.30093203  0.79072702  1
  Fe  Fe63  1  0.95958635  0.30707424  0.78336241  1
  Fe  Fe64  1  0.46224134  0.30543557  0.45243284  1
  Fe  Fe65  1  0.96412149  0.80591986  0.77772785  1
  Fe  Fe66  1  0.96296512  0.31181506  0.45375456  1
  Fe  Fe67  1  0.47101295  0.29864883  0.12554768  1
  Fe  Fe68  1  0.46931285  0.81065993  0.45677039  1
  Fe  Fe69  1  0.95655684  0.81326577  0.11872389  1
  Fe  Fe70  1  0.46843164  0.80764601  0.78852338  1
  Fe  Fe71  1  0.47009155  0.81233545  0.12551585  1
  Fe  Fe72  1  0.68929449  0.53427324  0.38091177  1
  Fe  Fe73  1  0.68990209  0.54205109  0.04765566  1
  Fe  Fe74  1  0.69025726  0.53517905  0.71388026  1
  Fe  Fe75  1  0.69629737  0.03219124  0.04896569  1
  Fe  Fe76  1  0.20225201  0.52803036  0.37519194  1
  Fe  Fe77  1  0.19316238  0.03480212  0.05004447  1
  Fe  Fe78  1  0.19683198  0.53333054  0.04764635  1
  Fe  Fe79  1  0.18897090  0.03737203  0.71260501  1
  Fe  Fe80  1  0.69011909  0.02943072  0.70855796  1
  Fe  Fe81  1  0.19858005  0.53101287  0.70470961  1
  Fe  Fe82  1  0.03052334  0.69026588  0.20793894  1
  Fe  Fe83  1  0.03047457  0.19655984  0.88477528  1
  Fe  Fe84  1  0.02976209  0.69922112  0.53834538  1
  Fe  Fe85  1  0.53852708  0.68900529  0.54648832  1
  Fe  Fe86  1  0.53516298  0.69614250  0.21885779  1
  Fe  Fe87  1  0.53654577  0.69380066  0.88641495  1
  Fe  Fe88  1  0.03515636  0.69318174  0.87653967  1
  Fe  Fe89  1  0.53658099  0.18353149  0.54247283  1
  Fe  Fe90  1  0.03279943  0.19032332  0.54635226  1
  Fe  Fe91  1  0.02868904  0.20250354  0.21669394  1
  Fe  Fe92  1  0.80098062  0.46679845  0.61476208  1
  Fe  Fe93  1  0.80531324  0.95849237  0.60894221  1
  Fe  Fe94  1  0.30954864  0.46210179  0.95533043  1
  Fe  Fe95  1  0.80429364  0.46719120  0.28118422  1
  Fe  Fe96  1  0.29991651  0.96952212  0.29148739  1
  Fe  Fe97  1  0.80974070  0.96306273  0.95133025  1
  Fe  Fe98  1  0.80827153  0.46851483  0.95561293  1
  Fe  Fe99  1  0.81181385  0.96567764  0.29162491  1
  Fe  Fe100  1  0.30565588  0.96579164  0.61761586  1
  Fe  Fe101  1  0.30934497  0.96701525  0.95544559  1
  S  S102  1  0.35358964  0.14046707  0.08122191  1
  S  S103  1  0.35675243  0.14071134  0.41826706  1
  S  S104  1  0.35569541  0.13973192  0.74682326  1
  S  S105  1  0.36184106  0.64185658  0.08365712  1
  S  S106  1  0.36452063  0.64339891  0.41832556  1
  S  S107  1  0.36198627  0.64409102  0.75278298  1
  S  S108  1  0.85897398  0.14064300  0.08287440  1
  S  S109  1  0.86043464  0.14564136  0.41540533  1
  S  S110  1  0.85784333  0.13729812  0.75060041  1
  S  S111  1  0.85777048  0.64272141  0.07930790  1
  S  S112  1  0.85725933  0.63689697  0.41619675  1
  S  S113  1  0.86077000  0.63965633  0.74816306  1
  S  S114  1  0.14082445  0.35598509  0.25248977  1
  S  S115  1  0.13538314  0.35832047  0.58567643  1
  S  S116  1  0.13649910  0.36033324  0.91449514  1
  S  S117  1  0.13649288  0.85667738  0.24608467  1
  S  S118  1  0.14457426  0.85915011  0.58564500  1
  S  S119  1  0.14208091  0.86009972  0.91567674  1
  S  S120  1  0.64205265  0.36114289  0.24686687  1
  S  S121  1  0.63873369  0.35927892  0.58244130  1
  S  S122  1  0.64127726  0.36580020  0.91769458  1
  S  S123  1  0.64547590  0.85298773  0.25026323  1
  S  S124  1  0.64311063  0.85413587  0.58285533  1
  S  S125  1  0.64249199  0.85839107  0.91729674  1
  S  S126  1  0.06672575  0.16525885  0.04173205  1
  S  S127  1  0.06266818  0.17164422  0.37955316  1
  S  S128  1  0.06165129  0.16744509  0.71051753  1
  S  S129  1  0.06948672  0.66931882  0.03792349  1
  S  S130  1  0.07216462  0.66359345  0.37023400  1
  S  S131  1  0.07346130  0.67557457  0.70860345  1
  S  S132  1  0.56439288  0.16333046  0.03839630  1
  S  S133  1  0.56988731  0.17646570  0.38586095  1
  S  S134  1  0.56800544  0.16986116  0.70820212  1
  S  S135  1  0.56418838  0.67111589  0.04401413  1
  S  S136  1  0.56724307  0.67165161  0.37572387  1
  S  S137  1  0.56446151  0.66878761  0.70991847  1
  S  S138  1  0.33180766  0.43209274  0.12407469  1
  S  S139  1  0.32985240  0.43288360  0.46191105  1
  S  S140  1  0.32730270  0.42827701  0.79031947  1
  S  S141  1  0.32613606  0.93107727  0.12398642  1
  S  S142  1  0.32694896  0.92494719  0.45589290  1
  S  S143  1  0.33255661  0.93469694  0.79269985  1
  S  S144  1  0.82606914  0.43823034  0.12009616  1
  S  S145  1  0.82504045  0.43068513  0.45543646  1
  S  S146  1  0.82968876  0.43513402  0.78977891  1
  S  S147  1  0.84309783  0.93991363  0.12918175  1
  S  S148  1  0.83971954  0.93922226  0.45609891  1
  S  S149  1  0.83500398  0.93414865  0.79438839  1
  S  S150  1  0.42769529  0.31905266  0.28579383  1
  S  S151  1  0.44015045  0.32804072  0.62514555  1
  S  S152  1  0.43053275  0.32732511  0.95904048  1
  S  S153  1  0.42643626  0.82799163  0.28913416  1
  S  S154  1  0.43389575  0.83218969  0.62861508  1
  S  S155  1  0.43530321  0.83578762  0.96218948  1
  S  S156  1  0.92986759  0.33581971  0.29229809  1
  S  S157  1  0.92376798  0.33110760  0.62365268  1
  S  S158  1  0.93042640  0.33020242  0.95284366  1
  S  S159  1  0.93836293  0.83247782  0.29068440  1
  S  S160  1  0.93962342  0.83403269  0.62886530  1
  S  S161  1  0.93709329  0.83128931  0.95485450  1
  S  S162  1  0.16518991  0.06872456  0.20832103  1
  S  S163  1  0.16366884  0.06369065  0.54347735  1
  S  S164  1  0.16691579  0.06806442  0.87586222  1
  S  S165  1  0.16794457  0.56789608  0.20533530  1
  S  S166  1  0.16871302  0.57323646  0.53906031  1
  S  S167  1  0.17269832  0.56795110  0.87217653  1
  S  S168  1  0.67719498  0.05909943  0.21030883  1
  S  S169  1  0.67510997  0.06325453  0.54527797  1
  S  S170  1  0.67137346  0.05860428  0.87401411  1
  S  S171  1  0.66974749  0.57037611  0.20937816  1
  S  S172  1  0.66271436  0.56336540  0.54133523  1
  S  S173  1  0.66651899  0.57081838  0.87115430  1
  O  O174  1  0.36531680  0.22073690  0.07658292  1
  O  O175  1  0.36742237  0.22184100  0.41122362  1
  O  O176  1  0.36449862  0.22063394  0.74246422  1
  O  O177  1  0.37015506  0.72038138  0.07467046  1
  O  O178  1  0.36998162  0.72564015  0.41550060  1
  O  O179  1  0.36884358  0.72698375  0.75142587  1
  O  O180  1  0.86597919  0.21386799  0.06777179  1
  O  O181  1  0.87353617  0.22208604  0.40186847  1
  O  O182  1  0.86621572  0.21489784  0.73938975  1
  O  O183  1  0.87228284  0.71829244  0.06672074  1
  O  O184  1  0.86387355  0.71056082  0.40235752  1
  O  O185  1  0.87136433  0.71967879  0.74459124  1
  O  O186  1  0.27201535  0.13313854  0.08463101  1
  O  O187  1  0.28424816  0.13438352  0.43523894  1
  O  O188  1  0.27573781  0.13105869  0.75500384  1
  O  O189  1  0.28155195  0.63225078  0.08965460  1
  O  O190  1  0.28463744  0.63022612  0.42412752  1
  O  O191  1  0.28164579  0.63209112  0.75768751  1
  O  O192  1  0.77921383  0.12903588  0.09020730  1
  O  O193  1  0.78207179  0.14134833  0.42132144  1
  O  O194  1  0.77902666  0.12934337  0.75884316  1
  O  O195  1  0.77851443  0.63531391  0.08479646  1
  O  O196  1  0.78028074  0.62206791  0.42657689  1
  O  O197  1  0.78231280  0.62907183  0.75646855  1
  O  O198  1  0.12542057  0.28038769  0.26752767  1
  O  O199  1  0.11791065  0.28322449  0.60059203  1
  O  O200  1  0.12723651  0.28313811  0.92636711  1
  O  O201  1  0.13010447  0.77459148  0.24883875  1
  O  O202  1  0.13249337  0.78060665  0.59377613  1
  O  O203  1  0.13423404  0.77931665  0.91994732  1
  O  O204  1  0.64090337  0.28412982  0.25639778  1
  O  O205  1  0.63312825  0.27888761  0.58819291  1
  O  O206  1  0.64077806  0.28930804  0.92902823  1
  O  O207  1  0.63492879  0.77064255  0.25139982  1
  O  O208  1  0.63008894  0.77655353  0.59181468  1
  O  O209  1  0.63021880  0.77888076  0.92129740  1
  O  O210  1  0.22025741  0.35762007  0.24837700  1
  O  O211  1  0.21351437  0.35808298  0.57855212  1
  O  O212  1  0.21654219  0.36758918  0.90824098  1
  O  O213  1  0.21451898  0.86803753  0.23575605  1
  O  O214  1  0.22749402  0.86569687  0.58491452  1
  O  O215  1  0.22091810  0.87089384  0.90724392  1
  O  O216  1  0.71853675  0.37638540  0.23416499  1
  O  O217  1  0.71527354  0.36957781  0.57006416  1
  O  O218  1  0.71754216  0.38061280  0.90386323  1
  O  O219  1  0.72476666  0.86384095  0.24409249  1
  O  O220  1  0.72235619  0.86353050  0.57650555  1
  O  O221  1  0.72120326  0.86687374  0.90836117  1
  O  O222  1  0.40939635  0.12616679  0.14547561  1
  O  O223  1  0.42243193  0.12896898  0.47973259  1
  O  O224  1  0.41432575  0.12634557  0.81017213  1
  O  O225  1  0.41958010  0.63450250  0.15239214  1
  O  O226  1  0.42230639  0.63723065  0.48838830  1
  O  O227  1  0.41889619  0.63649731  0.82302567  1
  O  O228  1  0.91688096  0.13642151  0.15395305  1
  O  O229  1  0.91854825  0.14161069  0.48695502  1
  O  O230  1  0.91700496  0.13157415  0.82024124  1
  O  O231  1  0.91501232  0.63660092  0.14927704  1
  O  O232  1  0.91845695  0.63301917  0.48635318  1
  O  O233  1  0.92116339  0.62866246  0.81477305  1
  O  O234  1  0.35997901  0.08381097  0.01000338  1
  O  O235  1  0.35623484  0.08405923  0.34524133  1
  O  O236  1  0.36037911  0.08361413  0.67493350  1
  O  O237  1  0.37035845  0.58127798  0.01676538  1
  O  O238  1  0.37502637  0.58925937  0.35115764  1
  O  O239  1  0.37484578  0.58913128  0.68727847  1
  O  O240  1  0.87141306  0.07541482  0.01957771  1
  O  O241  1  0.87286548  0.08324897  0.35178116  1
  O  O242  1  0.86908139  0.07627312  0.68539843  1
  O  O243  1  0.86779690  0.58061714  0.01285486  1
  O  O244  1  0.86946364  0.57239653  0.35204441  1
  O  O245  1  0.86850011  0.58172870  0.67888945  1
  O  O246  1  0.08313128  0.36216200  0.18436631  1
  O  O247  1  0.07750511  0.36668352  0.51720613  1
  O  O248  1  0.07905937  0.36513086  0.84422895  1
  O  O249  1  0.07619142  0.86519046  0.17782037  1
  O  O250  1  0.09040862  0.86917266  0.51830536  1
  O  O251  1  0.08221767  0.87151748  0.85012244  1
  O  O252  1  0.58045614  0.36591904  0.17849041  1
  O  O253  1  0.57562935  0.37108998  0.51867499  1
  O  O254  1  0.57905989  0.36819322  0.84882335  1
  O  O255  1  0.58725895  0.86334194  0.18178818  1
  O  O256  1  0.58557917  0.86218759  0.51402134  1
  O  O257  1  0.58299486  0.87051681  0.85075537  1
  O  O258  1  0.13232240  0.41971639  0.31902311  1
  O  O259  1  0.12969815  0.42215082  0.65249238  1
  O  O260  1  0.12643197  0.42260486  0.97954704  1
  O  O261  1  0.12819784  0.91268179  0.31350100  1
  O  O262  1  0.13557376  0.91880921  0.65418820  1
  O  O263  1  0.13464122  0.91640001  0.98542208  1
  O  O264  1  0.63266168  0.42138818  0.31417553  1
  O  O265  1  0.63483604  0.41604090  0.65363016  1
  O  O266  1  0.63194485  0.42677675  0.98405003  1
  O  O267  1  0.63474086  0.90637700  0.31817930  1
  O  O268  1  0.63485860  0.91394654  0.65084869  1
  O  O269  1  0.63630626  0.91660773  0.98659792  1
  O  O270  1  0.03347203  0.18313767  0.10320940  1
  O  O271  1  0.03008099  0.20989977  0.44294181  1
  O  O272  1  0.02643020  0.19734368  0.77259586  1
  O  O273  1  0.03314319  0.69608295  0.09804273  1
  O  O274  1  0.03756859  0.68728850  0.43126366  1
  O  O275  1  0.03277322  0.70345637  0.76797232  1
  O  O276  1  0.52963092  0.19261266  0.09982462  1
  O  O277  1  0.52782461  0.21322022  0.44393825  1
  O  O278  1  0.53045147  0.19871580  0.76695959  1
  O  O279  1  0.52684778  0.70242112  0.10446804  1
  O  O280  1  0.53188492  0.70222517  0.43784625  1
  O  O281  1  0.52745776  0.69862027  0.77084685  1
  O  O282  1  0.29885301  0.46709444  0.05963806  1
  O  O283  1  0.30282833  0.46736416  0.40077875  1
  O  O284  1  0.30151396  0.47083473  0.73541940  1
  O  O285  1  0.29777389  0.96988782  0.06330859  1
  O  O286  1  0.30258837  0.95784304  0.39394502  1
  O  O287  1  0.30445881  0.97118571  0.73218537  1
  O  O288  1  0.79043104  0.47623448  0.05979731  1
  O  O289  1  0.79305540  0.46311099  0.39206451  1
  O  O290  1  0.79914503  0.46987025  0.72760025  1
  O  O291  1  0.80541124  0.96875708  0.06357872  1
  O  O292  1  0.80380323  0.97524106  0.39761238  1
  O  O293  1  0.80285605  0.96632729  0.73151271  1
  O  O294  1  0.47076230  0.29588261  0.23083914  1
  O  O295  1  0.47385063  0.29099030  0.56231524  1
  O  O296  1  0.46284157  0.30467395  0.89683757  1
  O  O297  1  0.46712868  0.79945940  0.22985285  1
  O  O298  1  0.47035526  0.80475807  0.56814834  1
  O  O299  1  0.47115954  0.80483467  0.90080417  1
  O  O300  1  0.96484614  0.30382436  0.23264038  1
  O  O301  1  0.95831169  0.30431757  0.56208794  1
  O  O302  1  0.96316464  0.29711759  0.88685352  1
  O  O303  1  0.96675773  0.79823992  0.22281298  1
  O  O304  1  0.97325150  0.80454595  0.56752949  1
  O  O305  1  0.97580155  0.80209241  0.89527046  1
  O  O306  1  0.19403294  0.02979340  0.26561031  1
  O  O307  1  0.19763169  0.02882447  0.60684763  1
  O  O308  1  0.19619559  0.02947091  0.93492988  1
  O  O309  1  0.19525714  0.53401200  0.26622270  1
  O  O310  1  0.19153815  0.53930374  0.60066595  1
  O  O311  1  0.20038416  0.53151766  0.93333374  1
  O  O312  1  0.71205332  0.02356138  0.26978169  1
  O  O313  1  0.70779642  0.02782178  0.60923663  1
  O  O314  1  0.70725419  0.02525658  0.93730532  1
  O  O315  1  0.69804111  0.53406205  0.27049443  1
  O  O316  1  0.69675685  0.52819316  0.60405208  1
  O  O317  1  0.69728445  0.54032562  0.93546661  1
  O  O318  1  0.08501010  0.08101466  0.02577530  1
  O  O319  1  0.06813293  0.08930787  0.37518949  1
  O  O320  1  0.07596856  0.08385301  0.70367617  1
  O  O321  1  0.09143056  0.58849524  0.03061214  1
  O  O322  1  0.09113842  0.58103293  0.35705237  1
  O  O323  1  0.09195671  0.59484870  0.70578378  1
  O  O324  1  0.58885209  0.08270229  0.04036514  1
  O  O325  1  0.60904979  0.11402247  0.41008333  1
  O  O326  1  0.59093086  0.09051990  0.70954433  1
  O  O327  1  0.58077713  0.58954612  0.04194599  1
  O  O328  1  0.58508844  0.59013462  0.37246044  1
  O  O329  1  0.58013533  0.58581874  0.70279165  1
  O  O330  1  0.40732482  0.40305431  0.11940436  1
  O  O331  1  0.40895462  0.40293433  0.46168415  1
  O  O332  1  0.40583070  0.40395594  0.79039013  1
  O  O333  1  0.40702601  0.91313942  0.12877787  1
  O  O334  1  0.40819015  0.90554739  0.46882549  1
  O  O335  1  0.41488356  0.91685766  0.80081221  1
  O  O336  1  0.90513408  0.42345565  0.12124765  1
  O  O337  1  0.90804027  0.41760756  0.46176174  1
  O  O338  1  0.91266763  0.41920347  0.79673485  1
  O  O339  1  0.92804007  0.93216207  0.13297201  1
  O  O340  1  0.92213489  0.93016975  0.46038663  1
  O  O341  1  0.91770738  0.91696306  0.79681578  1
  O  O342  1  0.40167543  0.39581599  0.29180839  1
  O  O343  1  0.43624875  0.41112524  0.63225855  1
  O  O344  1  0.41467859  0.41151722  0.97523018  1
  O  O345  1  0.40079972  0.90484615  0.28839442  1
  O  O346  1  0.41362383  0.91361527  0.63692518  1
  O  O347  1  0.41991628  0.91870335  0.96731735  1
  O  O348  1  0.91391796  0.41852693  0.29593183  1
  O  O349  1  0.90609425  0.41363340  0.63308537  1
  O  O350  1  0.90927995  0.40986752  0.95109470  1
  O  O351  1  0.91502913  0.91256666  0.28925863  1
  O  O352  1  0.91883934  0.91569987  0.63108040  1
  O  O353  1  0.92378354  0.91519214  0.96183588  1
  O  O354  1  0.08352787  0.08804165  0.20625718  1
  O  O355  1  0.08332588  0.08424289  0.54601323  1
  O  O356  1  0.08358497  0.08300652  0.86948270  1
  O  O357  1  0.08547787  0.58544548  0.19470745  1
  O  O358  1  0.08657683  0.59331766  0.52649778  1
  O  O359  1  0.09027307  0.58619738  0.86432662  1
  O  O360  1  0.59656779  0.07132158  0.20935868  1
  O  O361  1  0.59841885  0.08841019  0.54950170  1
  O  O362  1  0.58806634  0.06242757  0.86500492  1
  O  O363  1  0.58865372  0.59102324  0.20486007  1
  O  O364  1  0.58119351  0.57814144  0.54077682  1
  O  O365  1  0.58374816  0.58719716  0.86354823  1
  O  O366  1  0.13626617  0.21908700  0.05726782  1
  O  O367  1  0.13754494  0.21674601  0.39420558  1
  O  O368  1  0.13482764  0.21679808  0.72787659  1
  O  O369  1  0.13929582  0.72397507  0.05350163  1
  O  O370  1  0.14323277  0.71782485  0.38780911  1
  O  O371  1  0.14570764  0.72914264  0.73086956  1
  O  O372  1  0.63554079  0.21629034  0.05356337  1
  O  O373  1  0.62956522  0.23850785  0.39323912  1
  O  O374  1  0.63917159  0.22350249  0.72401959  1
  O  O375  1  0.63408078  0.72065389  0.05609431  1
  O  O376  1  0.63565306  0.72295095  0.38620164  1
  O  O377  1  0.63666899  0.71946856  0.72794486  1
  O  O378  1  0.27272282  0.36648280  0.10999154  1
  O  O379  1  0.27384842  0.36416258  0.44737811  1
  O  O380  1  0.27029287  0.35902545  0.77199074  1
  O  O381  1  0.27264687  0.85917846  0.10340667  1
  O  O382  1  0.27217272  0.85491090  0.44059606  1
  O  O383  1  0.28021923  0.86306098  0.77576141  1
  O  O384  1  0.77366375  0.36680349  0.10407891  1
  O  O385  1  0.77706279  0.35822944  0.44276774  1
  O  O386  1  0.77953737  0.36274751  0.77394394  1
  O  O387  1  0.80349492  0.86409540  0.11774681  1
  O  O388  1  0.79307430  0.86539683  0.44262277  1
  O  O389  1  0.78674201  0.86433950  0.78656136  1
  O  O390  1  0.36067061  0.25874452  0.26605346  1
  O  O391  1  0.36337079  0.28307363  0.60659523  1
  O  O392  1  0.35612012  0.27655529  0.93967122  1
  O  O393  1  0.35850306  0.76969833  0.27095943  1
  O  O394  1  0.36393101  0.77764998  0.61255159  1
  O  O395  1  0.36184093  0.78593434  0.94490458  1
  O  O396  1  0.85738257  0.28700686  0.27967492  1
  O  O397  1  0.85357384  0.27871389  0.60961317  1
  O  O398  1  0.85892612  0.27841966  0.93751289  1
  O  O399  1  0.87175801  0.78027270  0.28293950  1
  O  O400  1  0.87307292  0.78368758  0.62365967  1
  O  O401  1  0.86355788  0.78224190  0.93468010  1
  O  O402  1  0.21657746  0.13846634  0.22016732  1
  O  O403  1  0.21507203  0.13484979  0.55835882  1
  O  O404  1  0.21676962  0.14072129  0.89265814  1
  O  O405  1  0.22020773  0.63971836  0.22024704  1
  O  O406  1  0.22348570  0.64418507  0.55714222  1
  O  O407  1  0.22573856  0.63989061  0.89094301  1
  O  O408  1  0.72490461  0.13368878  0.22488342  1
  O  O409  1  0.73083337  0.13370540  0.56363216  1
  O  O410  1  0.71617647  0.13545234  0.89260615  1
  O  O411  1  0.72486213  0.63773235  0.22353548  1
  O  O412  1  0.71117118  0.63443139  0.55465411  1
  O  O413  1  0.71676579  0.64008625  0.87993281  1
  O  O414  1  0.48869626  0.31996192  0.02809604  1
  O  O415  1  0.48475192  0.31993942  0.36111731  1
  O  O416  1  0.49443727  0.32169393  0.69691021  1
  O  O417  1  0.49302338  0.83582118  0.03390476  1
  O  O418  1  0.48557853  0.83298857  0.36195841  1
  O  O419  1  0.49405099  0.83371051  0.70101648  1
  O  O420  1  0.99208325  0.33439486  0.02107614  1
  O  O421  1  0.98898631  0.34227907  0.36728315  1
  O  O422  1  0.98524978  0.33200680  0.69541130  1
  O  O423  1  0.99261288  0.83040082  0.02780085  1
  O  O424  1  1.00473952  0.84434705  0.35873691  1
  O  O425  1  1.00322823  0.84562381  0.70341194  1
  O  O426  1  0.15638466  0.00946468  0.13194669  1
  O  O427  1  0.15425717  0.00297360  0.47228930  1
  O  O428  1  0.16603019  0.01033694  0.80262282  1
  O  O429  1  0.17002563  0.50832744  0.13364141  1
  O  O430  1  0.17180756  0.51333364  0.46884116  1
  O  O431  1  0.17202823  0.51010848  0.79989503  1
  O  O432  1  0.67591071  0.00222580  0.13588786  1
  O  O433  1  0.66974645  0.00290328  0.47578697  1
  O  O434  1  0.67977445  0.00301875  0.80361256  1
  O  O435  1  0.66192298  0.50923402  0.13549751  1
  O  O436  1  0.65916219  0.50300411  0.46891462  1
  O  O437  1  0.66425826  0.50682332  0.80044160  1
  O  O438  1  0.00508321  0.17543365  0.30777412  1
  O  O439  1  0.00334099  0.16917322  0.63952039  1
  O  O440  1  0.00539074  0.16644223  0.97064275  1
  O  O441  1  0.01190612  0.66720650  0.29978326  1
  O  O442  1  0.01741777  0.67641079  0.63675068  1
  O  O443  1  0.00954228  0.66537436  0.96453651  1
  O  O444  1  0.51170960  0.14740039  0.31138254  1
  O  O445  1  0.51059030  0.16209046  0.63345290  1
  O  O446  1  0.50631171  0.15067418  0.96462444  1
  O  O447  1  0.50375246  0.66523964  0.30342120  1
  O  O448  1  0.50633985  0.66827374  0.63750508  1
  O  O449  1  0.50342133  0.66645384  0.97069966  1
  O  O450  1  0.34401398  0.49517442  0.19464870  1
  O  O451  1  0.34435036  0.49211870  0.53552490  1
  O  O452  1  0.33450536  0.48369292  0.86713842  1
  O  O453  1  0.32381058  0.98843184  0.19508474  1
  O  O454  1  0.32387455  0.98611868  0.52614528  1
  O  O455  1  0.33272902  0.99335900  0.86494970  1
  O  O456  1  0.82681572  0.49691847  0.19327381  1
  O  O457  1  0.82472805  0.49198935  0.52627949  1
  O  O458  1  0.83104746  0.49514580  0.86151293  1
  O  O459  1  0.84213716  1.00004122  0.19935155  1
  O  O460  1  0.84053452  0.99491770  0.53205088  1
  O  O461  1  0.84360954  0.99676443  0.86779875  1
