# generated using pymatgen
data_Na31Fe20(SO4)36
_symmetry_space_group_name_H-M   'P 1'
_cell_length_a   18.06044760
_cell_length_b   18.06937477
_cell_length_c   19.68997467
_cell_angle_alpha   107.60204601
_cell_angle_beta   107.57786547
_cell_angle_gamma   90.67338572
_symmetry_Int_Tables_number   1
_chemical_formula_structural   Na31Fe20(SO4)36
_chemical_formula_sum   'Na62 Fe40 S72 O288'
_cell_volume   5801.12399284
_cell_formula_units_Z   2
loop_
 _symmetry_equiv_pos_site_id
 _symmetry_equiv_pos_as_xyz
  1  'x, y, z'
loop_
 _atom_site_type_symbol
 _atom_site_label
 _atom_site_symmetry_multiplicity
 _atom_site_fract_x
 _atom_site_fract_y
 _atom_site_fract_z
 _atom_site_occupancy
  Na  Na0  1  0.13694684  0.36605706  0.08918471  1
  Na  Na1  1  0.12875408  0.34856615  0.39544408  1
  Na  Na2  1  0.13176208  0.36762244  0.74873821  1
  Na  Na3  1  0.11816645  0.85792279  0.06792650  1
  Na  Na4  1  0.13876377  0.87042072  0.42408988  1
  Na  Na5  1  0.14890375  0.87217819  0.76404309  1
  Na  Na6  1  0.63907088  0.36555206  0.08524943  1
  Na  Na7  1  0.62702180  0.37000071  0.41433170  1
  Na  Na8  1  0.64493337  0.36616145  0.75673769  1
  Na  Na9  1  0.65939803  0.85788426  0.08913886  1
  Na  Na10  1  0.63853064  0.86736800  0.41922911  1
  Na  Na11  1  0.62374998  0.86483224  0.75435702  1
  Na  Na12  1  0.35277532  0.13235006  0.24532058  1
  Na  Na13  1  0.36301842  0.12751913  0.58049613  1
  Na  Na14  1  0.37019123  0.12461547  0.92072690  1
  Na  Na15  1  0.37129855  0.63015669  0.24965879  1
  Na  Na16  1  0.37119590  0.63345907  0.58835381  1
  Na  Na17  1  0.35829346  0.63613449  0.91384854  1
  Na  Na18  1  0.87166404  0.13813605  0.23686179  1
  Na  Na19  1  0.86881554  0.13829088  0.58992359  1
  Na  Na20  1  0.86349067  0.13420503  0.91439649  1
  Na  Na21  1  0.86214014  0.63903943  0.24219805  1
  Na  Na22  1  0.86793682  0.63921948  0.58807674  1
  Na  Na23  1  0.86788478  0.65541968  0.93512556  1
  Na  Na24  1  0.98910859  0.54943607  0.75925985  1
  Na  Na25  1  0.99226610  0.51156473  0.08749983  1
  Na  Na26  1  0.49137882  0.50433338  0.09664985  1
  Na  Na27  1  0.98769356  0.02021626  0.08085363  1
  Na  Na28  1  0.48755300  0.00762217  0.42612606  1
  Na  Na29  1  0.51280594  0.50753244  0.73821592  1
  Na  Na30  1  0.99179886  -0.00976319  0.78374506  1
  Na  Na31  1  0.52506706  -0.02612830  -0.05620817  1
  Na  Na32  1  0.98599594  0.01185042  0.41037075  1
  Na  Na33  1  0.01809420  0.98632428  0.59098040  1
  Na  Na34  1  0.01004802  0.49625523  0.57111870  1
  Na  Na35  1  0.50330477  1.00130406  0.22106794  1
  Na  Na36  1  0.01709467  0.96938059  0.23716930  1
  Na  Na37  1  0.44677894  0.98908001  0.71504486  1
  Na  Na38  1  -0.01219337  0.51921721  0.91414111  1
  Na  Na39  1  0.00292909  0.48308276  0.26775799  1
  Na  Na40  1  0.53684851  0.49254315  0.57174858  1
  Na  Na41  1  0.51018866  0.49600694  0.91359533  1
  Na  Na42  1  0.74195236  0.24070238  0.68138001  1
  Na  Na43  1  0.75822790  0.75941131  0.32341457  1
  Na  Na44  1  0.25676443  0.75637355  0.32896002  1
  Na  Na45  1  0.27665886  0.77212569  0.66439887  1
  Na  Na46  1  0.75146888  0.24351808  -0.00504506  1
  Na  Na47  1  0.23973257  0.75480175  -0.01159017  1
  Na  Na48  1  0.74718072  0.24553966  0.33238817  1
  Na  Na49  1  0.24564678  0.24067297  0.00774676  1
  Na  Na50  1  0.24815640  0.24970145  0.66588531  1
  Na  Na51  1  0.73218333  0.73151536  0.67718902  1
  Na  Na52  1  0.74154183  0.23858698  0.16551771  1
  Na  Na53  1  0.74555896  0.24935042  0.50528943  1
  Na  Na54  1  0.24665758  0.75045197  0.15964197  1
  Na  Na55  1  0.28068225  0.78243916  0.83535905  1
  Na  Na56  1  0.25502825  0.25716604  0.48438917  1
  Na  Na57  1  0.25274141  0.24646844  0.83769971  1
  Na  Na58  1  0.73668490  0.73570068  0.84667742  1
  Na  Na59  1  0.26862048  0.77205913  0.49924782  1
  Na  Na60  1  0.74381254  0.74373894  0.50342251  1
  Na  Na61  1  0.22680361  0.23742134  0.18764695  1
  Fe  Fe62  1  0.46211961  0.30937291  0.12097292  1
  Fe  Fe63  1  0.46554134  0.81193656  0.45480233  1
  Fe  Fe64  1  0.46579665  0.80410846  0.11641733  1
  Fe  Fe65  1  0.96559003  0.30853014  0.78725583  1
  Fe  Fe66  1  0.96462601  0.30290951  0.44883019  1
  Fe  Fe67  1  0.97090579  0.29867579  0.11976787  1
  Fe  Fe68  1  0.46660449  0.30567438  0.78588426  1
  Fe  Fe69  1  0.96529231  0.80814608  0.45219037  1
  Fe  Fe70  1  0.46254727  0.30693808  0.44979290  1
  Fe  Fe71  1  0.96675691  0.80345102  0.79439831  1
  Fe  Fe72  1  0.19545179  0.53976085  0.38488528  1
  Fe  Fe73  1  0.69363178  0.53807903  0.04851256  1
  Fe  Fe74  1  0.19031033  0.53741277  0.71700765  1
  Fe  Fe75  1  0.68934188  0.53571130  0.37642999  1
  Fe  Fe76  1  0.69284384  0.03443911  0.37897694  1
  Fe  Fe77  1  0.19100622  0.53342255  0.04723116  1
  Fe  Fe78  1  0.68909405  0.03467055  0.71484017  1
  Fe  Fe79  1  0.19884500  0.03031041  0.04297877  1
  Fe  Fe80  1  0.19259101  0.03510913  0.38035461  1
  Fe  Fe81  1  0.20442481  0.03003895  0.71245362  1
  Fe  Fe82  1  0.53389166  0.19047182  0.20964913  1
  Fe  Fe83  1  0.03441765  0.19393132  0.54731242  1
  Fe  Fe84  1  0.03606987  0.69111879  0.54582457  1
  Fe  Fe85  1  0.53508140  0.69042389  0.54582545  1
  Fe  Fe86  1  0.53390688  0.69361895  0.87638709  1
  Fe  Fe87  1  0.03017843  0.70083821  0.21189988  1
  Fe  Fe88  1  0.53799498  0.69378698  0.21383021  1
  Fe  Fe89  1  0.03499050  0.19354535  0.88076539  1
  Fe  Fe90  1  0.53612038  0.18874889  0.88067405  1
  Fe  Fe91  1  0.53411661  0.19469842  0.54978027  1
  Fe  Fe92  1  0.80570178  0.46219584  0.94957370  1
  Fe  Fe93  1  0.30576564  0.46628310  0.61842935  1
  Fe  Fe94  1  0.79443219  0.96571237  0.95878068  1
  Fe  Fe95  1  0.31039176  0.46513563  0.28750345  1
  Fe  Fe96  1  0.80435345  0.96642268  0.27203922  1
  Fe  Fe97  1  0.30658418  0.96227757  0.28351039  1
  Fe  Fe98  1  0.80288651  0.47162244  0.62368836  1
  Fe  Fe99  1  0.30743104  0.46438083  0.95129375  1
  Fe  Fe100  1  0.80795631  0.96393149  0.62277508  1
  Fe  Fe101  1  0.80794263  0.46498446  0.28761028  1
  S  S102  1  0.35971764  0.14218549  0.08870170  1
  S  S103  1  0.36089410  0.13961701  0.41749498  1
  S  S104  1  0.35988087  0.14599655  0.74916537  1
  S  S105  1  0.36053490  0.63806282  0.08389136  1
  S  S106  1  0.36009500  0.64001043  0.41615339  1
  S  S107  1  0.35866422  0.63644763  0.75437050  1
  S  S108  1  0.85856428  0.14099498  0.07330028  1
  S  S109  1  0.85835410  0.14012258  0.41883232  1
  S  S110  1  0.86084389  0.13748036  0.74948588  1
  S  S111  1  0.86468421  0.63234831  0.08345054  1
  S  S112  1  0.85998240  0.64119247  0.41576744  1
  S  S113  1  0.85735195  0.64525430  0.74974362  1
  S  S114  1  0.13848553  0.36784439  0.25173669  1
  S  S115  1  0.13811699  0.36226210  0.58149828  1
  S  S116  1  0.14213457  0.35776827  0.91732893  1
  S  S117  1  0.14397096  0.85790099  0.25370527  1
  S  S118  1  0.13897586  0.85867608  0.58644716  1
  S  S119  1  0.13399691  0.86123570  0.91287671  1
  S  S120  1  0.63982606  0.35969551  0.24807306  1
  S  S121  1  0.63911364  0.35713197  0.58326955  1
  S  S122  1  0.63916302  0.36109391  0.91696735  1
  S  S123  1  0.64040183  0.86244177  0.25066228  1
  S  S124  1  0.64203206  0.85935805  0.58183941  1
  S  S125  1  0.63798975  0.85303370  0.91644710  1
  S  S126  1  0.07555184  0.17207226  0.04358376  1
  S  S127  1  0.06210467  0.16414574  0.37512299  1
  S  S128  1  0.07212168  0.17131479  0.70997034  1
  S  S129  1  0.06865996  0.66276679  0.04233110  1
  S  S130  1  0.07082727  0.67596104  0.37829515  1
  S  S131  1  0.06814293  0.67303220  0.70976711  1
  S  S132  1  0.56350357  0.17464824  0.04377859  1
  S  S133  1  0.56520265  0.16745848  0.37507831  1
  S  S134  1  0.56648012  0.17198876  0.70888545  1
  S  S135  1  0.56717433  0.66625742  0.04158258  1
  S  S136  1  0.56956585  0.67431880  0.37542804  1
  S  S137  1  0.56347550  0.66136961  0.70730298  1
  S  S138  1  0.32830488  0.43357926  0.12224266  1
  S  S139  1  0.33012181  0.43342606  0.45935594  1
  S  S140  1  0.33062786  0.43064128  0.79041367  1
  S  S141  1  0.32714903  0.92712493  0.12355030  1
  S  S142  1  0.33173390  0.93713159  0.45509463  1
  S  S143  1  0.33671429  0.94105774  0.79274411  1
  S  S144  1  0.83352234  0.42675535  0.12441939  1
  S  S145  1  0.82735547  0.43035117  0.45773159  1
  S  S146  1  0.83411675  0.43231295  0.78977403  1
  S  S147  1  0.83719218  0.94611277  0.12604974  1
  S  S148  1  0.83229112  0.93562437  0.46030180  1
  S  S149  1  0.81885888  0.92439400  0.78716729  1
  S  S150  1  0.42950517  0.32675457  0.28760378  1
  S  S151  1  0.43160223  0.33011325  0.62320161  1
  S  S152  1  0.43615522  0.33676006  0.96095839  1
  S  S153  1  0.43514282  0.82865224  0.29010466  1
  S  S154  1  0.43523082  0.82419278  0.61436519  1
  S  S155  1  0.43954170  0.82332127  0.96006966  1
  S  S156  1  0.92714142  0.33080169  0.29016318  1
  S  S157  1  0.93326843  0.33375487  0.62469700  1
  S  S158  1  0.93385995  0.33063164  0.95745795  1
  S  S159  1  0.93389402  0.83459106  0.29508071  1
  S  S160  1  0.93076087  0.83078919  0.62752925  1
  S  S161  1  0.92305186  0.83812702  0.95670950  1
  S  S162  1  0.16708757  0.05608734  0.20675373  1
  S  S163  1  0.16411664  0.06675379  0.54272477  1
  S  S164  1  0.17321638  0.07479515  0.87303262  1
  S  S165  1  0.17038179  0.57151048  0.21169157  1
  S  S166  1  0.17246735  0.57060144  0.54640127  1
  S  S167  1  0.16620783  0.55968424  0.87696457  1
  S  S168  1  0.67059922  0.06593922  0.20904458  1
  S  S169  1  0.67194228  0.06927943  0.54413448  1
  S  S170  1  0.66716875  0.06299925  0.87388056  1
  S  S171  1  0.67192470  0.56740108  0.21006971  1
  S  S172  1  0.67289938  0.56760458  0.53918200  1
  S  S173  1  0.66684114  0.56307021  0.87420069  1
  O  O174  1  0.36599251  0.22531196  0.08685482  1
  O  O175  1  0.36900435  0.22022461  0.41392584  1
  O  O176  1  0.36731256  0.22748518  0.74392121  1
  O  O177  1  0.36721907  0.71781561  0.07782317  1
  O  O178  1  0.36870275  0.71916285  0.40777170  1
  O  O179  1  0.36057458  0.71421635  0.74716613  1
  O  O180  1  0.87930799  0.21338392  0.05581268  1
  O  O181  1  0.86664169  0.21951577  0.41103092  1
  O  O182  1  0.87326037  0.21525054  0.73951463  1
  O  O183  1  0.87420454  0.70555623  0.07082967  1
  O  O184  1  0.86978287  0.72149800  0.40976696  1
  O  O185  1  0.87593554  0.72265842  0.73718128  1
  O  O186  1  0.28151073  0.13096450  0.09988072  1
  O  O187  1  0.28311808  0.12917005  0.42784158  1
  O  O188  1  0.27722697  0.13525522  0.74991680  1
  O  O189  1  0.28356269  0.62742327  0.09519648  1
  O  O190  1  0.28185219  0.63371435  0.42761244  1
  O  O191  1  0.28370239  0.62031288  0.76885930  1
  O  O192  1  0.78114791  0.14691221  0.08219977  1
  O  O193  1  0.77895785  0.13215877  0.42680941  1
  O  O194  1  0.78122130  0.13008584  0.75496775  1
  O  O195  1  0.78872110  0.61941825  0.09666136  1
  O  O196  1  0.78075957  0.63196005  0.42335698  1
  O  O197  1  0.77636076  0.64350406  0.74865960  1
  O  O198  1  0.13269279  0.29277129  0.26342527  1
  O  O199  1  0.12934095  0.28517701  0.59347294  1
  O  O200  1  0.13363019  0.27804404  0.92364748  1
  O  O201  1  0.13090867  0.78136973  0.26587373  1
  O  O202  1  0.12532033  0.78149325  0.59670740  1
  O  O203  1  0.11950501  0.78827413  0.92682015  1
  O  O204  1  0.63211506  0.27937982  0.25449870  1
  O  O205  1  0.63319824  0.27386329  0.58417820  1
  O  O206  1  0.63061483  0.28264060  0.92563781  1
  O  O207  1  0.63167663  0.78242435  0.25709265  1
  O  O208  1  0.63616526  0.77852537  0.58680843  1
  O  O209  1  0.63152374  0.76584975  0.90909803  1
  O  O210  1  0.21508077  0.37997050  0.23854381  1
  O  O211  1  0.21744086  0.36989013  0.57392334  1
  O  O212  1  0.22130060  0.36698485  0.90900409  1
  O  O213  1  0.22708005  0.86084038  0.25255626  1
  O  O214  1  0.21498618  0.86382275  0.57560564  1
  O  O215  1  0.20706008  0.86616298  0.89558944  1
  O  O216  1  0.71809800  0.36903057  0.23775547  1
  O  O217  1  0.71842142  0.37020691  0.57705238  1
  O  O218  1  0.71606939  0.37111699  0.90598886  1
  O  O219  1  0.71896507  0.87243976  0.24316989  1
  O  O220  1  0.72052831  0.87101539  0.57168601  1
  O  O221  1  0.72066795  0.86668036  0.91330781  1
  O  O222  1  0.41965907  0.13440028  0.15754411  1
  O  O223  1  0.42209575  0.12849977  0.48372494  1
  O  O224  1  0.41411283  0.14262859  0.82174830  1
  O  O225  1  0.42270393  0.62781198  0.14958849  1
  O  O226  1  0.41970190  0.62904339  0.48158968  1
  O  O227  1  0.42229227  0.62750528  0.82077352  1
  O  O228  1  0.91812062  0.13002105  0.13749720  1
  O  O229  1  0.91656169  0.13358566  0.48843912  1
  O  O230  1  0.91949651  0.12900922  0.81791262  1
  O  O231  1  0.92670745  0.62367828  0.15186310  1
  O  O232  1  0.91888192  0.63347402  0.48411801  1
  O  O233  1  0.91234502  0.63669550  0.81806547  1
  O  O234  1  0.36654524  0.08814856  0.02061647  1
  O  O235  1  0.36877635  0.08277097  0.34833768  1
  O  O236  1  0.37450808  0.08996059  0.68515585  1
  O  O237  1  0.36736942  0.58048294  0.01420200  1
  O  O238  1  0.36350090  0.58169816  0.34572009  1
  O  O239  1  0.36652283  0.57712420  0.68553971  1
  O  O240  1  0.85676621  0.07451147  0.00288332  1
  O  O241  1  0.86878484  0.08079758  0.35281110  1
  O  O242  1  0.87020385  0.07705061  0.68224757  1
  O  O243  1  0.87310206  0.56613440  0.01766884  1
  O  O244  1  0.86678753  0.58349519  0.34657824  1
  O  O245  1  0.86865281  0.58407126  0.68216730  1
  O  O246  1  0.07604865  0.37557570  0.18432145  1
  O  O247  1  0.07909636  0.36829042  0.51239434  1
  O  O248  1  0.08327901  0.36599833  0.84928183  1
  O  O249  1  0.09084396  0.86609953  0.18492071  1
  O  O250  1  0.07671078  0.86967444  0.52036340  1
  O  O251  1  0.06920620  0.86924366  0.84359768  1
  O  O252  1  0.57958337  0.36942700  0.18201961  1
  O  O253  1  0.58024203  0.36484898  0.51336873  1
  O  O254  1  0.57749581  0.36983847  0.85003628  1
  O  O255  1  0.57966148  0.87259186  0.18514486  1
  O  O256  1  0.58296628  0.86803808  0.51409659  1
  O  O257  1  0.58183453  0.86835588  0.85294011  1
  O  O258  1  0.13014389  0.43117363  0.31872123  1
  O  O259  1  0.12852498  0.42381950  0.64780734  1
  O  O260  1  0.13457980  0.41494468  0.98629727  1
  O  O261  1  0.13441167  0.91961421  0.32078857  1
  O  O262  1  0.13257121  0.92083308  0.65502733  1
  O  O263  1  0.12985040  0.92733486  0.97847775  1
  O  O264  1  0.63565423  0.41681417  0.31840838  1
  O  O265  1  0.62601755  0.41059369  0.64950851  1
  O  O266  1  0.63154914  0.42103167  0.98538853  1
  O  O267  1  0.63327600  0.91946148  0.32100609  1
  O  O268  1  0.63537265  0.91616807  0.65081398  1
  O  O269  1  0.62988937  0.89936855  0.98799686  1
  O  O270  1  0.04144383  0.20503123  0.10414659  1
  O  O271  1  0.02891607  0.19759562  0.44069554  1
  O  O272  1  0.03405641  0.19952181  0.76972930  1
  O  O273  1  0.04949081  0.69363047  0.11267897  1
  O  O274  1  0.03263290  0.70377341  0.43898721  1
  O  O275  1  0.02965498  0.70326084  0.76804877  1
  O  O276  1  0.52522801  0.20851221  0.10456291  1
  O  O277  1  0.52921315  0.19870637  0.43628008  1
  O  O278  1  0.53084770  0.20178499  0.77150644  1
  O  O279  1  0.52867322  0.69707138  0.10176664  1
  O  O280  1  0.53127485  0.70328616  0.43495443  1
  O  O281  1  0.52445733  0.68005662  0.76693804  1
  O  O282  1  0.29751949  0.47031372  0.06105559  1
  O  O283  1  0.30107232  0.46968689  0.39793660  1
  O  O284  1  0.29800464  0.46095453  0.72600231  1
  O  O285  1  0.29715923  0.96253923  0.06433553  1
  O  O286  1  0.29918838  0.97076990  0.39083096  1
  O  O287  1  0.30138634  0.97871803  0.73120473  1
  O  O288  1  0.79993860  0.45810403  0.06087282  1
  O  O289  1  0.80026135  0.46783594  0.39712338  1
  O  O290  1  0.81292708  0.46895423  0.73033493  1
  O  O291  1  0.79465310  0.97499269  0.06199197  1
  O  O292  1  0.80264295  0.97147330  0.39957518  1
  O  O293  1  0.79565421  0.96860370  0.73071968  1
  O  O294  1  0.47233182  0.29938927  0.23109656  1
  O  O295  1  0.46860424  0.29981643  0.56239585  1
  O  O296  1  0.47087304  0.30491232  0.89950523  1
  O  O297  1  0.47075554  0.79849553  0.22844797  1
  O  O298  1  0.47264275  0.78707610  0.55222818  1
  O  O299  1  0.47533852  0.78329640  0.90021854  1
  O  O300  1  0.95778542  0.30576316  0.22673887  1
  O  O301  1  0.96928828  0.30248173  0.56309243  1
  O  O302  1  0.97058209  0.29890113  0.89581927  1
  O  O303  1  0.96836395  0.80298452  0.23492565  1
  O  O304  1  0.96778766  0.80266716  0.56714641  1
  O  O305  1  0.95154965  0.81885758  0.88948181  1
  O  O306  1  0.20513309  0.02261200  0.27074925  1
  O  O307  1  0.18646474  0.03171813  0.60359105  1
  O  O308  1  0.19641079  0.04450203  0.93612401  1
  O  O309  1  0.20271903  0.53923245  0.27510778  1
  O  O310  1  0.20246862  0.53287251  0.60715897  1
  O  O311  1  0.20440646  0.52452734  0.93860054  1
  O  O312  1  0.70481265  0.03591517  0.27654028  1
  O  O313  1  0.69929248  0.03223365  0.60464040  1
  O  O314  1  0.69485591  0.02120010  0.92996620  1
  O  O315  1  0.70063007  0.52877794  0.26988779  1
  O  O316  1  0.69844017  0.52846785  0.59668619  1
  O  O317  1  0.69888117  0.53314256  0.94060342  1
  O  O318  1  0.09597160  0.09263225  0.04313938  1
  O  O319  1  0.08137206  0.08250791  0.37441817  1
  O  O320  1  0.09466628  0.09123242  0.70443130  1
  O  O321  1  0.08548986  0.57738002  0.03424152  1
  O  O322  1  0.08772352  0.59378076  0.37073527  1
  O  O323  1  0.08251696  0.58918964  0.70587152  1
  O  O324  1  0.57939675  0.09569112  0.04103890  1
  O  O325  1  0.58181666  0.08515905  0.37074181  1
  O  O326  1  0.58630030  0.09198429  0.70468519  1
  O  O327  1  0.58013764  0.58247895  0.03761384  1
  O  O328  1  0.59153430  0.59536171  0.37253335  1
  O  O329  1  0.58085135  0.57959701  0.69247565  1
  O  O330  1  0.40952023  0.41605678  0.12439615  1
  O  O331  1  0.41173787  0.41433273  0.46588041  1
  O  O332  1  0.41311744  0.41409776  0.79592893  1
  O  O333  1  0.40795169  0.90554331  0.12750385  1
  O  O334  1  0.41116795  0.91469336  0.45176117  1
  O  O335  1  0.41365885  0.92160529  0.78682580  1
  O  O336  1  0.91697577  0.41361038  0.13127063  1
  O  O337  1  0.90835345  0.40925916  0.46403029  1
  O  O338  1  0.91816133  0.41429414  0.80298578  1
  O  O339  1  0.91952536  0.94293714  0.12997076  1
  O  O340  1  0.91604192  0.92092215  0.46815217  1
  O  O341  1  0.89968748  0.90365068  0.78965887  1
  O  O342  1  0.40817980  0.40593091  0.28946052  1
  O  O343  1  0.41466994  0.41225495  0.62863873  1
  O  O344  1  0.41967387  0.41962931  0.96411468  1
  O  O345  1  0.41747652  0.91044320  0.29595628  1
  O  O346  1  0.40423786  0.89426833  0.59999787  1
  O  O347  1  0.42497359  0.90087561  0.95657850  1
  O  O348  1  0.91181023  0.41502221  0.30313355  1
  O  O349  1  0.91778123  0.41587778  0.63043460  1
  O  O350  1  0.91921144  0.41369137  0.96252127  1
  O  O351  1  0.91329799  0.91579427  0.29614788  1
  O  O352  1  0.91893661  0.91552650  0.63740001  1
  O  O353  1  0.89562508  0.91932419  0.96718523  1
  O  O354  1  0.08478529  0.06064678  0.20226546  1
  O  O355  1  0.07948784  0.08269340  0.53027391  1
  O  O356  1  0.08934888  0.09204563  0.85765861  1
  O  O357  1  0.08901938  0.58939041  0.20746036  1
  O  O358  1  0.09029710  0.58586277  0.54256773  1
  O  O359  1  0.08407229  0.56582073  0.87221247  1
  O  O360  1  0.59204368  0.09047396  0.21323501  1
  O  O361  1  0.59043865  0.08881077  0.53670111  1
  O  O362  1  0.58794081  0.08618686  0.87428959  1
  O  O363  1  0.59059229  0.58631626  0.20485098  1
  O  O364  1  0.59251725  0.59008375  0.53608775  1
  O  O365  1  0.58812187  0.59248604  0.87778870  1
  O  O366  1  0.14623456  0.22505295  0.05681455  1
  O  O367  1  0.13413306  0.21475856  0.39174796  1
  O  O368  1  0.14072278  0.22720666  0.72587159  1
  O  O369  1  0.14017814  0.70917682  0.04849777  1
  O  O370  1  0.14285991  0.72819101  0.39790367  1
  O  O371  1  0.14110313  0.72085239  0.72508278  1
  O  O372  1  0.63423042  0.22883245  0.06104394  1
  O  O373  1  0.63749941  0.21857969  0.39125695  1
  O  O374  1  0.63496689  0.22612225  0.72271312  1
  O  O375  1  0.63923952  0.71417302  0.05786268  1
  O  O376  1  0.63930509  0.72918766  0.39129093  1
  O  O377  1  0.63345678  0.71814499  0.73074478  1
  O  O378  1  0.27673790  0.36269403  0.10628471  1
  O  O379  1  0.27680531  0.36415125  0.44452467  1
  O  O380  1  0.28016953  0.36000014  0.77920380  1
  O  O381  1  0.27480854  0.85721341  0.11234607  1
  O  O382  1  0.27930593  0.86516592  0.43854711  1
  O  O383  1  0.28199891  0.86875384  0.77254615  1
  O  O384  1  0.78535408  0.35393188  0.11163407  1
  O  O385  1  0.77246296  0.36042823  0.44035779  1
  O  O386  1  0.78165666  0.36100664  0.77119469  1
  O  O387  1  0.79645953  0.87348678  0.12139631  1
  O  O388  1  0.78303653  0.86200327  0.44306019  1
  O  O389  1  0.76374419  0.85428999  0.76439648  1
  O  O390  1  0.36065759  0.27153438  0.27009064  1
  O  O391  1  0.35940017  0.27871569  0.60563888  1
  O  O392  1  0.36439550  0.28762168  0.94818643  1
  O  O393  1  0.36431356  0.77563375  0.27362109  1
  O  O394  1  0.36970680  0.76536454  0.60264574  1
  O  O395  1  0.36635211  0.77374694  0.94719594  1
  O  O396  1  0.85505012  0.28068369  0.27686315  1
  O  O397  1  0.86151466  0.28218516  0.60864376  1
  O  O398  1  0.86160323  0.28155723  0.94071267  1
  O  O399  1  0.86541585  0.78361558  0.28704549  1
  O  O400  1  0.85686258  0.78190333  0.60800090  1
  O  O401  1  0.85671577  0.78081950  0.93998153  1
  O  O402  1  0.21229030  0.13172083  0.22477105  1
  O  O403  1  0.21494541  0.13949742  0.56059541  1
  O  O404  1  0.22533902  0.14624699  0.88778218  1
  O  O405  1  0.22224928  0.64158995  0.22333776  1
  O  O406  1  0.22314582  0.64272988  0.56372301  1
  O  O407  1  0.21229400  0.63432852  0.89312132  1
  O  O408  1  0.72283710  0.13646192  0.22201641  1
  O  O409  1  0.72611643  0.14004661  0.56234067  1
  O  O410  1  0.72200331  0.13195552  0.88997504  1
  O  O411  1  0.72495160  0.63755951  0.22771552  1
  O  O412  1  0.72706863  0.63807831  0.55604704  1
  O  O413  1  0.72201203  0.62583230  0.88015930  1
  O  O414  1  0.49543634  0.34265069  0.03465249  1
  O  O415  1  0.48786066  0.33139524  0.36222718  1
  O  O416  1  0.49066774  0.33256950  0.69587145  1
  O  O417  1  0.49787199  0.82595772  0.03406714  1
  O  O418  1  0.49473363  0.83114879  0.36259308  1
  O  O419  1  0.49589829  0.83977396  0.68646533  1
  O  O420  1  0.99400549  0.33280176  0.02964758  1
  O  O421  1  0.98834350  0.32805283  0.36038623  1
  O  O422  1  0.99231566  0.33290850  0.69663740  1
  O  O423  1  0.98819945  0.84204732  0.02267040  1
  O  O424  1  0.99538955  0.84548930  0.37059990  1
  O  O425  1  0.98698989  0.82900196  0.70075439  1
  O  O426  1  0.17285071  -0.00001960  0.13538691  1
  O  O427  1  0.16759409  0.00849702  0.47171017  1
  O  O428  1  0.17533617  0.01379144  0.80198186  1
  O  O429  1  0.16720727  0.50919834  0.14004394  1
  O  O430  1  0.17097963  0.51229477  0.47386049  1
  O  O431  1  0.16933918  0.50299847  0.80406761  1
  O  O432  1  0.66267704  0.00247861  0.14103670  1
  O  O433  1  0.67051353  0.01054969  0.47137942  1
  O  O434  1  0.65855610  0.00637287  0.79748327  1
  O  O435  1  0.66881022  0.50783611  0.13715751  1
  O  O436  1  0.66733920  0.50986255  0.46441859  1
  O  O437  1  0.64790767  0.49672222  0.80473046  1
  O  O438  1  0.00164093  0.16024801  0.30601629  1
  O  O439  1  0.01147456  0.16738691  0.63692147  1
  O  O440  1  0.01595047  0.16606519  0.96898425  1
  O  O441  1  0.01186053  0.67707747  0.30705484  1
  O  O442  1  0.00981876  0.66661887  0.63437186  1
  O  O443  1  0.00242718  0.65824971  0.97601647  1
  O  O444  1  0.50667597  0.16509762  0.30248356  1
  O  O445  1  0.50471264  0.16923371  0.63706386  1
  O  O446  1  0.50529113  0.17658471  0.97122127  1
  O  O447  1  0.51044317  0.67030161  0.30181079  1
  O  O448  1  0.50647477  0.66827759  0.63646142  1
  O  O449  1  0.50811013  0.66240436  0.96740987  1
  O  O450  1  0.33134486  0.49262854  0.19481327  1
  O  O451  1  0.33302338  0.49456666  0.53171732  1
  O  O452  1  0.33406373  0.49257878  0.86202030  1
  O  O453  1  0.33692933  0.98780705  0.19930366  1
  O  O454  1  0.33695256  0.99684764  0.52487142  1
  O  O455  1  0.34132454  0.99579343  0.86580640  1
  O  O456  1  0.83419707  0.48763732  0.19622814  1
  O  O457  1  0.83049874  0.49009842  0.53048622  1
  O  O458  1  0.83284797  0.49108493  0.86190063  1
  O  O459  1  0.83535040  1.00825003  0.19808147  1
  O  O460  1  0.83261949  0.99298882  0.53336796  1
  O  O461  1  0.81933535  0.98005438  0.86053070  1
