# generated using pymatgen
data_Na31Fe20(SO4)36
_symmetry_space_group_name_H-M   'P 1'
_cell_length_a   18.08918092
_cell_length_b   18.08266740
_cell_length_c   19.72266455
_cell_angle_alpha   107.53573975
_cell_angle_beta   107.59877888
_cell_angle_gamma   90.73915123
_symmetry_Int_Tables_number   1
_chemical_formula_structural   Na31Fe20(SO4)36
_chemical_formula_sum   'Na62 Fe40 S72 O288'
_cell_volume   5825.08060466
_cell_formula_units_Z   2
loop_
 _symmetry_equiv_pos_site_id
 _symmetry_equiv_pos_as_xyz
  1  'x, y, z'
loop_
 _atom_site_type_symbol
 _atom_site_label
 _atom_site_symmetry_multiplicity
 _atom_site_fract_x
 _atom_site_fract_y
 _atom_site_fract_z
 _atom_site_occupancy
  Na  Na0  1  0.13666741  0.36643400  0.08386827  1
  Na  Na1  1  0.13525213  0.35908785  0.41683340  1
  Na  Na2  1  0.12948595  0.37041463  0.75038208  1
  Na  Na3  1  0.14810089  0.84358345  0.07593492  1
  Na  Na4  1  0.13391682  0.87615599  0.41251742  1
  Na  Na5  1  0.13964267  0.86889737  0.75408459  1
  Na  Na6  1  0.61640272  0.31041549  0.07439506  1
  Na  Na7  1  0.63042040  0.36753590  0.41042791  1
  Na  Na8  1  0.63688907  0.35435568  0.74193350  1
  Na  Na9  1  0.61596852  0.90339917  0.09149728  1
  Na  Na10  1  0.63089664  0.86341927  0.41211996  1
  Na  Na11  1  0.61998449  0.87346443  0.75231113  1
  Na  Na12  1  0.37748267  0.13381598  0.25467014  1
  Na  Na13  1  0.36155796  0.12833933  0.57729024  1
  Na  Na14  1  0.37524680  0.14036986  0.92898237  1
  Na  Na15  1  0.36204351  0.63520116  0.24329299  1
  Na  Na16  1  0.36991555  0.63537906  0.59258026  1
  Na  Na17  1  0.36949986  0.64418641  0.92438021  1
  Na  Na18  1  0.84868637  0.12864184  0.23264013  1
  Na  Na19  1  0.86474517  0.13251115  0.58545002  1
  Na  Na20  1  0.87136227  0.13394716  0.91971310  1
  Na  Na21  1  0.86185343  0.63763366  0.24677450  1
  Na  Na22  1  0.85828028  0.63584972  0.57862561  1
  Na  Na23  1  0.86300986  0.63110188  0.91128595  1
  Na  Na24  1  0.49629945  0.01855698  0.38791784  1
  Na  Na25  1  0.52064837  0.46357749  0.10776931  1
  Na  Na26  1  0.99232331  0.01106712  0.74951614  1
  Na  Na27  1  0.51920201  -0.00325844  0.89683470  1
  Na  Na28  1  0.99115171  0.50884198  0.08011347  1
  Na  Na29  1  0.96715023  0.01553323  0.41187388  1
  Na  Na30  1  0.49667545  0.51640076  0.74501808  1
  Na  Na31  1  0.99895351  0.00625440  0.07566323  1
  Na  Na32  1  0.99376270  0.50210343  0.42958432  1
  Na  Na33  1  0.50422328  0.47825957  0.92449296  1
  Na  Na34  1  0.50186251  1.06664139  0.12163678  1
  Na  Na35  1  0.49803652  0.98737650  0.59806256  1
  Na  Na36  1  0.01851106  0.99139356  0.25892606  1
  Na  Na37  1  0.49976059  0.45293208  0.25846338  1
  Na  Na38  1  0.52345208  0.49321815  0.55723221  1
  Na  Na39  1  -0.04072775  0.51495926  0.63579606  1
  Na  Na40  1  0.00891082  0.49713966  0.89924154  1
  Na  Na41  1  0.00543261  0.49025711  0.25189740  1
  Na  Na42  1  0.74914272  0.76402125  0.00067707  1
  Na  Na43  1  0.24582945  0.24362781  0.66791307  1
  Na  Na44  1  0.25804721  0.76065352  0.31991237  1
  Na  Na45  1  0.74128940  0.74298431  0.67017470  1
  Na  Na46  1  0.25405685  0.24325100  0.33195350  1
  Na  Na47  1  0.26727050  0.76168107  0.66685407  1
  Na  Na48  1  0.25857282  0.25860417  -0.00467395  1
  Na  Na49  1  0.74272168  0.26032212  0.32737314  1
  Na  Na50  1  0.75892493  0.76953091  0.32549051  1
  Na  Na51  1  0.72814374  0.21321099  0.00967697  1
  Na  Na52  1  0.75318735  0.25459347  0.50788561  1
  Na  Na53  1  0.26804189  0.25940854  0.16120725  1
  Na  Na54  1  0.25563896  0.25400302  0.83277020  1
  Na  Na55  1  0.74274581  0.74243135  0.83229942  1
  Na  Na56  1  0.74517691  0.24589446  0.83462785  1
  Na  Na57  1  0.74920056  0.75213370  0.49823532  1
  Na  Na58  1  0.75910669  0.77364965  0.16249763  1
  Na  Na59  1  0.23733673  0.23145724  0.49969402  1
  Na  Na60  1  0.24964446  0.74611966  0.84146968  1
  Na  Na61  1  0.25428411  0.75903384  0.49307779  1
  Fe  Fe62  1  0.96540062  0.80900395  0.78654853  1
  Fe  Fe63  1  0.46791406  0.30098284  0.45232021  1
  Fe  Fe64  1  0.45701484  0.82158267  0.12403683  1
  Fe  Fe65  1  0.96993227  0.80356875  0.11738193  1
  Fe  Fe66  1  0.96801128  0.81272602  0.45430842  1
  Fe  Fe67  1  0.96343596  0.30613758  0.11624066  1
  Fe  Fe68  1  0.47076559  0.29433987  0.78792218  1
  Fe  Fe69  1  0.46370621  0.80561466  0.44983194  1
  Fe  Fe70  1  0.96170546  0.30814589  0.78074865  1
  Fe  Fe71  1  0.96002039  0.31218902  0.45429092  1
  Fe  Fe72  1  0.18609238  0.03121097  0.04435189  1
  Fe  Fe73  1  0.19251418  0.53371806  0.71629820  1
  Fe  Fe74  1  0.19413622  0.54334605  0.05247509  1
  Fe  Fe75  1  0.69917669  0.03240701  0.37623406  1
  Fe  Fe76  1  0.18779467  0.03703553  0.71086340  1
  Fe  Fe77  1  0.19321829  0.53497878  0.38624855  1
  Fe  Fe78  1  0.70165501  0.52797068  0.70733931  1
  Fe  Fe79  1  0.69469473  0.53894297  0.37801440  1
  Fe  Fe80  1  0.69355188  0.53577781  0.04503904  1
  Fe  Fe81  1  0.69338121  0.03588858  0.71236278  1
  Fe  Fe82  1  0.53210342  0.69443943  0.20944744  1
  Fe  Fe83  1  0.53052150  0.69205666  0.54295801  1
  Fe  Fe84  1  0.03604446  0.19858046  0.88348546  1
  Fe  Fe85  1  0.03348035  0.19279270  0.54646427  1
  Fe  Fe86  1  0.53405709  0.70297118  0.87709170  1
  Fe  Fe87  1  0.03594886  0.19445364  0.21745331  1
  Fe  Fe88  1  0.03620890  0.69082914  0.88059729  1
  Fe  Fe89  1  0.03612354  0.69103234  0.21688665  1
  Fe  Fe90  1  0.54034386  0.18804133  0.54821497  1
  Fe  Fe91  1  0.03685319  0.69593033  0.54999085  1
  Fe  Fe92  1  0.30991917  0.96357276  0.95567564  1
  Fe  Fe93  1  0.31009101  0.96650811  0.62640453  1
  Fe  Fe94  1  0.80822690  0.96582927  0.95538806  1
  Fe  Fe95  1  0.80657822  0.96447510  0.62044891  1
  Fe  Fe96  1  0.30686256  0.46658519  0.29135256  1
  Fe  Fe97  1  0.80531038  0.46316141  0.94896789  1
  Fe  Fe98  1  0.29710497  0.96776799  0.28655042  1
  Fe  Fe99  1  0.30788146  0.46113080  0.62236921  1
  Fe  Fe100  1  0.80834424  0.46663649  0.28320766  1
  Fe  Fe101  1  0.30930981  0.47128449  0.95827943  1
  S  S102  1  0.34570397  0.13911813  0.08181703  1
  S  S103  1  0.36296937  0.13740214  0.41729375  1
  S  S104  1  0.35299992  0.14125117  0.74772975  1
  S  S105  1  0.36017172  0.64584469  0.08385488  1
  S  S106  1  0.35465101  0.64151351  0.41674689  1
  S  S107  1  0.36017282  0.63715398  0.75127859  1
  S  S108  1  0.86798876  0.13602984  0.07950327  1
  S  S109  1  0.85826494  0.14586783  0.42125169  1
  S  S110  1  0.86215122  0.14036257  0.75100674  1
  S  S111  1  0.86175744  0.63824695  0.08347129  1
  S  S112  1  0.86308548  0.64296782  0.41511249  1
  S  S113  1  0.86277493  0.64174879  0.74819836  1
  S  S114  1  0.13779688  0.36237043  0.25257043  1
  S  S115  1  0.14008793  0.36065315  0.58197922  1
  S  S116  1  0.13973995  0.36691780  0.91813286  1
  S  S117  1  0.13863191  0.85291943  0.24599021  1
  S  S118  1  0.14206810  0.85903143  0.58474042  1
  S  S119  1  0.13859024  0.85855024  0.91553684  1
  S  S120  1  0.63992677  0.36941647  0.24732562  1
  S  S121  1  0.63768894  0.35912468  0.58336153  1
  S  S122  1  0.64114205  0.35913611  0.92137487  1
  S  S123  1  0.63526820  0.85978326  0.25339668  1
  S  S124  1  0.63846876  0.85832114  0.58244230  1
  S  S125  1  0.65072867  0.85881625  0.91662987  1
  S  S126  1  0.07131772  0.17719306  0.04556951  1
  S  S127  1  0.05466853  0.17111320  0.37604229  1
  S  S128  1  0.06746251  0.17626929  0.71260380  1
  S  S129  1  0.06215668  0.65961720  0.03710543  1
  S  S130  1  0.06556038  0.66587034  0.37644198  1
  S  S131  1  0.06915914  0.67133995  0.71039399  1
  S  S132  1  0.55539680  0.13816143  0.03113804  1
  S  S133  1  0.57482927  0.17164498  0.37928444  1
  S  S134  1  0.56569873  0.16416549  0.70670524  1
  S  S135  1  0.57388519  0.67246260  0.04014957  1
  S  S136  1  0.56505015  0.66989925  0.37317773  1
  S  S137  1  0.56725506  0.65688947  0.70167857  1
  S  S138  1  0.32848692  0.44008500  0.12704839  1
  S  S139  1  0.32781013  0.42894845  0.45943194  1
  S  S140  1  0.33247369  0.43079661  0.79222903  1
  S  S141  1  0.32534506  0.93587303  0.12637501  1
  S  S142  1  0.33051560  0.93028961  0.45926954  1
  S  S143  1  0.32600906  0.93844697  0.79097175  1
  S  S144  1  0.83223407  0.43191280  0.12128754  1
  S  S145  1  0.83238989  0.44103092  0.45658321  1
  S  S146  1  0.82889048  0.43129259  0.79389763  1
  S  S147  1  0.85419880  0.93499240  0.12643907  1
  S  S148  1  0.82944744  0.93242203  0.45978388  1
  S  S149  1  0.82945573  0.92892450  0.78832540  1
  S  S150  1  0.42524685  0.33384673  0.29624140  1
  S  S151  1  0.42900743  0.32514907  0.62468081  1
  S  S152  1  0.43050107  0.33771701  0.95922294  1
  S  S153  1  0.42714181  0.83132062  0.29151799  1
  S  S154  1  0.43271792  0.82540106  0.62188768  1
  S  S155  1  0.43451172  0.83118868  0.95781119  1
  S  S156  1  0.93434106  0.33609632  0.29343194  1
  S  S157  1  0.93332335  0.32492306  0.62073189  1
  S  S158  1  0.93548685  0.33400341  0.95710362  1
  S  S159  1  0.93936217  0.83019791  0.29026322  1
  S  S160  1  0.93378861  0.82976192  0.62407513  1
  S  S161  1  0.93118726  0.82395789  0.95319003  1
  S  S162  1  0.16421476  0.06530146  0.20744509  1
  S  S163  1  0.16504994  0.06527271  0.54021430  1
  S  S164  1  0.16492584  0.07019113  0.87340742  1
  S  S165  1  0.16597107  0.56412093  0.21073161  1
  S  S166  1  0.17077563  0.56847468  0.54592336  1
  S  S167  1  0.17204553  0.56933512  0.87669046  1
  S  S168  1  0.68184448  0.06744655  0.22471975  1
  S  S169  1  0.67242006  0.06544961  0.53997209  1
  S  S170  1  0.68145014  0.06305106  0.87335780  1
  S  S171  1  0.67324890  0.57750377  0.20987463  1
  S  S172  1  0.66959823  0.57255854  0.53855590  1
  S  S173  1  0.67239427  0.56980795  0.87412189  1
  O  O174  1  0.35194164  0.21617559  0.07279846  1
  O  O175  1  0.37564869  0.21481604  0.40549808  1
  O  O176  1  0.36686543  0.21964899  0.73801606  1
  O  O177  1  0.37349354  0.72347833  0.07667026  1
  O  O178  1  0.36231114  0.72178247  0.41110271  1
  O  O179  1  0.36598416  0.71032566  0.73579980  1
  O  O180  1  0.87913119  0.21162187  0.06390108  1
  O  O181  1  0.86070193  0.22969410  0.42357626  1
  O  O182  1  0.87200164  0.21710884  0.74071752  1
  O  O183  1  0.87078370  0.71677744  0.07495935  1
  O  O184  1  0.87247803  0.72186979  0.40709373  1
  O  O185  1  0.86893723  0.72349116  0.74389448  1
  O  O186  1  0.26423406  0.12647764  0.08661376  1
  O  O187  1  0.28693750  0.13237107  0.42759311  1
  O  O188  1  0.26789221  0.13739080  0.74398895  1
  O  O189  1  0.28316789  0.63648224  0.09484957  1
  O  O190  1  0.27553965  0.63118051  0.42522080  1
  O  O191  1  0.28179304  0.62513241  0.76103855  1
  O  O192  1  0.79236324  0.12816629  0.08840380  1
  O  O193  1  0.77977510  0.12919006  0.43036459  1
  O  O194  1  0.78301009  0.13078765  0.75744093  1
  O  O195  1  0.78395181  0.63010151  0.09363707  1
  O  O196  1  0.78497314  0.63528721  0.42520110  1
  O  O197  1  0.78351784  0.63046131  0.75625277  1
  O  O198  1  0.12914008  0.28473497  0.26348723  1
  O  O199  1  0.13411417  0.28032305  0.58789516  1
  O  O200  1  0.13180080  0.28806668  0.92702735  1
  O  O201  1  0.13052196  0.77336366  0.25561732  1
  O  O202  1  0.13354638  0.77987728  0.59391779  1
  O  O203  1  0.12906162  0.77930096  0.92249933  1
  O  O204  1  0.62797458  0.29460394  0.25764901  1
  O  O205  1  0.62366054  0.28296385  0.59522302  1
  O  O206  1  0.63542908  0.28821658  0.94072055  1
  O  O207  1  0.61847866  0.78534412  0.26910547  1
  O  O208  1  0.62868526  0.77984922  0.59125532  1
  O  O209  1  0.63783718  0.77085395  0.89820209  1
  O  O210  1  0.21520704  0.37028348  0.24191087  1
  O  O211  1  0.21827235  0.37052028  0.57150299  1
  O  O212  1  0.21823561  0.37520868  0.90886770  1
  O  O213  1  0.22171265  0.86559005  0.25087344  1
  O  O214  1  0.22309789  0.86841398  0.58117759  1
  O  O215  1  0.21750424  0.86935456  0.90796201  1
  O  O216  1  0.72092291  0.38025776  0.24273326  1
  O  O217  1  0.71197768  0.36631945  0.57101716  1
  O  O218  1  0.72034418  0.37065127  0.91289048  1
  O  O219  1  0.71320169  0.85927945  0.24617433  1
  O  O220  1  0.71943353  0.86745948  0.57859550  1
  O  O221  1  0.73231378  0.86804756  0.90741812  1
  O  O222  1  0.40162400  0.13125143  0.14965887  1
  O  O223  1  0.42539247  0.12937426  0.48371064  1
  O  O224  1  0.40234437  0.13446481  0.81755854  1
  O  O225  1  0.42082892  0.63441290  0.15004298  1
  O  O226  1  0.41341458  0.63226744  0.48375996  1
  O  O227  1  0.42054712  0.63401796  0.82118222  1
  O  O228  1  0.93103322  0.13083447  0.14683171  1
  O  O229  1  0.91775786  0.13483835  0.48884776  1
  O  O230  1  0.92105775  0.13401720  0.82057394  1
  O  O231  1  0.92180012  0.62917054  0.15098874  1
  O  O232  1  0.92291133  0.63366517  0.48251225  1
  O  O233  1  0.92125895  0.63403423  0.81694493  1
  O  O234  1  0.35388601  0.07877930  0.01346655  1
  O  O235  1  0.36985049  0.07634498  0.34915346  1
  O  O236  1  0.36269738  0.08176964  0.67985611  1
  O  O237  1  0.36515927  0.58646267  0.01426853  1
  O  O238  1  0.36009810  0.58520038  0.34685767  1
  O  O239  1  0.37026848  0.57149542  0.68699169  1
  O  O240  1  0.87897629  0.07278067  0.01282297  1
  O  O241  1  0.87052121  0.09463192  0.35411540  1
  O  O242  1  0.87272819  0.07797913  0.68572184  1
  O  O243  1  0.86939985  0.57834220  0.01587896  1
  O  O244  1  0.87007361  0.58376551  0.34674415  1
  O  O245  1  0.87070804  0.58700411  0.68023596  1
  O  O246  1  0.07685502  0.37154654  0.18602262  1
  O  O247  1  0.08018870  0.37082689  0.51613602  1
  O  O248  1  0.07941755  0.37506275  0.85083006  1
  O  O249  1  0.08867785  0.85088337  0.16950832  1
  O  O250  1  0.08655388  0.86208720  0.51302726  1
  O  O251  1  0.08038788  0.86614755  0.84664979  1
  O  O252  1  0.58334395  0.38179882  0.18093881  1
  O  O253  1  0.57380352  0.36964064  0.51744016  1
  O  O254  1  0.58336925  0.35758255  0.84768897  1
  O  O255  1  0.57639712  0.86655813  0.18505544  1
  O  O256  1  0.58233823  0.86391455  0.51190773  1
  O  O257  1  0.59418715  0.88586533  0.86160893  1
  O  O258  1  0.13087585  0.42240105  0.32098150  1
  O  O259  1  0.13509773  0.41745417  0.65234309  1
  O  O260  1  0.13241292  0.42627639  0.98613870  1
  O  O261  1  0.11633087  0.91104349  0.30378616  1
  O  O262  1  0.12951048  0.91757608  0.64988329  1
  O  O263  1  0.12933797  0.91635441  0.98333353  1
  O  O264  1  0.63160003  0.43239121  0.31601095  1
  O  O265  1  0.63105358  0.42074279  0.65162959  1
  O  O266  1  0.62763612  0.42792725  0.98039406  1
  O  O267  1  0.63041842  0.92407223  0.32120923  1
  O  O268  1  0.62679265  0.91879747  0.64743581  1
  O  O269  1  0.65589056  0.89686853  0.99399082  1
  O  O270  1  0.03921730  0.21079054  0.10932363  1
  O  O271  1  0.02178566  0.21191286  0.43851306  1
  O  O272  1  0.03221332  0.20857673  0.77464189  1
  O  O273  1  0.02764017  0.69041781  0.09909127  1
  O  O274  1  0.03239169  0.69982933  0.43875957  1
  O  O275  1  0.03183480  0.70131561  0.77038618  1
  O  O276  1  0.52072163  0.17764711  0.08959241  1
  O  O277  1  0.54108126  0.19890772  0.44424626  1
  O  O278  1  0.52662824  0.19053765  0.76369272  1
  O  O279  1  0.54050781  0.70030338  0.10268374  1
  O  O280  1  0.52549449  0.69794274  0.43270295  1
  O  O281  1  0.53021837  0.67462276  0.76065240  1
  O  O282  1  0.29419349  0.47716545  0.06638521  1
  O  O283  1  0.29787388  0.46890860  0.40077269  1
  O  O284  1  0.29660684  0.46421409  0.72972466  1
  O  O285  1  0.29112056  0.96759577  0.06181185  1
  O  O286  1  0.30867110  0.96503254  0.39907146  1
  O  O287  1  0.28985877  0.97599284  0.72974696  1
  O  O288  1  0.80139493  0.46905922  0.06097231  1
  O  O289  1  0.80267122  0.47565080  0.39317456  1
  O  O290  1  0.79929744  0.46505375  0.73306542  1
  O  O291  1  0.82477407  0.95877385  0.05730590  1
  O  O292  1  0.79690685  0.97025889  0.40178927  1
  O  O293  1  0.79914658  0.96975798  0.73048672  1
  O  O294  1  0.45206691  0.31724685  0.23179723  1
  O  O295  1  0.46262941  0.29656559  0.56226401  1
  O  O296  1  0.45582190  0.31828807  0.89187637  1
  O  O297  1  0.46136376  0.80338182  0.22911062  1
  O  O298  1  0.46686369  0.79593604  0.55720839  1
  O  O299  1  0.47919650  0.80545237  0.90478334  1
  O  O300  1  0.96518935  0.30161981  0.22894527  1
  O  O301  1  0.97723588  0.29631752  0.56419543  1
  O  O302  1  0.97233718  0.30394771  0.89648112  1
  O  O303  1  0.97240392  0.79257367  0.22721979  1
  O  O304  1  0.97025886  0.80210097  0.56262925  1
  O  O305  1  0.96707403  0.79618636  0.89169757  1
  O  O306  1  0.19570212  0.02827869  0.26577031  1
  O  O307  1  0.19369137  0.02949621  0.60264337  1
  O  O308  1  0.19019877  0.03162251  0.93206768  1
  O  O309  1  0.19589071  0.52799810  0.27174792  1
  O  O310  1  0.19961403  0.53326876  0.60748522  1
  O  O311  1  0.20335905  0.53540629  0.93945058  1
  O  O312  1  0.71407390  0.02714061  0.28487639  1
  O  O313  1  0.70201905  0.02808226  0.60118257  1
  O  O314  1  0.71859318  0.02562177  0.93285328  1
  O  O315  1  0.70684949  0.54421348  0.27227455  1
  O  O316  1  0.69290424  0.53907690  0.60006704  1
  O  O317  1  0.70241603  0.53333606  0.93547496  1
  O  O318  1  0.08523395  0.09553487  0.04121620  1
  O  O319  1  0.05894651  0.08965716  0.37375441  1
  O  O320  1  0.08571167  0.09618685  0.71164102  1
  O  O321  1  0.07712333  0.57597474  0.03284841  1
  O  O322  1  0.08127341  0.58339581  0.37413699  1
  O  O323  1  0.08653953  0.58968949  0.70573575  1
  O  O324  1  0.56642007  0.05596169  0.03038453  1
  O  O325  1  0.60433719  0.09363280  0.38257398  1
  O  O326  1  0.58668560  0.08265469  0.70062365  1
  O  O327  1  0.58782477  0.58818172  0.02940888  1
  O  O328  1  0.58380098  0.58877987  0.36598155  1
  O  O329  1  0.58784764  0.57413813  0.68826723  1
  O  O330  1  0.40999678  0.42971482  0.13348949  1
  O  O331  1  0.40853715  0.40995005  0.46565041  1
  O  O332  1  0.41387038  0.41615765  0.79397679  1
  O  O333  1  0.40870798  0.92634494  0.13261578  1
  O  O334  1  0.41357414  0.91051907  0.47268985  1
  O  O335  1  0.40571077  0.92657226  0.79354348  1
  O  O336  1  0.91637318  0.41874069  0.12669888  1
  O  O337  1  0.91148984  0.41537718  0.45436384  1
  O  O338  1  0.91033597  0.41110365  0.79806310  1
  O  O339  1  0.93751996  0.91460953  0.13177223  1
  O  O340  1  0.90902847  0.91292126  0.45713602  1
  O  O341  1  0.90986348  0.91192059  0.78810685  1
  O  O342  1  0.40693656  0.41836080  0.31534569  1
  O  O343  1  0.41489026  0.40900526  0.63478903  1
  O  O344  1  0.41403456  0.42325801  0.97591349  1
  O  O345  1  0.40390229  0.91080534  0.29605402  1
  O  O346  1  0.41119640  0.90580102  0.62377008  1
  O  O347  1  0.41082171  0.90999590  0.95843490  1
  O  O348  1  0.92098684  0.41980617  0.29649859  1
  O  O349  1  0.90611370  0.39875239  0.61602640  1
  O  O350  1  0.91880301  0.41628750  0.96202784  1
  O  O351  1  0.93243487  0.91224990  0.29673688  1
  O  O352  1  0.91467804  0.91108155  0.63217693  1
  O  O353  1  0.91143248  0.90521766  0.95916677  1
  O  O354  1  0.08261480  0.08431826  0.20707636  1
  O  O355  1  0.08602423  0.09131752  0.54008085  1
  O  O356  1  0.08388087  0.09233599  0.86764396  1
  O  O357  1  0.08267718  0.57925324  0.20593260  1
  O  O358  1  0.08975596  0.58909623  0.54013888  1
  O  O359  1  0.09033403  0.58595328  0.87339393  1
  O  O360  1  0.60120545  0.07856508  0.22211320  1
  O  O361  1  0.58844731  0.07650980  0.53075495  1
  O  O362  1  0.60371141  0.07877246  0.87406109  1
  O  O363  1  0.59076045  0.59133060  0.20443474  1
  O  O364  1  0.58639715  0.59011172  0.52603190  1
  O  O365  1  0.59096749  0.58786796  0.86887045  1
  O  O366  1  0.14252211  0.22764824  0.05836207  1
  O  O367  1  0.13161640  0.21460044  0.39175292  1
  O  O368  1  0.13800801  0.22936717  0.72781387  1
  O  O369  1  0.13321456  0.70651532  0.04836749  1
  O  O370  1  0.13684430  0.71431292  0.38751124  1
  O  O371  1  0.14032498  0.72286160  0.72599344  1
  O  O372  1  0.63112954  0.18383730  0.04623296  1
  O  O373  1  0.64159368  0.22878023  0.39414069  1
  O  O374  1  0.63611635  0.21716830  0.72312135  1
  O  O375  1  0.64707456  0.72139718  0.05553002  1
  O  O376  1  0.63682502  0.72338534  0.39410298  1
  O  O377  1  0.63693904  0.71251952  0.72051228  1
  O  O378  1  0.27821351  0.36633006  0.10791283  1
  O  O379  1  0.27417421  0.35763960  0.44021337  1
  O  O380  1  0.28216687  0.35916975  0.77894337  1
  O  O381  1  0.28059550  0.86222969  0.11323832  1
  O  O382  1  0.27618360  0.85900003  0.44077398  1
  O  O383  1  0.27514088  0.86450495  0.77180108  1
  O  O384  1  0.78489205  0.35954911  0.10640412  1
  O  O385  1  0.77761627  0.37332764  0.44299984  1
  O  O386  1  0.77831662  0.36312328  0.78670843  1
  O  O387  1  0.80499017  0.86409194  0.11644336  1
  O  O388  1  0.77837484  0.86043238  0.44555907  1
  O  O389  1  0.77656814  0.85798501  0.77007217  1
  O  O390  1  0.35412061  0.28144134  0.28301174  1
  O  O391  1  0.35543059  0.27599524  0.60780180  1
  O  O392  1  0.35786848  0.28722734  0.94368928  1
  O  O393  1  0.36204580  0.77463252  0.28017234  1
  O  O394  1  0.36040798  0.77222142  0.60251645  1
  O  O395  1  0.36492967  0.77524818  0.93756371  1
  O  O396  1  0.86342552  0.29023871  0.28520142  1
  O  O397  1  0.86913002  0.26533548  0.60549974  1
  O  O398  1  0.86470571  0.28276535  0.94119340  1
  O  O399  1  0.86411699  0.78328034  0.27359761  1
  O  O400  1  0.86304519  0.77618403  0.60632178  1
  O  O401  1  0.86091438  0.77061511  0.93731934  1
  O  O402  1  0.21382520  0.13724242  0.22074916  1
  O  O403  1  0.22075522  0.13551434  0.55803824  1
  O  O404  1  0.21908414  0.13978877  0.88887540  1
  O  O405  1  0.21584326  0.63540696  0.22579641  1
  O  O406  1  0.22429779  0.63744955  0.55920174  1
  O  O407  1  0.22191616  0.63908406  0.88767260  1
  O  O408  1  0.73166982  0.14219280  0.24919940  1
  O  O409  1  0.72119846  0.13811780  0.55807838  1
  O  O410  1  0.73360020  0.13494132  0.88840631  1
  O  O411  1  0.72224365  0.65026531  0.22389638  1
  O  O412  1  0.72129630  0.64529797  0.55572517  1
  O  O413  1  0.72589189  0.64075085  0.89202267  1
  O  O414  1  0.49291632  0.33408591  0.02477872  1
  O  O415  1  0.48835283  0.32917057  0.36453309  1
  O  O416  1  0.48841790  0.32278497  0.69541706  1
  O  O417  1  0.48746376  0.83789044  0.03537211  1
  O  O418  1  0.49046256  0.83836062  0.36420937  1
  O  O419  1  0.49151445  0.82596990  0.69072068  1
  O  O420  1  0.99500924  0.33822145  0.03055481  1
  O  O421  1  0.99739432  0.34192984  0.36528575  1
  O  O422  1  0.99270466  0.33492986  0.69663618  1
  O  O423  1  0.99245445  0.82401351  0.02323474  1
  O  O424  1  0.99614579  0.82435158  0.36158600  1
  O  O425  1  0.99377119  0.82998980  0.69535710  1
  O  O426  1  0.15387498  0.00702063  0.13142034  1
  O  O427  1  0.15823503  0.00681777  0.46900649  1
  O  O428  1  0.15858150  0.01084857  0.79911096  1
  O  O429  1  0.16187674  0.50589507  0.13715354  1
  O  O430  1  0.16544420  0.50660592  0.47343625  1
  O  O431  1  0.16798688  0.50688711  0.80496302  1
  O  O432  1  0.68954998  0.01468057  0.15550279  1
  O  O433  1  0.67509271  0.00642409  0.46828850  1
  O  O434  1  0.67915443  0.00493648  0.79915875  1
  O  O435  1  0.67134650  0.51746077  0.13811976  1
  O  O436  1  0.67369972  0.51364945  0.46857235  1
  O  O437  1  0.67070481  0.51100913  0.80189645  1
  O  O438  1  -0.00025184  0.17569425  0.30388700  1
  O  O439  1  0.00825717  0.17247686  0.64055727  1
  O  O440  1  0.01065264  0.17684131  0.97435521  1
  O  O441  1  0.00473764  0.65982153  0.30342315  1
  O  O442  1  0.00926010  0.66780208  0.63723780  1
  O  O443  1  0.00101386  0.65441421  0.96408990  1
  O  O444  1  0.51153643  0.16066588  0.31031976  1
  O  O445  1  0.50823271  0.15775906  0.63059276  1
  O  O446  1  0.50142589  0.13405081  0.95565821  1
  O  O447  1  0.50719224  0.67126836  0.30155396  1
  O  O448  1  0.50805008  0.65772614  0.62949652  1
  O  O449  1  0.51457806  0.67459198  0.96930881  1
  O  O450  1  0.32495054  0.49552495  0.19970440  1
  O  O451  1  0.32902909  0.48730889  0.53227505  1
  O  O452  1  0.33599723  0.49102919  0.86464413  1
  O  O453  1  0.32277143  0.99607984  0.19669287  1
  O  O454  1  0.32944262  0.98875275  0.53144330  1
  O  O455  1  0.32106245  0.99384673  0.86267639  1
  O  O456  1  0.83614208  0.49237742  0.19434800  1
  O  O457  1  0.84492222  0.50297538  0.52787544  1
  O  O458  1  0.83800095  0.49460492  0.86781714  1
  O  O459  1  0.86089927  0.99952605  0.19354534  1
  O  O460  1  0.83715629  0.98909452  0.53520722  1
  O  O461  1  0.83527430  0.98427210  0.86394361  1
