# generated using pymatgen
data_Na31Fe20(SO4)36
_symmetry_space_group_name_H-M   'P 1'
_cell_length_a   18.08081666
_cell_length_b   18.08167278
_cell_length_c   19.71797879
_cell_angle_alpha   107.57122675
_cell_angle_beta   107.59534088
_cell_angle_gamma   90.74699920
_symmetry_Int_Tables_number   1
_chemical_formula_structural   Na31Fe20(SO4)36
_chemical_formula_sum   'Na62 Fe40 S72 O288'
_cell_volume   5819.41868030
_cell_formula_units_Z   2
loop_
 _symmetry_equiv_pos_site_id
 _symmetry_equiv_pos_as_xyz
  1  'x, y, z'
loop_
 _atom_site_type_symbol
 _atom_site_label
 _atom_site_symmetry_multiplicity
 _atom_site_fract_x
 _atom_site_fract_y
 _atom_site_fract_z
 _atom_site_occupancy
  Na  Na0  1  0.12212997  0.35381206  0.06313625  1
  Na  Na1  1  0.15655542  0.34630910  0.42746218  1
  Na  Na2  1  0.13924515  0.35426120  0.74577514  1
  Na  Na3  1  0.13708100  0.86422935  0.08408892  1
  Na  Na4  1  0.12885466  0.86765835  0.41374663  1
  Na  Na5  1  0.13252741  0.87272527  0.74948502  1
  Na  Na6  1  0.63047224  0.36593999  0.08180603  1
  Na  Na7  1  0.63099562  0.37494943  0.41975115  1
  Na  Na8  1  0.63844780  0.36506543  0.74497128  1
  Na  Na9  1  0.63851763  0.86326786  0.09578575  1
  Na  Na10  1  0.64254635  0.87197252  0.41920638  1
  Na  Na11  1  0.63031979  0.86302170  0.74244612  1
  Na  Na12  1  0.36514200  0.13996932  0.25730602  1
  Na  Na13  1  0.35161756  0.13667733  0.57422507  1
  Na  Na14  1  0.32313094  0.12909865  0.87392119  1
  Na  Na15  1  0.36836541  0.63554438  0.25095055  1
  Na  Na16  1  0.36966252  0.62517489  0.58215780  1
  Na  Na17  1  0.36621715  0.63105059  0.91257877  1
  Na  Na18  1  0.86384613  0.12157541  0.24815206  1
  Na  Na19  1  0.88917043  0.12444985  0.59437930  1
  Na  Na20  1  0.85743843  0.14285492  0.91242150  1
  Na  Na21  1  0.86406539  0.64450131  0.25727969  1
  Na  Na22  1  0.86777138  0.63775515  0.58273824  1
  Na  Na23  1  0.87136213  0.63501843  0.91977481  1
  Na  Na24  1  0.49914024  0.01200933  0.72027723  1
  Na  Na25  1  0.99160398  0.03717131  0.72727994  1
  Na  Na26  1  0.50351856  -0.02319257  0.08895899  1
  Na  Na27  1  0.99148405  0.00302923  0.09551296  1
  Na  Na28  1  0.47968292  0.00562717  0.43975293  1
  Na  Na29  1  0.48646984  0.51393074  0.08695430  1
  Na  Na30  1  1.02244155  0.48275639  0.76145065  1
  Na  Na31  1  0.99514449  0.50559138  0.41675784  1
  Na  Na32  1  0.48743233  0.50765469  0.73396322  1
  Na  Na33  1  0.01617544  0.49652825  0.22509315  1
  Na  Na34  1  -0.02775007  1.02181303  0.41663594  1
  Na  Na35  1  0.00227131  0.44482533  0.91197351  1
  Na  Na36  1  0.48802443  1.01267600  0.91254434  1
  Na  Na37  1  -0.02310205  1.03421005  0.89167229  1
  Na  Na38  1  0.50253059  0.96883956  0.25295125  1
  Na  Na39  1  0.03861886  0.48378087  0.59589978  1
  Na  Na40  1  0.50488531  0.49042510  0.26608943  1
  Na  Na41  1  0.50983121  0.48784863  0.91445154  1
  Na  Na42  1  0.75101448  0.25240799  -0.00321522  1
  Na  Na43  1  0.74813389  0.74821459  0.00350250  1
  Na  Na44  1  0.23009317  0.22538475  0.66844158  1
  Na  Na45  1  0.24885812  0.74729739  0.33304900  1
  Na  Na46  1  0.76172481  0.76996414  0.65527358  1
  Na  Na47  1  0.24868145  0.74041194  0.66985979  1
  Na  Na48  1  0.77759108  0.25518151  0.66836338  1
  Na  Na49  1  0.24736390  0.25283257  -0.01682930  1
  Na  Na50  1  0.26552963  0.75768043  -0.00197221  1
  Na  Na51  1  0.74662886  0.24743871  0.33600112  1
  Na  Na52  1  0.76644689  0.77219880  0.48881164  1
  Na  Na53  1  0.23898280  0.24186820  0.17244499  1
  Na  Na54  1  0.74531469  0.24793496  0.16701775  1
  Na  Na55  1  0.74326813  0.75256216  0.18681605  1
  Na  Na56  1  0.24352716  0.74154903  0.49994349  1
  Na  Na57  1  0.76047817  0.25325122  0.50322524  1
  Na  Na58  1  0.77382583  0.26231854  0.82549891  1
  Na  Na59  1  0.24700488  0.73999806  0.83154186  1
  Na  Na60  1  0.26302698  0.75687675  0.16139003  1
  Na  Na61  1  0.75326712  0.75628668  0.83139652  1
  Fe  Fe62  1  0.97434898  0.29491936  0.45814611  1
  Fe  Fe63  1  0.46358283  0.80691616  0.45517048  1
  Fe  Fe64  1  0.46196129  0.30604427  0.11502317  1
  Fe  Fe65  1  0.96423704  0.30430819  0.12377562  1
  Fe  Fe66  1  0.96376828  0.81335791  0.12634603  1
  Fe  Fe67  1  0.96267488  0.82481380  0.46011476  1
  Fe  Fe68  1  0.46601174  0.80564375  0.78453856  1
  Fe  Fe69  1  0.96811577  0.81003671  0.78760842  1
  Fe  Fe70  1  0.46057497  0.31335643  0.45349129  1
  Fe  Fe71  1  0.46689947  0.30380660  0.77775074  1
  Fe  Fe72  1  0.18612767  0.04010273  0.37895756  1
  Fe  Fe73  1  0.19628222  0.52921138  0.38128790  1
  Fe  Fe74  1  0.69192587  0.03119893  0.04729084  1
  Fe  Fe75  1  0.70025233  0.03088873  0.70370729  1
  Fe  Fe76  1  0.18559122  0.03498387  0.04514538  1
  Fe  Fe77  1  0.70205793  0.03385336  0.37588030  1
  Fe  Fe78  1  0.69458548  0.54331081  0.38511696  1
  Fe  Fe79  1  0.69050813  0.53830838  0.71251271  1
  Fe  Fe80  1  0.19448034  0.53665481  0.04660964  1
  Fe  Fe81  1  0.69397882  0.53673232  0.05290955  1
  Fe  Fe82  1  0.53035039  0.19317893  0.21110575  1
  Fe  Fe83  1  0.53328468  0.69391996  0.88287775  1
  Fe  Fe84  1  0.53519356  0.19248054  0.87734510  1
  Fe  Fe85  1  0.53158574  0.70501295  0.21614112  1
  Fe  Fe86  1  0.53746172  0.19725976  0.54645674  1
  Fe  Fe87  1  0.53418304  0.69074955  0.54750078  1
  Fe  Fe88  1  0.03656230  0.69138967  0.21219763  1
  Fe  Fe89  1  0.03734152  0.68853391  0.87865006  1
  Fe  Fe90  1  0.03664826  0.69242558  0.54901086  1
  Fe  Fe91  1  0.03624087  0.19282172  0.22002794  1
  Fe  Fe92  1  0.80503102  0.46771037  0.28972147  1
  Fe  Fe93  1  0.29614697  0.96583411  0.61947437  1
  Fe  Fe94  1  0.30425381  0.96785149  0.28672934  1
  Fe  Fe95  1  0.30410801  0.96692526  0.94925535  1
  Fe  Fe96  1  0.30951920  0.46217371  0.28731102  1
  Fe  Fe97  1  0.30026390  0.46236737  0.61644050  1
  Fe  Fe98  1  0.30701198  0.46428256  0.94570710  1
  Fe  Fe99  1  0.80675241  0.46922137  0.95570578  1
  Fe  Fe100  1  0.80479762  0.96486848  0.95295999  1
  Fe  Fe101  1  0.80983381  0.47071280  0.62220097  1
  S  S102  1  0.35625519  0.14128581  0.08008333  1
  S  S103  1  0.36229655  0.13904660  0.41726808  1
  S  S104  1  0.36665753  0.13421484  0.74211463  1
  S  S105  1  0.36307816  0.63756783  0.08422602  1
  S  S106  1  0.36123761  0.63804146  0.41551641  1
  S  S107  1  0.36313055  0.63670644  0.74789253  1
  S  S108  1  0.85519753  0.13927065  0.08283922  1
  S  S109  1  0.85695051  0.14490511  0.41611032  1
  S  S110  1  0.85910862  0.13561342  0.75733553  1
  S  S111  1  0.85869607  0.64261784  0.08724316  1
  S  S112  1  0.86440726  0.64344746  0.41838923  1
  S  S113  1  0.85753299  0.64657085  0.75200028  1
  S  S114  1  0.14021318  0.35948442  0.24947816  1
  S  S115  1  0.14324104  0.35425842  0.58249229  1
  S  S116  1  0.14263993  0.36578002  0.91749167  1
  S  S117  1  0.14264093  0.85841296  0.24642980  1
  S  S118  1  0.14220638  0.85019447  0.58144346  1
  S  S119  1  0.14280287  0.85566255  0.91845671  1
  S  S120  1  0.63626163  0.36280011  0.24958017  1
  S  S121  1  0.64062759  0.36319595  0.58239742  1
  S  S122  1  0.63918201  0.36231701  0.91676939  1
  S  S123  1  0.63450825  0.86758502  0.24829385  1
  S  S124  1  0.63605530  0.85864987  0.58225359  1
  S  S125  1  0.63858374  0.85846998  0.91782981  1
  S  S126  1  0.05862365  0.16717854  0.04613055  1
  S  S127  1  0.06025139  0.16371298  0.36794512  1
  S  S128  1  0.07651147  0.16822200  0.71228223  1
  S  S129  1  0.06990245  0.67203571  0.04458140  1
  S  S130  1  0.06769177  0.65637021  0.36930372  1
  S  S131  1  0.06193170  0.66587645  0.71040782  1
  S  S132  1  0.56635258  0.16937831  0.04021631  1
  S  S133  1  0.57286686  0.17321440  0.37488135  1
  S  S134  1  0.57872969  0.17506754  0.71100321  1
  S  S135  1  0.56899252  0.66566919  0.04330169  1
  S  S136  1  0.56845542  0.67523666  0.37817188  1
  S  S137  1  0.56789344  0.67032574  0.71110725  1
  S  S138  1  0.33457578  0.43276456  0.12569671  1
  S  S139  1  0.33260001  0.43130637  0.45569771  1
  S  S140  1  0.33951421  0.42942432  0.78848738  1
  S  S141  1  0.32990540  0.93980486  0.12439092  1
  S  S142  1  0.32540950  0.92820396  0.45702619  1
  S  S143  1  0.33473493  0.92915516  0.78908965  1
  S  S144  1  0.82456396  0.43172393  0.12752959  1
  S  S145  1  0.83068336  0.43831319  0.45780767  1
  S  S146  1  0.83166509  0.44251365  0.79157746  1
  S  S147  1  0.82683258  0.93352113  0.12193169  1
  S  S148  1  0.82880232  0.94104486  0.45762374  1
  S  S149  1  0.82472642  0.92748715  0.79176917  1
  S  S150  1  0.43220200  0.32873342  0.28781766  1
  S  S151  1  0.43409471  0.33009074  0.62220089  1
  S  S152  1  0.43271232  0.32834171  0.95495103  1
  S  S153  1  0.42915810  0.83290392  0.29602016  1
  S  S154  1  0.42501624  0.82646721  0.62217363  1
  S  S155  1  0.43447885  0.83021770  0.95618120  1
  S  S156  1  0.92748690  0.32691845  0.29350479  1
  S  S157  1  0.93545298  0.34547114  0.62691536  1
  S  S158  1  0.92580454  0.33732703  0.96720381  1
  S  S159  1  0.93912226  0.82837916  0.29065402  1
  S  S160  1  0.93886357  0.83279011  0.62507703  1
  S  S161  1  0.93345231  0.83133417  0.95994323  1
  S  S162  1  0.16995355  0.06727675  0.20789581  1
  S  S163  1  0.16523564  0.05556422  0.53413278  1
  S  S164  1  0.16543001  0.05502622  0.87628874  1
  S  S165  1  0.17569833  0.56719053  0.21007418  1
  S  S166  1  0.16970199  0.56418362  0.54007669  1
  S  S167  1  0.17605252  0.56880446  0.87683987  1
  S  S168  1  0.66238201  0.06938110  0.20648594  1
  S  S169  1  0.67234818  0.07690969  0.53825722  1
  S  S170  1  0.66415806  0.06317152  0.87283180  1
  S  S171  1  0.66487186  0.56930448  0.21063762  1
  S  S172  1  0.67385318  0.57422664  0.54610258  1
  S  S173  1  0.66707850  0.56677456  0.87566635  1
  O  O174  1  0.36752915  0.21993052  0.07119294  1
  O  O175  1  0.37536405  0.21557365  0.40729258  1
  O  O176  1  0.38186537  0.20989893  0.72951372  1
  O  O177  1  0.36811923  0.71337471  0.07351942  1
  O  O178  1  0.36874652  0.71659604  0.40564683  1
  O  O179  1  0.37588895  0.71417727  0.73646116  1
  O  O180  1  0.86379187  0.22111520  0.08107407  1
  O  O181  1  0.86694337  0.22749886  0.41201556  1
  O  O182  1  0.86362335  0.21786701  0.75953221  1
  O  O183  1  0.86816699  0.72270201  0.08182960  1
  O  O184  1  0.87860218  0.72168166  0.41273774  1
  O  O185  1  0.86484053  0.72668096  0.74566878  1
  O  O186  1  0.27687051  0.13403316  0.08721136  1
  O  O187  1  0.28405924  0.12848013  0.42408127  1
  O  O188  1  0.29004261  0.12861046  0.75020809  1
  O  O189  1  0.28641492  0.62572834  0.09746892  1
  O  O190  1  0.28149409  0.62858484  0.42228671  1
  O  O191  1  0.28728245  0.63165228  0.75836410  1
  O  O192  1  0.77606849  0.12934027  0.09115310  1
  O  O193  1  0.77036385  0.13680254  0.41151707  1
  O  O194  1  0.77862608  0.12216716  0.76771123  1
  O  O195  1  0.78027504  0.63317152  0.09738486  1
  O  O196  1  0.78582771  0.63723542  0.42812013  1
  O  O197  1  0.77929576  0.63562639  0.76142017  1
  O  O198  1  0.13084146  0.27881486  0.25135161  1
  O  O199  1  0.13688374  0.27659738  0.58834840  1
  O  O200  1  0.13048142  0.29317868  0.93249531  1
  O  O201  1  0.13691033  0.77835425  0.25349139  1
  O  O202  1  0.13732281  0.76725167  0.58508057  1
  O  O203  1  0.13298427  0.77564188  0.92507296  1
  O  O204  1  0.62841299  0.28366306  0.25739421  1
  O  O205  1  0.63524127  0.28576124  0.59464075  1
  O  O206  1  0.62967084  0.28433694  0.92681973  1
  O  O207  1  0.62185552  0.79103549  0.26093550  1
  O  O208  1  0.62006023  0.78403639  0.59813055  1
  O  O209  1  0.62870450  0.77954217  0.92656128  1
  O  O210  1  0.21726937  0.37020142  0.23787065  1
  O  O211  1  0.21753398  0.36919118  0.56623868  1
  O  O212  1  0.22520008  0.37483513  0.91549920  1
  O  O213  1  0.22070768  0.86939202  0.23575310  1
  O  O214  1  0.22301081  0.86129336  0.57543864  1
  O  O215  1  0.22382712  0.86331658  0.91365644  1
  O  O216  1  0.71520085  0.37229953  0.24148252  1
  O  O217  1  0.71914020  0.37406181  0.57329876  1
  O  O218  1  0.71801964  0.37131420  0.90895824  1
  O  O219  1  0.70944209  0.87248472  0.23546606  1
  O  O220  1  0.71325198  0.85903211  0.57322735  1
  O  O221  1  0.71906931  0.86625398  0.91301512  1
  O  O222  1  0.41423292  0.13604710  0.15040420  1
  O  O223  1  0.42224186  0.13054173  0.48586974  1
  O  O224  1  0.42809591  0.12697701  0.81082771  1
  O  O225  1  0.42481567  0.63101244  0.15272034  1
  O  O226  1  0.41907153  0.63338857  0.48529571  1
  O  O227  1  0.42555839  0.62860858  0.81535179  1
  O  O228  1  0.91517403  0.12588241  0.14686955  1
  O  O229  1  0.90579901  0.13863499  0.48707691  1
  O  O230  1  0.91678098  0.11998012  0.82126614  1
  O  O231  1  0.91878304  0.63062640  0.15203498  1
  O  O232  1  0.92298022  0.62902398  0.48398894  1
  O  O233  1  0.91739343  0.63888309  0.81981156  1
  O  O234  1  0.36643996  0.08110307  0.01401502  1
  O  O235  1  0.37231386  0.07695973  0.35064693  1
  O  O236  1  0.37541386  0.07014571  0.67586990  1
  O  O237  1  0.37260901  0.57473337  0.01822798  1
  O  O238  1  0.37046051  0.57903456  0.34840777  1
  O  O239  1  0.37126517  0.57552402  0.68053493  1
  O  O240  1  0.85955197  0.08475632  0.01098792  1
  O  O241  1  0.86944346  0.08887946  0.35096292  1
  O  O242  1  0.86284570  0.08253571  0.68591657  1
  O  O243  1  0.86079274  0.58629346  0.01555754  1
  O  O244  1  0.86828911  0.58296016  0.34877511  1
  O  O245  1  0.86458798  0.58970392  0.68301466  1
  O  O246  1  0.07785574  0.37360347  0.18577148  1
  O  O247  1  0.07919833  0.36182916  0.51258712  1
  O  O248  1  0.08781401  0.37620429  0.84994461  1
  O  O249  1  0.08244740  0.86523573  0.17871321  1
  O  O250  1  0.08572085  0.85193815  0.50896094  1
  O  O251  1  0.08652137  0.86317265  0.84925860  1
  O  O252  1  0.57691030  0.37013165  0.18114174  1
  O  O253  1  0.58046402  0.36598798  0.51309084  1
  O  O254  1  0.57996953  0.37044227  0.84899876  1
  O  O255  1  0.57100873  0.87967777  0.18639282  1
  O  O256  1  0.57653592  0.86486999  0.51348413  1
  O  O257  1  0.58271609  0.86516014  0.84774203  1
  O  O258  1  0.13611476  0.41507698  0.32088251  1
  O  O259  1  0.13572493  0.41515394  0.64824221  1
  O  O260  1  0.13333431  0.43063283  0.98492308  1
  O  O261  1  0.13681837  0.91612000  0.31489958  1
  O  O262  1  0.13079184  0.90453415  0.64658551  1
  O  O263  1  0.13291821  0.91276952  0.98600328  1
  O  O264  1  0.62735186  0.42270364  0.31683492  1
  O  O265  1  0.63229639  0.42357605  0.64939458  1
  O  O266  1  0.63048112  0.42246272  0.98439059  1
  O  O267  1  0.63212764  0.92938223  0.32077373  1
  O  O268  1  0.63018842  0.92294165  0.64861281  1
  O  O269  1  0.62796432  0.91764168  0.98429832  1
  O  O270  1  0.02721334  0.20030855  0.11182944  1
  O  O271  1  0.02494869  0.19559434  0.42893682  1
  O  O272  1  0.04026802  0.18448999  0.77285388  1
  O  O273  1  0.03006225  0.70079337  0.10309570  1
  O  O274  1  0.03512800  0.68074615  0.43176129  1
  O  O275  1  0.02588427  0.70487859  0.77129539  1
  O  O276  1  0.53061270  0.20084352  0.10136638  1
  O  O277  1  0.53620239  0.19876313  0.43553270  1
  O  O278  1  0.54243813  0.20628801  0.77263227  1
  O  O279  1  0.53765718  0.69062360  0.10582051  1
  O  O280  1  0.53008212  0.70010350  0.43829607  1
  O  O281  1  0.53437022  0.70276028  0.77380996  1
  O  O282  1  0.30557135  0.46840518  0.06514525  1
  O  O283  1  0.30152603  0.46990623  0.39486705  1
  O  O284  1  0.31626434  0.46432738  0.72812690  1
  O  O285  1  0.29284420  0.97441101  0.06325754  1
  O  O286  1  0.29965091  0.96593946  0.39682098  1
  O  O287  1  0.30753494  0.96077268  0.72655681  1
  O  O288  1  0.79617311  0.46960734  0.06746600  1
  O  O289  1  0.79592633  0.47441510  0.39581880  1
  O  O290  1  0.79431112  0.47821670  0.73062624  1
  O  O291  1  0.79579794  0.96850559  0.05741765  1
  O  O292  1  0.79508459  0.97754662  0.39590515  1
  O  O293  1  0.79465313  0.95869761  0.72975244  1
  O  O294  1  0.47004913  0.29916938  0.22717355  1
  O  O295  1  0.47074330  0.29979445  0.56051051  1
  O  O296  1  0.46823691  0.29737035  0.89342443  1
  O  O297  1  0.45981105  0.80229572  0.23315168  1
  O  O298  1  0.45971528  0.79808557  0.56005749  1
  O  O299  1  0.46566988  0.79743987  0.89075156  1
  O  O300  1  0.96719172  0.29928256  0.23460485  1
  O  O301  1  0.95580315  0.32002863  0.55614930  1
  O  O302  1  0.95814570  0.31941994  0.90629122  1
  O  O303  1  0.97886877  0.79391749  0.23023320  1
  O  O304  1  0.97560407  0.79714490  0.56350246  1
  O  O305  1  0.97065533  0.80384431  0.89978800  1
  O  O306  1  0.20058120  0.03299458  0.27075704  1
  O  O307  1  0.19834885  0.01464984  0.59123151  1
  O  O308  1  0.20144402  0.02314985  0.94346378  1
  O  O309  1  0.20306248  0.53021131  0.27107602  1
  O  O310  1  0.20080439  0.53130197  0.60112802  1
  O  O311  1  0.21135423  0.54111596  0.94399812  1
  O  O312  1  0.68803361  0.03742736  0.26906766  1
  O  O313  1  0.69124131  0.03811853  0.59546754  1
  O  O314  1  0.69282799  0.02622341  0.93394382  1
  O  O315  1  0.69790197  0.53504442  0.27318559  1
  O  O316  1  0.70450210  0.53502107  0.60510147  1
  O  O317  1  0.69865557  0.53211605  0.93783303  1
  O  O318  1  0.07876307  0.08604984  0.04504619  1
  O  O319  1  0.07714408  0.08298347  0.36624984  1
  O  O320  1  0.09554127  0.08644556  0.69640917  1
  O  O321  1  0.08919181  0.59176875  0.04022020  1
  O  O322  1  0.08422095  0.57213921  0.35731232  1
  O  O323  1  0.07031963  0.58534470  0.70985227  1
  O  O324  1  0.58410448  0.08770921  0.03606121  1
  O  O325  1  0.59627370  0.09266532  0.36702538  1
  O  O326  1  0.59576782  0.09424392  0.70804549  1
  O  O327  1  0.58445004  0.58070797  0.03094213  1
  O  O328  1  0.58752561  0.59301980  0.36988181  1
  O  O329  1  0.58412812  0.58874710  0.70866721  1
  O  O330  1  0.41899745  0.41870897  0.13276912  1
  O  O331  1  0.41508512  0.41924434  0.46149390  1
  O  O332  1  0.42450702  0.41312405  0.79965288  1
  O  O333  1  0.41170446  0.93105175  0.12918419  1
  O  O334  1  0.40735272  0.91029195  0.46332090  1
  O  O335  1  0.41827093  0.91182139  0.79889138  1
  O  O336  1  0.90528477  0.41150233  0.13537427  1
  O  O337  1  0.91201478  0.42435378  0.46037317  1
  O  O338  1  0.91311781  0.43417406  0.79563702  1
  O  O339  1  0.90747101  0.91359724  0.12140054  1
  O  O340  1  0.90710162  0.91874390  0.44916959  1
  O  O341  1  0.90671860  0.90825539  0.79880926  1
  O  O342  1  0.41586386  0.41036203  0.29105484  1
  O  O343  1  0.41115859  0.40907470  0.62341921  1
  O  O344  1  0.41906709  0.41189103  0.96130793  1
  O  O345  1  0.41324826  0.91654541  0.30296901  1
  O  O346  1  0.40170308  0.90605973  0.62702808  1
  O  O347  1  0.41121600  0.91043555  0.95721222  1
  O  O348  1  0.91182268  0.40981369  0.30065579  1
  O  O349  1  0.91627711  0.42974304  0.63727765  1
  O  O350  1  0.90682745  0.42100384  0.98366870  1
  O  O351  1  0.92996899  0.90912033  0.29603906  1
  O  O352  1  0.92722603  0.91293839  0.63018441  1
  O  O353  1  0.91367929  0.91292359  0.96670363  1
  O  O354  1  0.08926727  0.08665015  0.20426610  1
  O  O355  1  0.08421771  0.06584724  0.52653867  1
  O  O356  1  0.08237629  0.05920946  0.86720467  1
  O  O357  1  0.09520719  0.58851378  0.20617429  1
  O  O358  1  0.08746373  0.58255852  0.53682322  1
  O  O359  1  0.09530562  0.58965798  0.87666292  1
  O  O360  1  0.57871976  0.08621615  0.19428320  1
  O  O361  1  0.58869585  0.09457185  0.52285715  1
  O  O362  1  0.58052462  0.07877096  0.86551077  1
  O  O363  1  0.58329316  0.58606839  0.20734850  1
  O  O364  1  0.59484020  0.59401803  0.54520653  1
  O  O365  1  0.58421951  0.58166287  0.87045496  1
  O  O366  1  0.12963778  0.21832683  0.05968888  1
  O  O367  1  0.12929836  0.21305704  0.37674137  1
  O  O368  1  0.14654158  0.22425221  0.73330707  1
  O  O369  1  0.14120721  0.72562055  0.06270718  1
  O  O370  1  0.13925448  0.70771357  0.38400049  1
  O  O371  1  0.13635064  0.71334987  0.72605371  1
  O  O372  1  0.63773313  0.22143517  0.05607531  1
  O  O373  1  0.64067379  0.23026434  0.39114631  1
  O  O374  1  0.64972850  0.22746292  0.72723319  1
  O  O375  1  0.64169585  0.71526981  0.05787085  1
  O  O376  1  0.63857692  0.72842272  0.39665177  1
  O  O377  1  0.63959614  0.72019831  0.72495304  1
  O  O378  1  0.28605064  0.35983523  0.11033713  1
  O  O379  1  0.28452032  0.35827594  0.43674834  1
  O  O380  1  0.28992197  0.35835022  0.77452751  1
  O  O381  1  0.28332778  0.86428074  0.10811698  1
  O  O382  1  0.27311476  0.85600932  0.43808709  1
  O  O383  1  0.28408870  0.85828934  0.77736950  1
  O  O384  1  0.77012937  0.36120720  0.10940986  1
  O  O385  1  0.77960223  0.36627181  0.44125695  1
  O  O386  1  0.78359148  0.36778661  0.77411418  1
  O  O387  1  0.77499744  0.86114699  0.10320130  1
  O  O388  1  0.77739633  0.86932080  0.44113316  1
  O  O389  1  0.77286284  0.85726074  0.78070637  1
  O  O390  1  0.36055070  0.27769772  0.27002757  1
  O  O391  1  0.36885715  0.27523811  0.61195010  1
  O  O392  1  0.36174935  0.27889307  0.94134907  1
  O  O393  1  0.35670715  0.78407760  0.28404970  1
  O  O394  1  0.35807473  0.77013320  0.60884312  1
  O  O395  1  0.36516626  0.77647232  0.94301445  1
  O  O396  1  0.85426700  0.27577868  0.27218357  1
  O  O397  1  0.86518693  0.29541468  0.61739197  1
  O  O398  1  0.85382322  0.28418069  0.95076043  1
  O  O399  1  0.86595091  0.77704427  0.26906520  1
  O  O400  1  0.86544437  0.78077203  0.60570762  1
  O  O401  1  0.86249211  0.77743654  0.94243664  1
  O  O402  1  0.22293829  0.13517785  0.21934357  1
  O  O403  1  0.21757443  0.12793485  0.55458087  1
  O  O404  1  0.20971045  0.13223900  0.89793211  1
  O  O405  1  0.22955348  0.63767010  0.22740070  1
  O  O406  1  0.22048279  0.63491281  0.55104189  1
  O  O407  1  0.22681715  0.63995642  0.88841355  1
  O  O408  1  0.71368168  0.14053093  0.22031490  1
  O  O409  1  0.72561931  0.14831862  0.55793923  1
  O  O410  1  0.71370712  0.13706108  0.89317551  1
  O  O411  1  0.71580009  0.63871188  0.22191619  1
  O  O412  1  0.72783880  0.64389073  0.56160665  1
  O  O413  1  0.71658660  0.63951492  0.89120535  1
  O  O414  1  0.49325013  0.33142061  0.02805867  1
  O  O415  1  0.49022097  0.33041563  0.36042858  1
  O  O416  1  0.49871901  0.33980870  0.69495669  1
  O  O417  1  0.49750676  0.83851431  0.02588622  1
  O  O418  1  0.48993711  0.83649338  0.36841535  1
  O  O419  1  0.48852823  0.83219733  0.69379260  1
  O  O420  1  0.98535040  0.33281326  0.03801312  1
  O  O421  1  0.98366941  0.32570192  0.36623473  1
  O  O422  1  1.00206880  0.34847222  0.69172099  1
  O  O423  1  0.99172491  0.83348961  0.03295120  1
  O  O424  1  0.99415576  0.82108883  0.36226887  1
  O  O425  1  0.99497613  0.82787060  0.69723958  1
  O  O426  1  0.16352516  0.00443620  0.13556435  1
  O  O427  1  0.16961553  0.00094294  0.45969583  1
  O  O428  1  0.17822999  -0.00087889  0.81123866  1
  O  O429  1  0.17278129  0.50814985  0.13815098  1
  O  O430  1  0.16217806  0.50413456  0.46572453  1
  O  O431  1  0.16894606  0.50519669  0.80834706  1
  O  O432  1  0.66167000  0.00756629  0.13520946  1
  O  O433  1  0.67548065  0.01915237  0.46535119  1
  O  O434  1  0.66401612  0.00609588  0.80069316  1
  O  O435  1  0.65987174  0.50694638  0.13799237  1
  O  O436  1  0.66904797  0.51549296  0.47201353  1
  O  O437  1  0.66532771  0.50809305  0.80323575  1
  O  O438  1  -0.00189976  0.15887981  0.29475848  1
  O  O439  1  0.01517356  0.17567685  0.64518101  1
  O  O440  1  -0.00389269  0.16162728  0.97706701  1
  O  O441  1  0.00750712  0.65629911  0.29765702  1
  O  O442  1  0.00617656  0.66608015  0.63656243  1
  O  O443  1  0.01203652  0.67077043  0.97133844  1
  O  O444  1  0.51117833  0.16941037  0.30275698  1
  O  O445  1  0.51907144  0.17324653  0.63909582  1
  O  O446  1  0.50756398  0.16515871  0.96700822  1
  O  O447  1  0.50858891  0.67395911  0.30609992  1
  O  O448  1  0.50789187  0.66798669  0.63940445  1
  O  O449  1  0.50868141  0.66663187  0.97206014  1
  O  O450  1  0.33695411  0.49148529  0.19899609  1
  O  O451  1  0.32963211  0.48973170  0.52686027  1
  O  O452  1  0.34194592  0.49066133  0.86140628  1
  O  O453  1  0.32813646  0.99560075  0.19777563  1
  O  O454  1  0.32623266  0.98518502  0.52967362  1
  O  O455  1  0.33910921  0.99158018  0.86150439  1
  O  O456  1  0.82591697  0.49145785  0.19970027  1
  O  O457  1  0.83060605  0.49729244  0.52929188  1
  O  O458  1  0.82921671  0.49747958  0.86513399  1
  O  O459  1  0.82902754  0.99208310  0.19109905  1
  O  O460  1  0.83984068  0.99759928  0.53049990  1
  O  O461  1  0.83044518  0.98899700  0.86558315  1
