# generated using pymatgen
data_Na31Fe20(SO4)36
_symmetry_space_group_name_H-M   'P 1'
_cell_length_a   18.06057923
_cell_length_b   18.06188452
_cell_length_c   19.68683746
_cell_angle_alpha   107.61709171
_cell_angle_beta   107.58188091
_cell_angle_gamma   90.67803323
_symmetry_Int_Tables_number   1
_chemical_formula_structural   Na31Fe20(SO4)36
_chemical_formula_sum   'Na62 Fe40 S72 O288'
_cell_volume   5797.08783324
_cell_formula_units_Z   2
loop_
 _symmetry_equiv_pos_site_id
 _symmetry_equiv_pos_as_xyz
  1  'x, y, z'
loop_
 _atom_site_type_symbol
 _atom_site_label
 _atom_site_symmetry_multiplicity
 _atom_site_fract_x
 _atom_site_fract_y
 _atom_site_fract_z
 _atom_site_occupancy
  Na  Na0  1  0.14929610  0.36589941  0.09577450  1
  Na  Na1  1  0.13206842  0.34226270  0.39017048  1
  Na  Na2  1  0.13341510  0.35628695  0.74856700  1
  Na  Na3  1  0.13224575  0.87199393  0.08269857  1
  Na  Na4  1  0.12288919  0.86418035  0.41289470  1
  Na  Na5  1  0.13440837  0.86688011  0.75220370  1
  Na  Na6  1  0.65284460  0.35900901  0.09436518  1
  Na  Na7  1  0.61941957  0.35772545  0.39708755  1
  Na  Na8  1  0.70572715  0.40071319  0.82652762  1
  Na  Na9  1  0.63156496  0.87399520  0.08669309  1
  Na  Na10  1  0.62829965  0.87169383  0.41607225  1
  Na  Na11  1  0.63519503  0.86664062  0.75256264  1
  Na  Na12  1  0.35604571  0.13867117  0.24883127  1
  Na  Na13  1  0.36161524  0.13560757  0.58131622  1
  Na  Na14  1  0.35860324  0.14681728  0.93209008  1
  Na  Na15  1  0.35917518  0.62754488  0.24405911  1
  Na  Na16  1  0.36586010  0.63103688  0.57994082  1
  Na  Na17  1  0.37274337  0.62944686  0.91948410  1
  Na  Na18  1  0.86936173  0.14590863  0.24724576  1
  Na  Na19  1  0.87047561  0.14534546  0.59637686  1
  Na  Na20  1  0.86408241  0.13594583  0.91068328  1
  Na  Na21  1  0.86700194  0.63056620  0.24505740  1
  Na  Na22  1  0.86213443  0.63528035  0.57830783  1
  Na  Na23  1  0.86522143  0.63142519  0.91512371  1
  Na  Na24  1  1.01093278  0.49045298  0.74929007  1
  Na  Na25  1  0.98905408  0.00897805  0.75746547  1
  Na  Na26  1  0.51398134  0.47412754  0.76829161  1
  Na  Na27  1  0.49369277  0.01334055  0.74902201  1
  Na  Na28  1  0.95093449  0.50629360  0.06489649  1
  Na  Na29  1  0.99551583  0.51907873  0.40894670  1
  Na  Na30  1  1.00926980  0.05977782  0.10250449  1
  Na  Na31  1  0.48331249  0.04540005  0.18798034  1
  Na  Na32  1  0.54405272  0.48666105  0.04868399  1
  Na  Na33  1  0.48033528  0.49710007  0.28345893  1
  Na  Na34  1  -0.00592293  1.00757134  0.25967759  1
  Na  Na35  1  0.01044522  0.96937602  0.55469300  1
  Na  Na36  1  0.01201051  0.48875742  0.57695648  1
  Na  Na37  1  0.02855227  0.48884457  0.24140660  1
  Na  Na38  1  0.51047747  0.48698379  0.57128629  1
  Na  Na39  1  0.48103539  1.00714082  0.94058910  1
  Na  Na40  1  0.50207787  1.00960762  0.55684020  1
  Na  Na41  1  0.00267916  0.45323480  0.90702707  1
  Na  Na42  1  0.74024596  0.73654514  0.00602778  1
  Na  Na43  1  0.24950597  0.75168243  0.00078342  1
  Na  Na44  1  0.24781006  0.74697034  0.33307383  1
  Na  Na45  1  0.74700834  0.25027997  0.32069070  1
  Na  Na46  1  0.74984654  0.75114271  0.66345927  1
  Na  Na47  1  0.76051544  0.26671069  -0.01392311  1
  Na  Na48  1  0.76811939  0.76243361  0.33073252  1
  Na  Na49  1  0.74589236  0.25058156  0.68116183  1
  Na  Na50  1  0.25013773  0.75083576  0.66694064  1
  Na  Na51  1  0.25099426  0.24909979  0.66621979  1
  Na  Na52  1  0.76069448  0.75969025  0.49059528  1
  Na  Na53  1  0.74696977  0.74764983  0.83648697  1
  Na  Na54  1  0.23249534  0.23569815  0.17578212  1
  Na  Na55  1  0.25695958  0.25544827  0.48401293  1
  Na  Na56  1  0.74676038  0.25028721  0.49823895  1
  Na  Na57  1  0.23876340  0.23992541  0.84323566  1
  Na  Na58  1  0.24951333  0.74930626  0.16522025  1
  Na  Na59  1  0.74362697  0.73867489  0.16634857  1
  Na  Na60  1  0.24611981  0.74805591  0.83663596  1
  Na  Na61  1  0.25130572  0.74771393  0.49859393  1
  Fe  Fe62  1  0.46502000  0.81082348  0.12281786  1
  Fe  Fe63  1  0.46480859  0.29907968  0.12395203  1
  Fe  Fe64  1  0.96745762  0.30084467  0.12400659  1
  Fe  Fe65  1  0.96689499  0.30425617  0.44689539  1
  Fe  Fe66  1  0.96549646  0.81179514  0.11940691  1
  Fe  Fe67  1  0.46148390  0.30025070  0.44177767  1
  Fe  Fe68  1  0.96455296  0.81364276  0.79068789  1
  Fe  Fe69  1  0.46217401  0.80563903  0.45185159  1
  Fe  Fe70  1  0.46484639  0.81094007  0.78957909  1
  Fe  Fe71  1  0.47230213  0.30442269  0.79089472  1
  Fe  Fe72  1  0.19621290  0.53469391  0.71363655  1
  Fe  Fe73  1  0.20261540  0.52547394  0.37488513  1
  Fe  Fe74  1  0.69174966  0.03644451  0.71650964  1
  Fe  Fe75  1  0.69120217  0.04104623  0.05220069  1
  Fe  Fe76  1  0.18832202  0.03622442  0.38154092  1
  Fe  Fe77  1  0.19136034  0.03437962  0.71510495  1
  Fe  Fe78  1  0.69116518  0.53621608  0.37914059  1
  Fe  Fe79  1  0.19797251  0.52777269  0.04576865  1
  Fe  Fe80  1  0.69424352  0.53527915  0.71303422  1
  Fe  Fe81  1  0.68970710  0.03628008  0.37768355  1
  Fe  Fe82  1  0.53604928  0.69115326  0.21211695  1
  Fe  Fe83  1  0.03447388  0.19987562  0.87911801  1
  Fe  Fe84  1  0.03186166  0.69242246  0.21013448  1
  Fe  Fe85  1  0.53446087  0.19010761  0.88982367  1
  Fe  Fe86  1  0.03595352  0.69402163  0.87926028  1
  Fe  Fe87  1  0.53357031  0.69598661  0.88182701  1
  Fe  Fe88  1  0.53546194  0.68892684  0.54311710  1
  Fe  Fe89  1  0.03225084  0.19009025  0.54700200  1
  Fe  Fe90  1  0.53638320  0.19408598  0.54589342  1
  Fe  Fe91  1  0.03221796  0.69874561  0.54329152  1
  Fe  Fe92  1  0.80843127  0.96905318  0.95505765  1
  Fe  Fe93  1  0.81315597  0.96405833  0.29011807  1
  Fe  Fe94  1  0.31710692  0.45869048  0.95686952  1
  Fe  Fe95  1  0.29478887  0.97505233  0.96062980  1
  Fe  Fe96  1  0.30547628  0.96502352  0.61985786  1
  Fe  Fe97  1  0.80973462  0.46514120  0.61555490  1
  Fe  Fe98  1  0.80578471  0.46576929  0.28241114  1
  Fe  Fe99  1  0.80584438  0.96380109  0.61670122  1
  Fe  Fe100  1  0.31074929  0.46432054  0.62011302  1
  Fe  Fe101  1  0.30652135  0.96650230  0.28748878  1
  S  S102  1  0.35527986  0.14306229  0.08476357  1
  S  S103  1  0.36109004  0.13672124  0.42225502  1
  S  S104  1  0.36144555  0.13907959  0.74930303  1
  S  S105  1  0.36102355  0.63880708  0.08252159  1
  S  S106  1  0.36110050  0.64111843  0.41755392  1
  S  S107  1  0.35970348  0.64245839  0.75011173  1
  S  S108  1  0.85349076  0.14280136  0.07931440  1
  S  S109  1  0.85855964  0.14162221  0.41659071  1
  S  S110  1  0.86203269  0.13498047  0.74856523  1
  S  S111  1  0.86050245  0.64660160  0.07842469  1
  S  S112  1  0.86010813  0.63866733  0.41963308  1
  S  S113  1  0.86113716  0.64385122  0.74656129  1
  S  S114  1  0.13752483  0.35760048  0.24782206  1
  S  S115  1  0.14108615  0.36037412  0.58451959  1
  S  S116  1  0.14334821  0.35932208  0.91313977  1
  S  S117  1  0.13890065  0.85772729  0.25157538  1
  S  S118  1  0.14404641  0.85774410  0.58411954  1
  S  S119  1  0.14019012  0.85708172  0.91348492  1
  S  S120  1  0.63471256  0.36701170  0.24815385  1
  S  S121  1  0.63832442  0.36147859  0.57923677  1
  S  S122  1  0.63422277  0.35544157  0.92401140  1
  S  S123  1  0.64131692  0.85907659  0.25191946  1
  S  S124  1  0.63697464  0.86144302  0.58221764  1
  S  S125  1  0.64024727  0.86288832  0.91944630  1
  S  S126  1  0.06516285  0.17507779  0.03963477  1
  S  S127  1  0.06332405  0.16537729  0.38066036  1
  S  S128  1  0.06756321  0.16506390  0.70753948  1
  S  S129  1  0.07201681  0.66664305  0.03781596  1
  S  S130  1  0.07076142  0.66261153  0.37328089  1
  S  S131  1  0.06724324  0.66766846  0.70611068  1
  S  S132  1  0.56267499  0.16796253  0.04217570  1
  S  S133  1  0.56428281  0.16687366  0.37580263  1
  S  S134  1  0.56707269  0.16519092  0.70614989  1
  S  S135  1  0.56697905  0.67830410  0.04615445  1
  S  S136  1  0.56790239  0.67435766  0.37782095  1
  S  S137  1  0.56648621  0.67305841  0.70758514  1
  S  S138  1  0.33850582  0.43098576  0.12477148  1
  S  S139  1  0.32988105  0.43023644  0.46171253  1
  S  S140  1  0.33046751  0.43040896  0.78981539  1
  S  S141  1  0.32953316  0.92944074  0.12679017  1
  S  S142  1  0.32583354  0.93007682  0.45808693  1
  S  S143  1  0.32986510  0.93552588  0.79384096  1
  S  S144  1  0.84068287  0.43339666  0.12816357  1
  S  S145  1  0.82994675  0.43072957  0.45406147  1
  S  S146  1  0.83870877  0.44556311  0.78479345  1
  S  S147  1  0.83118789  0.93550538  0.12419534  1
  S  S148  1  0.82658096  0.93508629  0.45563290  1
  S  S149  1  0.82574878  0.93031558  0.78858230  1
  S  S150  1  0.42470080  0.32886061  0.28623152  1
  S  S151  1  0.43439477  0.32858129  0.62557476  1
  S  S152  1  0.43151123  0.32329005  0.95666601  1
  S  S153  1  0.42803721  0.82521561  0.28997259  1
  S  S154  1  0.43336124  0.83192496  0.62684014  1
  S  S155  1  0.42797924  0.83145874  0.95725723  1
  S  S156  1  0.92914037  0.33311239  0.29182985  1
  S  S157  1  0.93792353  0.33651186  0.61980271  1
  S  S158  1  0.93366612  0.32530867  0.95683445  1
  S  S159  1  0.93410938  0.82832814  0.28859221  1
  S  S160  1  0.93365363  0.83056683  0.62484984  1
  S  S161  1  0.93156442  0.82997012  0.95541165  1
  S  S162  1  0.16608961  0.05962455  0.21635275  1
  S  S163  1  0.16888049  0.06476488  0.54486871  1
  S  S164  1  0.16674064  0.06873646  0.87044256  1
  S  S165  1  0.16629882  0.57038111  0.20408822  1
  S  S166  1  0.17188869  0.56592022  0.54123424  1
  S  S167  1  0.17287701  0.56688526  0.87519331  1
  S  S168  1  0.68102687  0.06650165  0.21549704  1
  S  S169  1  0.67468244  0.07032330  0.54580993  1
  S  S170  1  0.66639694  0.06445747  0.87647394  1
  S  S171  1  0.67468535  0.57188711  0.21243366  1
  S  S172  1  0.66886015  0.56675864  0.54170589  1
  S  S173  1  0.66438843  0.57317439  0.87073738  1
  O  O174  1  0.37445327  0.21895785  0.07025665  1
  O  O175  1  0.36724113  0.21823620  0.42001765  1
  O  O176  1  0.37246888  0.21744420  0.74056295  1
  O  O177  1  0.36675075  0.71752315  0.07266224  1
  O  O178  1  0.36469158  0.72564679  0.41862146  1
  O  O179  1  0.36928331  0.72193733  0.74233834  1
  O  O180  1  0.86649364  0.22370114  0.07415335  1
  O  O181  1  0.86857350  0.21946585  0.40579817  1
  O  O182  1  0.86522489  0.20649851  0.72977290  1
  O  O183  1  0.87555257  0.72732362  0.07227041  1
  O  O184  1  0.86286467  0.71653339  0.41251052  1
  O  O185  1  0.87119643  0.72347584  0.73917854  1
  O  O186  1  0.27664133  0.14080095  0.08889660  1
  O  O187  1  0.28494701  0.12546756  0.43618377  1
  O  O188  1  0.28116967  0.13091330  0.75418809  1
  O  O189  1  0.28210218  0.62793091  0.09100428  1
  O  O190  1  0.28281338  0.62748674  0.42694117  1
  O  O191  1  0.27899748  0.63399931  0.75564530  1
  O  O192  1  0.77305018  0.13528415  0.08312859  1
  O  O193  1  0.77728328  0.13432982  0.42045521  1
  O  O194  1  0.78694741  0.12101435  0.76223691  1
  O  O195  1  0.78198443  0.64235802  0.08424313  1
  O  O196  1  0.78489083  0.62368392  0.43447326  1
  O  O197  1  0.78082913  0.63587922  0.75224679  1
  O  O198  1  0.12629449  0.28369731  0.26040351  1
  O  O199  1  0.12999252  0.28372677  0.59639212  1
  O  O200  1  0.13302636  0.27617759  0.91276158  1
  O  O201  1  0.12795950  0.77938618  0.26141874  1
  O  O202  1  0.13311014  0.77729269  0.58970691  1
  O  O203  1  0.13622534  0.77211554  0.91165759  1
  O  O204  1  0.63389985  0.29684346  0.26972657  1
  O  O205  1  0.63249395  0.28325477  0.59016468  1
  O  O206  1  0.62452187  0.26964423  0.91779967  1
  O  O207  1  0.63056736  0.77996563  0.26026248  1
  O  O208  1  0.62797710  0.78169076  0.58899648  1
  O  O209  1  0.63071594  0.78377434  0.92731137  1
  O  O210  1  0.20940660  0.36993777  0.23202529  1
  O  O211  1  0.22289543  0.36864407  0.58290876  1
  O  O212  1  0.22307652  0.36910546  0.90638643  1
  O  O213  1  0.21940406  0.86419316  0.24657930  1
  O  O214  1  0.22672027  0.86470036  0.58229616  1
  O  O215  1  0.21863143  0.87075090  0.90388361  1
  O  O216  1  0.71047233  0.38206747  0.23601817  1
  O  O217  1  0.71684901  0.37131592  0.57026346  1
  O  O218  1  0.71563410  0.37159781  0.92978424  1
  O  O219  1  0.72150388  0.86456133  0.24491266  1
  O  O220  1  0.71499202  0.86899167  0.57131479  1
  O  O221  1  0.71907670  0.87094245  0.91058967  1
  O  O222  1  0.41336925  0.13604383  0.15216839  1
  O  O223  1  0.42348314  0.12553481  0.48749859  1
  O  O224  1  0.41915371  0.12916553  0.81709337  1
  O  O225  1  0.42048047  0.63439862  0.15150969  1
  O  O226  1  0.42075506  0.63395132  0.48635327  1
  O  O227  1  0.41638155  0.63572580  0.81944587  1
  O  O228  1  0.91090944  0.12990264  0.14399638  1
  O  O229  1  0.91308168  0.13798793  0.48899929  1
  O  O230  1  0.92595970  0.13470085  0.81881271  1
  O  O231  1  0.91852196  0.63829583  0.14909729  1
  O  O232  1  0.92344885  0.63061421  0.48650665  1
  O  O233  1  0.91878387  0.63658515  0.81559799  1
  O  O234  1  0.36302783  0.08021198  0.01608425  1
  O  O235  1  0.36570872  0.08167485  0.35135676  1
  O  O236  1  0.37049723  0.07868597  0.68150296  1
  O  O237  1  0.36932402  0.57939136  0.01487653  1
  O  O238  1  0.37049500  0.59019511  0.34886677  1
  O  O239  1  0.36824569  0.58356178  0.68271098  1
  O  O240  1  0.86047927  0.08584721  0.00819032  1
  O  O241  1  0.87104071  0.08083039  0.35237607  1
  O  O242  1  0.87450604  0.06823042  0.68642570  1
  O  O243  1  0.87233507  0.58889978  0.01338974  1
  O  O244  1  0.86973418  0.57902535  0.35222961  1
  O  O245  1  0.87036774  0.58556820  0.67865234  1
  O  O246  1  0.07056772  0.36637375  0.18096341  1
  O  O247  1  0.08580429  0.36725411  0.51406710  1
  O  O248  1  0.08522881  0.37454337  0.84990760  1
  O  O249  1  0.08252967  0.86284990  0.18074956  1
  O  O250  1  0.08906860  0.86849623  0.51742347  1
  O  O251  1  0.08066342  0.86425167  0.84459422  1
  O  O252  1  0.57325821  0.36170806  0.17491060  1
  O  O253  1  0.57775568  0.36599007  0.50997004  1
  O  O254  1  0.58149354  0.36686490  0.85214630  1
  O  O255  1  0.58371473  0.86734816  0.18347960  1
  O  O256  1  0.57624406  0.87232749  0.51630224  1
  O  O257  1  0.58077259  0.86914870  0.85041662  1
  O  O258  1  0.12902267  0.42322441  0.31445766  1
  O  O259  1  0.12933094  0.42312666  0.64964549  1
  O  O260  1  0.13739517  0.41275807  0.98563670  1
  O  O261  1  0.12803885  0.91797392  0.31729351  1
  O  O262  1  0.13598571  0.91484326  0.65349073  1
  O  O263  1  0.13153309  0.90780345  0.98197323  1
  O  O264  1  0.61917601  0.43410527  0.30816428  1
  O  O265  1  0.62771581  0.42269890  0.64467038  1
  O  O266  1  0.61287224  0.40223215  0.98869786  1
  O  O267  1  0.63338829  0.91811465  0.31954800  1
  O  O268  1  0.63148202  0.91945346  0.65182333  1
  O  O269  1  0.63169514  0.92223360  0.98675630  1
  O  O270  1  0.01860294  0.20433376  0.09360642  1
  O  O271  1  0.03223856  0.20122655  0.44655805  1
  O  O272  1  0.03494222  0.18983532  0.77022247  1
  O  O273  1  0.03887504  0.69667231  0.10070283  1
  O  O274  1  0.03488283  0.68526033  0.43351257  1
  O  O275  1  0.03101928  0.69565632  0.76672145  1
  O  O276  1  0.53050915  0.20312627  0.10382282  1
  O  O277  1  0.52943116  0.20099538  0.43964415  1
  O  O278  1  0.53121166  0.19468013  0.76711063  1
  O  O279  1  0.52702905  0.71069332  0.10555713  1
  O  O280  1  0.52955517  0.70489676  0.43822889  1
  O  O281  1  0.53069834  0.70284934  0.76911026  1
  O  O282  1  0.30496005  0.46399141  0.05911945  1
  O  O283  1  0.30252969  0.46611983  0.40227340  1
  O  O284  1  0.30253965  0.47216543  0.73187572  1
  O  O285  1  0.30218664  0.95998209  0.06379033  1
  O  O286  1  0.29615086  0.96440714  0.39650798  1
  O  O287  1  0.30038453  0.97097217  0.73191386  1
  O  O288  1  0.83156335  0.47173461  0.07202105  1
  O  O289  1  0.79539122  0.46227091  0.39060342  1
  O  O290  1  0.79642169  0.47457753  0.71807190  1
  O  O291  1  0.79962395  0.97337507  0.06422975  1
  O  O292  1  0.79219898  0.97351273  0.39609485  1
  O  O293  1  0.79113729  0.96093179  0.72424036  1
  O  O294  1  0.46275410  0.30744411  0.22501562  1
  O  O295  1  0.47086516  0.29943812  0.56507964  1
  O  O296  1  0.46688829  0.29144430  0.89470589  1
  O  O297  1  0.46655258  0.79680914  0.23022229  1
  O  O298  1  0.47005850  0.80285366  0.56668223  1
  O  O299  1  0.46654829  0.80134821  0.89667611  1
  O  O300  1  0.95767001  0.30190224  0.22693195  1
  O  O301  1  0.96857001  0.30159356  0.55437662  1
  O  O302  1  0.98001340  0.29530524  0.90320971  1
  O  O303  1  0.96833024  0.79822872  0.22448713  1
  O  O304  1  0.97136051  0.80181203  0.56663877  1
  O  O305  1  0.97143357  0.80064489  0.89594398  1
  O  O306  1  0.20776995  0.02689490  0.28169906  1
  O  O307  1  0.20047635  0.02668182  0.60540696  1
  O  O308  1  0.19198617  0.03317374  0.93001634  1
  O  O309  1  0.19163260  0.54202860  0.26883131  1
  O  O310  1  0.20279894  0.53031653  0.60331554  1
  O  O311  1  0.20045892  0.53054652  0.93568514  1
  O  O312  1  0.71171933  0.02320592  0.27248760  1
  O  O313  1  0.70363555  0.03321250  0.60710965  1
  O  O314  1  0.69683674  0.02696445  0.93644406  1
  O  O315  1  0.70913754  0.54492023  0.28028450  1
  O  O316  1  0.70284830  0.53226421  0.60343038  1
  O  O317  1  0.68827228  0.53863992  0.92969551  1
  O  O318  1  0.07984101  0.09597669  0.03814057  1
  O  O319  1  0.08296544  0.08490067  0.38139220  1
  O  O320  1  0.08058667  0.08023911  0.69181054  1
  O  O321  1  0.08998046  0.58454485  0.02955716  1
  O  O322  1  0.09061069  0.57997184  0.36385141  1
  O  O323  1  0.08448340  0.58448681  0.69915265  1
  O  O324  1  0.58479767  0.08846374  0.04441703  1
  O  O325  1  0.59382900  0.09222659  0.38409228  1
  O  O326  1  0.57913434  0.07999788  0.69847968  1
  O  O327  1  0.58909479  0.60206495  0.04775848  1
  O  O328  1  0.58706966  0.59422360  0.37630287  1
  O  O329  1  0.58399133  0.59105787  0.69898023  1
  O  O330  1  0.41317640  0.39766379  0.11711698  1
  O  O331  1  0.40954862  0.40535327  0.46637373  1
  O  O332  1  0.41010447  0.40920225  0.79153635  1
  O  O333  1  0.41315271  0.91202507  0.13693149  1
  O  O334  1  0.40696383  0.90987046  0.46319886  1
  O  O335  1  0.41370174  0.92149610  0.80142310  1
  O  O336  1  0.92294936  0.40659925  0.14574671  1
  O  O337  1  0.91336617  0.41777692  0.45967393  1
  O  O338  1  0.92158292  0.44467649  0.78936430  1
  O  O339  1  0.91265013  0.91795034  0.12693106  1
  O  O340  1  0.90341002  0.91415303  0.45347357  1
  O  O341  1  0.90778235  0.91633164  0.79191029  1
  O  O342  1  0.40703008  0.40918141  0.30063057  1
  O  O343  1  0.41971408  0.41230299  0.63373391  1
  O  O344  1  0.42295441  0.40769958  0.96556866  1
  O  O345  1  0.40321157  0.90290950  0.29165812  1
  O  O346  1  0.41410610  0.91355979  0.63173174  1
  O  O347  1  0.40465373  0.90965306  0.95683416  1
  O  O348  1  0.91663763  0.41769549  0.30361091  1
  O  O349  1  0.92004575  0.41885512  0.61999296  1
  O  O350  1  0.92038270  0.40519550  0.95597999  1
  O  O351  1  0.91251298  0.90874727  0.28814906  1
  O  O352  1  0.91582392  0.91298131  0.63042870  1
  O  O353  1  0.90966909  0.90915602  0.95756823  1
  O  O354  1  0.08767961  0.07331625  0.22334146  1
  O  O355  1  0.08775858  0.08129269  0.54215568  1
  O  O356  1  0.08742621  0.09664086  0.86543836  1
  O  O357  1  0.08073950  0.58221851  0.18792478  1
  O  O358  1  0.08919122  0.58167221  0.53642437  1
  O  O359  1  0.09138209  0.58708089  0.86765761  1
  O  O360  1  0.60644050  0.09158367  0.22045918  1
  O  O361  1  0.59411357  0.08989597  0.54314375  1
  O  O362  1  0.58350019  0.07976053  0.87158769  1
  O  O363  1  0.59511140  0.59493420  0.21206135  1
  O  O364  1  0.58735715  0.58270015  0.54053093  1
  O  O365  1  0.58105458  0.59354741  0.85768697  1
  O  O366  1  0.13446581  0.23062444  0.06113400  1
  O  O367  1  0.13436631  0.21535154  0.39371700  1
  O  O368  1  0.14130232  0.21470075  0.72476004  1
  O  O369  1  0.14289492  0.71924120  0.05184882  1
  O  O370  1  0.14140046  0.71672164  0.39072151  1
  O  O371  1  0.13987162  0.71878794  0.72335864  1
  O  O372  1  0.62815471  0.21765989  0.04360081  1
  O  O373  1  0.63084700  0.22369015  0.38811215  1
  O  O374  1  0.63984546  0.21156132  0.71995911  1
  O  O375  1  0.63531568  0.73526787  0.06229825  1
  O  O376  1  0.63835343  0.72772018  0.39496511  1
  O  O377  1  0.63823959  0.72545404  0.72433939  1
  O  O378  1  0.28168192  0.37033823  0.11930531  1
  O  O379  1  0.27427779  0.36490689  0.45263185  1
  O  O380  1  0.27527157  0.36035198  0.76994380  1
  O  O381  1  0.27912482  0.85748711  0.11395027  1
  O  O382  1  0.27264516  0.86056697  0.44507399  1
  O  O383  1  0.28062300  0.86159781  0.77540678  1
  O  O384  1  0.78324525  0.36535501  0.10714994  1
  O  O385  1  0.78228755  0.35833576  0.44229127  1
  O  O386  1  0.79941150  0.36731327  0.76867998  1
  O  O387  1  0.77888716  0.86452640  0.10819233  1
  O  O388  1  0.77100801  0.86556830  0.44046582  1
  O  O389  1  0.77770895  0.85705183  0.77594376  1
  O  O390  1  0.35721243  0.27151894  0.26745362  1
  O  O391  1  0.36064498  0.27853832  0.60720497  1
  O  O392  1  0.35606305  0.27768038  0.93670508  1
  O  O393  1  0.36021812  0.76801203  0.27469592  1
  O  O394  1  0.36292591  0.77884579  0.61154677  1
  O  O395  1  0.35951789  0.77514455  0.94108560  1
  O  O396  1  0.85779892  0.28642062  0.28301727  1
  O  O397  1  0.86573743  0.28822942  0.60785111  1
  O  O398  1  0.86215661  0.27240108  0.93450516  1
  O  O399  1  0.86210003  0.77551797  0.27083056  1
  O  O400  1  0.86036462  0.77978015  0.60787873  1
  O  O401  1  0.86222497  0.77448726  0.93727230  1
  O  O402  1  0.21478865  0.13107819  0.22872438  1
  O  O403  1  0.22027929  0.13708356  0.56297899  1
  O  O404  1  0.22309060  0.13281117  0.87861825  1
  O  O405  1  0.21431716  0.64436601  0.21844719  1
  O  O406  1  0.22241056  0.63927535  0.55940929  1
  O  O407  1  0.22746881  0.63636261  0.89071317  1
  O  O408  1  0.73885450  0.13262842  0.23110859  1
  O  O409  1  0.72732916  0.14177451  0.56318800  1
  O  O410  1  0.71706866  0.13475479  0.89069252  1
  O  O411  1  0.72733348  0.64133873  0.22282919  1
  O  O412  1  0.71767635  0.64003811  0.55647331  1
  O  O413  1  0.71674113  0.64385436  0.88278776  1
  O  O414  1  0.48784971  0.31699182  0.02716646  1
  O  O415  1  0.48715260  0.32184433  0.35525572  1
  O  O416  1  0.49188279  0.32930964  0.69840525  1
  O  O417  1  0.48765434  0.83704140  0.03028924  1
  O  O418  1  0.48810335  0.83118453  0.36351136  1
  O  O419  1  0.49238685  0.83703480  0.70088676  1
  O  O420  1  0.98501872  0.32968554  0.03494555  1
  O  O421  1  0.99337167  0.33158155  0.36165579  1
  O  O422  1  1.00006476  0.34388927  0.68991818  1
  O  O423  1  0.99092732  0.83337681  0.02814126  1
  O  O424  1  0.99272929  0.83146157  0.35847765  1
  O  O425  1  0.99045360  0.83360250  0.69958865  1
  O  O426  1  0.15964429  -0.00118767  0.14555465  1
  O  O427  1  0.16898831  0.00661551  0.47289824  1
  O  O428  1  0.15500998  0.00538141  0.79543004  1
  O  O429  1  0.17453538  0.50948776  0.13650280  1
  O  O430  1  0.17159809  0.50803078  0.46953139  1
  O  O431  1  0.16863453  0.50688356  0.80144490  1
  O  O432  1  0.67292454  0.00796730  0.13988028  1
  O  O433  1  0.67219910  0.01100941  0.47402159  1
  O  O434  1  0.66129345  0.00490940  0.80210655  1
  O  O435  1  0.66745993  0.50689578  0.14438077  1
  O  O436  1  0.66651197  0.50804403  0.46928060  1
  O  O437  1  0.65994588  0.51210497  0.79560307  1
  O  O438  1  0.00018509  0.15893215  0.31174015  1
  O  O439  1  0.00839306  0.17263889  0.63862497  1
  O  O440  1  0.01107141  0.17346625  0.96235274  1
  O  O441  1  0.01154758  0.66175097  0.30065466  1
  O  O442  1  0.00940477  0.66680424  0.63355380  1
  O  O443  1  0.01091497  0.66696755  0.96665090  1
  O  O444  1  0.50154132  0.15156734  0.30463591  1
  O  O445  1  0.50694895  0.16288900  0.63295390  1
  O  O446  1  0.49738853  0.15088730  0.96697902  1
  O  O447  1  0.50869345  0.66980811  0.30487722  1
  O  O448  1  0.50695824  0.67351571  0.63591822  1
  O  O449  1  0.50814991  0.67424818  0.97214410  1
  O  O450  1  0.35963494  0.49842648  0.19377057  1
  O  O451  1  0.34069236  0.49309445  0.53718038  1
  O  O452  1  0.33383078  0.48694106  0.86406415  1
  O  O453  1  0.33097312  0.99107742  0.19791204  1
  O  O454  1  0.33193996  0.99155976  0.53121454  1
  O  O455  1  0.32857430  0.99362090  0.86521551  1
  O  O456  1  0.84040253  0.49270196  0.20147624  1
  O  O457  1  0.83109517  0.49249543  0.52548795  1
  O  O458  1  0.82910296  0.50081011  0.85261047  1
  O  O459  1  0.83729256  0.99398455  0.19848866  1
  O  O460  1  0.83201888  0.99358917  0.53042245  1
  O  O461  1  0.82573707  0.99052257  0.85929822  1
