# generated using pymatgen
data_Na31Fe20(SO4)36
_symmetry_space_group_name_H-M   'P 1'
_cell_length_a   18.07287544
_cell_length_b   18.07571041
_cell_length_c   19.71050145
_cell_angle_alpha   107.61862087
_cell_angle_beta   107.60023601
_cell_angle_gamma   90.66336199
_symmetry_Int_Tables_number   1
_chemical_formula_structural   Na31Fe20(SO4)36
_chemical_formula_sum   'Na62 Fe40 S72 O288'
_cell_volume   5811.92033120
_cell_formula_units_Z   2
loop_
 _symmetry_equiv_pos_site_id
 _symmetry_equiv_pos_as_xyz
  1  'x, y, z'
loop_
 _atom_site_type_symbol
 _atom_site_label
 _atom_site_symmetry_multiplicity
 _atom_site_fract_x
 _atom_site_fract_y
 _atom_site_fract_z
 _atom_site_occupancy
  Na  Na0  1  0.13843591  0.36013106  0.07170279  1
  Na  Na1  1  0.13503847  0.36570993  0.41488966  1
  Na  Na2  1  0.16077161  0.37439736  0.77900926  1
  Na  Na3  1  0.12981999  0.86146622  0.08140381  1
  Na  Na4  1  0.13584410  0.85883202  0.41445446  1
  Na  Na5  1  0.13564753  0.86850960  0.75259423  1
  Na  Na6  1  0.63422888  0.35981026  0.08775509  1
  Na  Na7  1  0.63697252  0.36776186  0.42226205  1
  Na  Na8  1  0.63615215  0.36148783  0.75016131  1
  Na  Na9  1  0.63383120  0.87151740  0.08394804  1
  Na  Na10  1  0.62206516  0.85672970  0.40031158  1
  Na  Na11  1  0.63932490  0.86735677  0.75071548  1
  Na  Na12  1  0.35284057  0.13148176  0.23864006  1
  Na  Na13  1  0.36979714  0.13282229  0.58608190  1
  Na  Na14  1  0.35933445  0.18388652  0.94509319  1
  Na  Na15  1  0.36991982  0.63641753  0.24793083  1
  Na  Na16  1  0.36414985  0.63992396  0.58779740  1
  Na  Na17  1  0.36568147  0.63876409  0.92006787  1
  Na  Na18  1  0.86448858  0.12166565  0.23796185  1
  Na  Na19  1  0.86796245  0.13334549  0.58588634  1
  Na  Na20  1  0.87236019  0.11499730  0.90686083  1
  Na  Na21  1  0.85396117  0.63154615  0.24279301  1
  Na  Na22  1  0.86708367  0.63600566  0.58917904  1
  Na  Na23  1  0.87016453  0.64765600  0.92666091  1
  Na  Na24  1  0.49474600  0.50942121  0.73644806  1
  Na  Na25  1  0.46710687  0.51575203  0.07870626  1
  Na  Na26  1  0.49713374  0.01176378  0.09258036  1
  Na  Na27  1  1.00374889  0.52203752  0.06432740  1
  Na  Na28  1  1.01935018  -0.01136377  0.37294303  1
  Na  Na29  1  0.98995701  0.50810676  0.42060336  1
  Na  Na30  1  0.50745177  0.00824373  0.74699383  1
  Na  Na31  1  0.48607625  0.51066351  0.42374995  1
  Na  Na32  1  1.00048365  -0.02922617  0.11129096  1
  Na  Na33  1  0.50897669  0.46990923  0.23652763  1
  Na  Na34  1  0.53691199  0.99153092  0.57884951  1
  Na  Na35  1  0.53739170  0.99525907  0.92763690  1
  Na  Na36  1  -0.00703694  0.99291191  0.61176825  1
  Na  Na37  1  0.00392047  0.49321691  0.60757953  1
  Na  Na38  1  0.49170034  0.51376289  0.91325396  1
  Na  Na39  1  -0.01162507  0.53990738  0.86447589  1
  Na  Na40  1  0.45748826  1.01256761  0.29888229  1
  Na  Na41  1  0.00944493  0.49244533  0.24150235  1
  Na  Na42  1  0.25163456  0.25073930  0.32898055  1
  Na  Na43  1  0.23933078  0.74252321  -0.00005359  1
  Na  Na44  1  0.74239826  0.23256668  0.67711815  1
  Na  Na45  1  0.74005377  0.74370294  0.33073082  1
  Na  Na46  1  0.25884204  0.76771650  0.32761416  1
  Na  Na47  1  0.76249591  0.76171796  -0.01108287  1
  Na  Na48  1  0.74238601  0.73771691  0.67934709  1
  Na  Na49  1  0.74079265  0.22901194  0.00529135  1
  Na  Na50  1  0.74424730  0.23992089  0.33741114  1
  Na  Na51  1  0.24659563  0.24711332  0.68230829  1
  Na  Na52  1  0.24311061  0.74696398  0.50972720  1
  Na  Na53  1  0.74244922  0.22924186  0.84007596  1
  Na  Na54  1  0.27060780  0.26082869  0.14322977  1
  Na  Na55  1  0.25498722  0.76369716  0.16521915  1
  Na  Na56  1  0.73802473  0.23410987  0.16977803  1
  Na  Na57  1  0.73977995  0.74599341  0.50316049  1
  Na  Na58  1  0.24636967  0.75083109  0.82848319  1
  Na  Na59  1  0.74477245  0.24235594  0.50781655  1
  Na  Na60  1  0.75859642  0.76150354  0.15749046  1
  Na  Na61  1  0.24809386  0.24285456  0.50388775  1
  Fe  Fe62  1  0.46699061  0.80254689  0.12437754  1
  Fe  Fe63  1  0.46584660  0.80547059  0.45052130  1
  Fe  Fe64  1  0.96108521  0.80850026  0.45799045  1
  Fe  Fe65  1  0.46400536  0.31410348  0.45664900  1
  Fe  Fe66  1  0.46651715  0.80886588  0.78555757  1
  Fe  Fe67  1  0.96852039  0.30195624  0.11270086  1
  Fe  Fe68  1  0.96687891  0.30403751  0.45011774  1
  Fe  Fe69  1  0.46493631  0.31212062  0.78734464  1
  Fe  Fe70  1  0.96758348  0.30985590  0.78612647  1
  Fe  Fe71  1  0.96628928  0.80306096  0.79664577  1
  Fe  Fe72  1  0.19806693  0.03684800  0.72047368  1
  Fe  Fe73  1  0.68807040  0.03712156  0.37773898  1
  Fe  Fe74  1  0.19608600  0.53787930  0.71552935  1
  Fe  Fe75  1  0.19925996  0.53318820  0.03248703  1
  Fe  Fe76  1  0.19305372  0.03098028  0.04452699  1
  Fe  Fe77  1  0.18965541  0.53705118  0.37890797  1
  Fe  Fe78  1  0.20368415  0.02676992  0.37421689  1
  Fe  Fe79  1  0.69077773  0.53479075  0.37983306  1
  Fe  Fe80  1  0.69091728  0.53667037  0.71495077  1
  Fe  Fe81  1  0.68821236  0.53032991  0.04784580  1
  Fe  Fe82  1  0.02655207  0.69826104  0.21114271  1
  Fe  Fe83  1  0.03609560  0.69541914  0.55275077  1
  Fe  Fe84  1  0.03759511  0.19185324  0.54807369  1
  Fe  Fe85  1  0.53699465  0.69353942  0.88111818  1
  Fe  Fe86  1  0.53505864  0.69204845  0.54885975  1
  Fe  Fe87  1  0.52955881  0.20337694  0.21112601  1
  Fe  Fe88  1  0.53261835  0.19751912  0.88776271  1
  Fe  Fe89  1  0.53448100  0.19268425  0.54579320  1
  Fe  Fe90  1  0.04260670  0.18977418  0.88053351  1
  Fe  Fe91  1  0.03786031  0.18794362  0.20904258  1
  Fe  Fe92  1  0.30393992  0.46829578  0.28117625  1
  Fe  Fe93  1  0.80041589  0.96689953  0.95868690  1
  Fe  Fe94  1  0.30990724  0.96553606  0.62368834  1
  Fe  Fe95  1  0.81023310  0.46498436  0.62227190  1
  Fe  Fe96  1  0.30796810  0.96488281  0.94956741  1
  Fe  Fe97  1  0.80187942  0.96989482  0.63126413  1
  Fe  Fe98  1  0.80869712  0.46257948  0.28386553  1
  Fe  Fe99  1  0.80170379  0.96660541  0.28480646  1
  Fe  Fe100  1  0.30658233  0.46630392  0.61525101  1
  Fe  Fe101  1  0.80582809  0.46167491  0.95057214  1
  S  S102  1  0.36053904  0.13519405  0.08462094  1
  S  S103  1  0.36159147  0.14645887  0.41620329  1
  S  S104  1  0.36245639  0.14152220  0.75101379  1
  S  S105  1  0.35794033  0.64262249  0.08001593  1
  S  S106  1  0.35710932  0.64174890  0.41877358  1
  S  S107  1  0.36318938  0.64193464  0.74766419  1
  S  S108  1  0.86158822  0.13936567  0.08080593  1
  S  S109  1  0.86216907  0.13913607  0.41639591  1
  S  S110  1  0.86792479  0.14244790  0.74877767  1
  S  S111  1  0.85532655  0.63400396  0.08322817  1
  S  S112  1  0.85948364  0.63805629  0.41836169  1
  S  S113  1  0.85789039  0.63704649  0.75045135  1
  S  S114  1  0.13912953  0.36113385  0.24827689  1
  S  S115  1  0.13953181  0.36130678  0.58093716  1
  S  S116  1  0.13693597  0.36241199  0.91639692  1
  S  S117  1  0.13358423  0.85809852  0.25457769  1
  S  S118  1  0.13827575  0.86244984  0.58392777  1
  S  S119  1  0.14049023  0.85971545  0.91240361  1
  S  S120  1  0.64759503  0.35986886  0.25590233  1
  S  S121  1  0.64243323  0.36004580  0.58517620  1
  S  S122  1  0.64444615  0.35621941  0.91415491  1
  S  S123  1  0.63871826  0.86085865  0.24990370  1
  S  S124  1  0.63988785  0.85610610  0.58229583  1
  S  S125  1  0.63931212  0.85717065  0.91547931  1
  S  S126  1  0.07390323  0.17077222  0.04410462  1
  S  S127  1  0.07252335  0.17215296  0.37570879  1
  S  S128  1  0.07302041  0.17233996  0.70829656  1
  S  S129  1  0.07031618  0.66327613  0.03994772  1
  S  S130  1  0.06126559  0.66715322  0.37633759  1
  S  S131  1  0.06528382  0.67341044  0.71015678  1
  S  S132  1  0.56056091  0.17117488  0.04587950  1
  S  S133  1  0.56618983  0.17737081  0.37714642  1
  S  S134  1  0.56229991  0.16993069  0.70880842  1
  S  S135  1  0.56807736  0.66934780  0.04202490  1
  S  S136  1  0.56151179  0.65878327  0.37418253  1
  S  S137  1  0.56613170  0.66840917  0.70768232  1
  S  S138  1  0.32859933  0.44308763  0.12569623  1
  S  S139  1  0.32643165  0.43640475  0.45441837  1
  S  S140  1  0.33820294  0.44137406  0.78609378  1
  S  S141  1  0.33188531  0.93045754  0.12124750  1
  S  S142  1  0.33332255  0.93395653  0.46490253  1
  S  S143  1  0.33637783  0.93316403  0.79258353  1
  S  S144  1  0.83280485  0.42607615  0.12326205  1
  S  S145  1  0.83686383  0.43264328  0.45950219  1
  S  S146  1  0.82752099  0.43022878  0.78729063  1
  S  S147  1  0.82545497  0.93093834  0.12201717  1
  S  S148  1  0.82466590  0.93099791  0.46159431  1
  S  S149  1  0.82722714  0.92415920  0.79132244  1
  S  S150  1  0.43315133  0.33599412  0.29517424  1
  S  S151  1  0.43428595  0.33183263  0.62329016  1
  S  S152  1  0.44844579  0.34741224  0.95781219  1
  S  S153  1  0.42702954  0.82800780  0.29074246  1
  S  S154  1  0.43517378  0.82998622  0.62279873  1
  S  S155  1  0.43443641  0.83026558  0.95665030  1
  S  S156  1  0.93461798  0.32891362  0.28869851  1
  S  S157  1  0.93383556  0.32699540  0.62110398  1
  S  S158  1  0.92974489  0.33070503  0.95611058  1
  S  S159  1  0.92138377  0.82438387  0.29397511  1
  S  S160  1  0.92604561  0.82502265  0.62662098  1
  S  S161  1  0.92997730  0.83559286  0.96116607  1
  S  S162  1  0.16860089  0.06532887  0.20784614  1
  S  S163  1  0.17337435  0.06855515  0.54183572  1
  S  S164  1  0.17623988  0.07029861  0.87660356  1
  S  S165  1  0.16631847  0.57007797  0.20792564  1
  S  S166  1  0.16784622  0.56769072  0.53994863  1
  S  S167  1  0.17526874  0.57167918  0.87301719  1
  S  S168  1  0.66635826  0.07059557  0.21127264  1
  S  S169  1  0.67136340  0.06832706  0.54137077  1
  S  S170  1  0.66820121  0.06185351  0.87436841  1
  S  S171  1  0.66554733  0.55557195  0.20834727  1
  S  S172  1  0.67130595  0.56540866  0.54377941  1
  S  S173  1  0.66843515  0.56381126  0.87527086  1
  O  O174  1  0.36189970  0.21185339  0.07474434  1
  O  O175  1  0.36728704  0.23028401  0.41664630  1
  O  O176  1  0.37150448  0.21773753  0.73709485  1
  O  O177  1  0.36518808  0.72404121  0.07461061  1
  O  O178  1  0.36621002  0.72091941  0.41222707  1
  O  O179  1  0.37413367  0.71931535  0.73841228  1
  O  O180  1  0.87719666  0.21498614  0.06759609  1
  O  O181  1  0.87171305  0.21711074  0.40535845  1
  O  O182  1  0.88059939  0.21753409  0.73246602  1
  O  O183  1  0.85788741  0.71068998  0.07388734  1
  O  O184  1  0.86648660  0.71837496  0.41340545  1
  O  O185  1  0.87253636  0.71678216  0.74306950  1
  O  O186  1  0.28479404  0.11956738  0.09822098  1
  O  O187  1  0.28129512  0.13216833  0.42045263  1
  O  O188  1  0.28044141  0.13090640  0.74997116  1
  O  O189  1  0.27282765  0.63397696  0.08048854  1
  O  O190  1  0.27773656  0.63209006  0.42644819  1
  O  O191  1  0.28397781  0.63363655  0.75468973  1
  O  O192  1  0.78601087  0.13888108  0.09303294  1
  O  O193  1  0.78285192  0.13311619  0.42474183  1
  O  O194  1  0.79001295  0.13924201  0.75650703  1
  O  O195  1  0.77929731  0.61871666  0.09653139  1
  O  O196  1  0.78087620  0.62715686  0.42706722  1
  O  O197  1  0.77415182  0.63129556  0.74724728  1
  O  O198  1  0.12949144  0.28405361  0.25950602  1
  O  O199  1  0.13268806  0.28172986  0.58825405  1
  O  O200  1  0.11891318  0.28906766  0.93158956  1
  O  O201  1  0.11546189  0.78426411  0.27208088  1
  O  O202  1  0.12966638  0.78356026  0.59128643  1
  O  O203  1  0.13972601  0.78376486  0.92329677  1
  O  O204  1  0.63511847  0.28008997  0.26161883  1
  O  O205  1  0.63509604  0.27997695  0.59224062  1
  O  O206  1  0.63740588  0.27545410  0.91908063  1
  O  O207  1  0.63322029  0.78716904  0.26486036  1
  O  O208  1  0.63343042  0.77424854  0.58654420  1
  O  O209  1  0.63300709  0.77537926  0.91849240  1
  O  O210  1  0.21873326  0.36986839  0.24229718  1
  O  O211  1  0.21693278  0.37038993  0.56942521  1
  O  O212  1  0.21021889  0.36499166  0.90202570  1
  O  O213  1  0.21535590  0.85812813  0.25587288  1
  O  O214  1  0.21684320  0.87255074  0.57555448  1
  O  O215  1  0.21400767  0.87570075  0.89514097  1
  O  O216  1  0.72843834  0.36406151  0.24929245  1
  O  O217  1  0.72080195  0.36948862  0.57504441  1
  O  O218  1  0.72217828  0.36548360  0.90261924  1
  O  O219  1  0.71778948  0.87296264  0.24043284  1
  O  O220  1  0.72133143  0.86907832  0.58123468  1
  O  O221  1  0.72098856  0.87050038  0.91354361  1
  O  O222  1  0.42332385  0.13062029  0.15349431  1
  O  O223  1  0.41847182  0.13820325  0.48564166  1
  O  O224  1  0.41683858  0.13908929  0.82323627  1
  O  O225  1  0.41027743  0.63460973  0.14925657  1
  O  O226  1  0.41602985  0.63229829  0.48659524  1
  O  O227  1  0.42192381  0.63323981  0.81610721  1
  O  O228  1  0.92339602  0.12966702  0.14671845  1
  O  O229  1  0.92070362  0.13385828  0.48563554  1
  O  O230  1  0.92748431  0.13822890  0.81826184  1
  O  O231  1  0.91819382  0.62659339  0.15015157  1
  O  O232  1  0.91981041  0.62763964  0.48448740  1
  O  O233  1  0.90889698  0.62721004  0.81902847  1
  O  O234  1  0.37161827  0.07433270  0.01897536  1
  O  O235  1  0.37351577  0.09531564  0.34830715  1
  O  O236  1  0.37771515  0.07874887  0.68824576  1
  O  O237  1  0.36961655  0.58647054  0.01390064  1
  O  O238  1  0.36570976  0.58277682  0.35124537  1
  O  O239  1  0.37220545  0.58081718  0.68063488  1
  O  O240  1  0.86290141  0.07624307  0.01092987  1
  O  O241  1  0.87008436  0.07810590  0.34961150  1
  O  O242  1  0.87503936  0.07847159  0.68258340  1
  O  O243  1  0.86404018  0.57358320  0.01516746  1
  O  O244  1  0.86734869  0.58114462  0.34869228  1
  O  O245  1  0.86866144  0.57891370  0.68204210  1
  O  O246  1  0.08076826  0.36837707  0.17928780  1
  O  O247  1  0.07852628  0.36897393  0.51327430  1
  O  O248  1  0.07276937  0.37322433  0.85147745  1
  O  O249  1  0.08022929  0.86295058  0.18457530  1
  O  O250  1  0.07816586  0.86879361  0.51515932  1
  O  O251  1  0.07481614  0.86170150  0.84390752  1
  O  O252  1  0.59091506  0.37481190  0.19279281  1
  O  O253  1  0.58275086  0.36804256  0.51781351  1
  O  O254  1  0.58488145  0.36780017  0.84853258  1
  O  O255  1  0.58028436  0.86362606  0.17913253  1
  O  O256  1  0.58529142  0.86059164  0.50947105  1
  O  O257  1  0.58366484  0.86364454  0.84410533  1
  O  O258  1  0.12829966  0.42247464  0.31447212  1
  O  O259  1  0.13177484  0.42071116  0.64860345  1
  O  O260  1  0.13455357  0.42731961  0.98612663  1
  O  O261  1  0.12543421  0.92316730  0.32157890  1
  O  O262  1  0.12937257  0.92279732  0.65116755  1
  O  O263  1  0.13308663  0.92121512  0.97914938  1
  O  O264  1  0.64445441  0.41654536  0.32823934  1
  O  O265  1  0.63568800  0.41757476  0.65416335  1
  O  O266  1  0.64066620  0.41235355  0.98519346  1
  O  O267  1  0.62943443  0.92527460  0.31461919  1
  O  O268  1  0.62253276  0.91220386  0.64490372  1
  O  O269  1  0.62349779  0.91212925  0.97952076  1
  O  O270  1  0.03655466  0.20261751  0.10545386  1
  O  O271  1  0.03398045  0.20038366  0.43600773  1
  O  O272  1  0.04043973  0.20341076  0.77133450  1
  O  O273  1  0.04137345  0.67439023  0.10483480  1
  O  O274  1  0.02595710  0.69710518  0.43828772  1
  O  O275  1  0.02539054  0.70186083  0.76700653  1
  O  O276  1  0.53276441  0.21138050  0.10940592  1
  O  O277  1  0.53132587  0.20744865  0.43953385  1
  O  O278  1  0.52911160  0.20508360  0.77137173  1
  O  O279  1  0.53010157  0.69974874  0.09920739  1
  O  O280  1  0.52919666  0.69253422  0.43903384  1
  O  O281  1  0.53062629  0.70013881  0.76905863  1
  O  O282  1  0.29199935  0.48019418  0.06679987  1
  O  O283  1  0.29497822  0.47202216  0.39290612  1
  O  O284  1  0.29978005  0.46971150  0.71902954  1
  O  O285  1  0.29645057  0.95857930  0.05422555  1
  O  O286  1  0.30647233  0.97137315  0.40647011  1
  O  O287  1  0.30159239  0.96783946  0.72988071  1
  O  O288  1  0.80144815  0.45951302  0.06114293  1
  O  O289  1  0.80888912  0.46844590  0.39849351  1
  O  O290  1  0.79587233  0.46878264  0.72781456  1
  O  O291  1  0.79997475  0.96942092  0.06196501  1
  O  O292  1  0.79915194  0.96916495  0.40168476  1
  O  O293  1  0.81294176  0.96972677  0.73875527  1
  O  O294  1  0.47039169  0.30799291  0.23661647  1
  O  O295  1  0.47281632  0.30173156  0.56381557  1
  O  O296  1  0.47638406  0.30032090  0.89019891  1
  O  O297  1  0.46389021  0.80741310  0.23112495  1
  O  O298  1  0.47231593  0.80084793  0.56188729  1
  O  O299  1  0.47090016  0.80004616  0.89483576  1
  O  O300  1  0.96966669  0.29929611  0.22722459  1
  O  O301  1  0.97129017  0.29696479  0.56024032  1
  O  O302  1  0.95888130  0.30084946  0.89108909  1
  O  O303  1  0.95290199  0.79148468  0.23229656  1
  O  O304  1  0.96871612  0.79867339  0.56904751  1
  O  O305  1  0.95768067  0.80985217  0.89386282  1
  O  O306  1  0.19458355  0.03057192  0.26823646  1
  O  O307  1  0.20151708  0.03205608  0.60269028  1
  O  O308  1  0.20814883  0.03600645  0.93926629  1
  O  O309  1  0.19848249  0.53198164  0.26855507  1
  O  O310  1  0.19986673  0.53328154  0.60202075  1
  O  O311  1  0.20138537  0.53287192  0.93263580  1
  O  O312  1  0.70126088  0.03986022  0.27729761  1
  O  O313  1  0.69892889  0.03020527  0.59941605  1
  O  O314  1  0.70081977  0.02642316  0.93564328  1
  O  O315  1  0.70569420  0.52331956  0.27254225  1
  O  O316  1  0.69926767  0.52798540  0.60393774  1
  O  O317  1  0.69570902  0.52632946  0.93579770  1
  O  O318  1  0.09256029  0.09128706  0.04260724  1
  O  O319  1  0.09563558  0.09343027  0.37372685  1
  O  O320  1  0.09333172  0.09133895  0.70409002  1
  O  O321  1  0.10067852  0.58254345  0.02633650  1
  O  O322  1  0.07643292  0.58333310  0.36990347  1
  O  O323  1  0.08971148  0.59387056  0.70739979  1
  O  O324  1  0.56704009  0.08852277  0.04083571  1
  O  O325  1  0.58163766  0.09503642  0.37001481  1
  O  O326  1  0.56908765  0.08690365  0.69960525  1
  O  O327  1  0.58576606  0.58675699  0.03828930  1
  O  O328  1  0.58119829  0.57710838  0.37488616  1
  O  O329  1  0.58362547  0.58707422  0.70616363  1
  O  O330  1  0.40860540  0.43096320  0.12587807  1
  O  O331  1  0.40820696  0.42076807  0.45924587  1
  O  O332  1  0.41910734  0.42229658  0.78392026  1
  O  O333  1  0.41040671  0.90628914  0.11864704  1
  O  O334  1  0.41496757  0.91359114  0.47333596  1
  O  O335  1  0.41934129  0.91967027  0.79485822  1
  O  O336  1  0.91510301  0.40904537  0.12876286  1
  O  O337  1  0.92049488  0.41697092  0.46703381  1
  O  O338  1  0.90875540  0.41418137  0.79000507  1
  O  O339  1  0.90516638  0.91205184  0.13327001  1
  O  O340  1  0.90751721  0.91302204  0.47194367  1
  O  O341  1  0.90747522  0.89915036  0.80249028  1
  O  O342  1  0.41432531  0.41839963  0.30004110  1
  O  O343  1  0.41382632  0.41190684  0.62444169  1
  O  O344  1  0.44457174  0.42800578  0.95453648  1
  O  O345  1  0.40451323  0.90678393  0.30555673  1
  O  O346  1  0.42002426  0.91296209  0.63156000  1
  O  O347  1  0.42132201  0.91373339  0.96412324  1
  O  O348  1  0.91888794  0.41242497  0.29547021  1
  O  O349  1  0.91408989  0.40759959  0.62283645  1
  O  O350  1  0.91356498  0.41404380  0.96546479  1
  O  O351  1  0.90320506  0.90621454  0.29887931  1
  O  O352  1  0.90792358  0.90586503  0.63095813  1
  O  O353  1  0.89884610  0.91437270  0.96726443  1
  O  O354  1  0.08513959  0.08292744  0.19733248  1
  O  O355  1  0.09144276  0.08709219  0.53468810  1
  O  O356  1  0.09600791  0.08894155  0.87380093  1
  O  O357  1  0.08298301  0.58133571  0.20448088  1
  O  O358  1  0.08575856  0.58451607  0.53633666  1
  O  O359  1  0.09720818  0.59381274  0.86513926  1
  O  O360  1  0.59154050  0.10190723  0.21699300  1
  O  O361  1  0.59135248  0.09086579  0.54035989  1
  O  O362  1  0.59151940  0.09125308  0.88206660  1
  O  O363  1  0.58311160  0.55811186  0.20225059  1
  O  O364  1  0.58947473  0.58358818  0.53634518  1
  O  O365  1  0.58538754  0.58098035  0.86737935  1
  O  O366  1  0.14367007  0.22446696  0.06083847  1
  O  O367  1  0.14172211  0.22814043  0.39325071  1
  O  O368  1  0.13982746  0.22536990  0.71725750  1
  O  O369  1  0.13531635  0.72360570  0.05735495  1
  O  O370  1  0.13484756  0.71610579  0.39447060  1
  O  O371  1  0.13286816  0.72830753  0.72314022  1
  O  O372  1  0.63680607  0.21425410  0.05648816  1
  O  O373  1  0.64029075  0.22757410  0.39605537  1
  O  O374  1  0.63831741  0.21636075  0.72619071  1
  O  O375  1  0.63964834  0.71910866  0.05466064  1
  O  O376  1  0.63468192  0.70846958  0.38948467  1
  O  O377  1  0.63577987  0.71896016  0.71962545  1
  O  O378  1  0.27944984  0.37178041  0.11345061  1
  O  O379  1  0.27580619  0.36436892  0.43865179  1
  O  O380  1  0.29030701  0.37030525  0.77623286  1
  O  O381  1  0.27816290  0.86302683  0.11286639  1
  O  O382  1  0.27975275  0.86292111  0.44875247  1
  O  O383  1  0.28872117  0.86070020  0.77832139  1
  O  O384  1  0.78249862  0.35544308  0.11178846  1
  O  O385  1  0.78668286  0.36036746  0.44381627  1
  O  O386  1  0.77657990  0.35807677  0.77010213  1
  O  O387  1  0.76889956  0.86052754  0.10113668  1
  O  O388  1  0.77139859  0.85919635  0.44171348  1
  O  O389  1  0.76857216  0.85623322  0.76544474  1
  O  O390  1  0.36143004  0.28438096  0.27949325  1
  O  O391  1  0.36404226  0.27885562  0.60765852  1
  O  O392  1  0.37282903  0.30812136  0.94626271  1
  O  O393  1  0.35854325  0.76941141  0.27179696  1
  O  O394  1  0.36305996  0.77927709  0.60451888  1
  O  O395  1  0.36018192  0.78137090  0.93701012  1
  O  O396  1  0.86355616  0.27827452  0.27460507  1
  O  O397  1  0.86250495  0.27473349  0.60376927  1
  O  O398  1  0.85945015  0.28065057  0.94577994  1
  O  O399  1  0.85003762  0.77439866  0.28357101  1
  O  O400  1  0.85502585  0.77049511  0.60395271  1
  O  O401  1  0.86689949  0.77762898  0.95120388  1
  O  O402  1  0.21876373  0.13839226  0.22479044  1
  O  O403  1  0.22630765  0.14046243  0.56001646  1
  O  O404  1  0.22768150  0.13796690  0.88606158  1
  O  O405  1  0.21445622  0.64427891  0.22716247  1
  O  O406  1  0.21805095  0.63767537  0.55174704  1
  O  O407  1  0.23254457  0.63991791  0.89027881  1
  O  O408  1  0.72459577  0.13543936  0.22144951  1
  O  O409  1  0.72533123  0.13931906  0.55780724  1
  O  O410  1  0.72434164  0.12918032  0.88653281  1
  O  O411  1  0.70947893  0.63176868  0.22452744  1
  O  O412  1  0.72401493  0.63686855  0.56167170  1
  O  O413  1  0.72080057  0.63391316  0.89202325  1
  O  O414  1  0.50879309  0.34686634  0.02650916  1
  O  O415  1  0.49151758  0.34216456  0.37047932  1
  O  O416  1  0.49378710  0.33721611  0.69665982  1
  O  O417  1  0.49173278  0.82680664  0.02744631  1
  O  O418  1  0.48774399  0.82145192  0.36107910  1
  O  O419  1  0.49402448  0.82893260  0.69443499  1
  O  O420  1  0.99379677  0.33242807  0.02615472  1
  O  O421  1  0.99439181  0.33238696  0.36181636  1
  O  O422  1  0.99265536  0.33074085  0.69333281  1
  O  O423  1  0.99752715  0.84700883  0.02818774  1
  O  O424  1  0.98329789  0.83113739  0.36785569  1
  O  O425  1  0.98130441  0.82412223  0.70011575  1
  O  O426  1  0.16915830  0.00621117  0.13602373  1
  O  O427  1  0.17154279  0.01016279  0.46890458  1
  O  O428  1  0.17077484  0.00624132  0.80444567  1
  O  O429  1  0.16582471  0.51424893  0.13455308  1
  O  O430  1  0.16218278  0.50610912  0.46686986  1
  O  O431  1  0.17756868  0.51014561  0.80191804  1
  O  O432  1  0.65033626  0.00617216  0.14140448  1
  O  O433  1  0.66445118  0.01210190  0.46576934  1
  O  O434  1  0.64973589  0.00249732  0.80034101  1
  O  O435  1  0.67360818  0.49886194  0.13807989  1
  O  O436  1  0.67229786  0.50652129  0.47227172  1
  O  O437  1  0.66583604  0.50426984  0.80223771  1
  O  O438  1  0.01326453  0.16901088  0.30300375  1
  O  O439  1  0.00913267  0.16399522  0.63543986  1
  O  O440  1  0.01384550  0.16843565  0.97211625  1
  O  O441  1  0.00313755  0.66573787  0.30405099  1
  O  O442  1  0.00592262  0.66246675  0.63341669  1
  O  O443  1  0.00549904  0.65698492  0.97201741  1
  O  O444  1  0.50775089  0.18013481  0.30682610  1
  O  O445  1  0.50657691  0.17657749  0.63727688  1
  O  O446  1  0.50255464  0.17448335  0.97383066  1
  O  O447  1  0.50230201  0.65239539  0.30379367  1
  O  O448  1  0.50542150  0.66315078  0.63446949  1
  O  O449  1  0.51014860  0.66122314  0.96521628  1
  O  O450  1  0.33260191  0.50119326  0.20126790  1
  O  O451  1  0.32673143  0.49541594  0.52648546  1
  O  O452  1  0.34711029  0.50558638  0.85467062  1
  O  O453  1  0.34307738  0.99531993  0.19090176  1
  O  O454  1  0.33534486  0.99278832  0.53882589  1
  O  O455  1  0.33949620  0.99335367  0.86424131  1
  O  O456  1  0.83773926  0.48809285  0.19606930  1
  O  O457  1  0.83791032  0.49180520  0.53193441  1
  O  O458  1  0.83041391  0.48851077  0.86055835  1
  O  O459  1  0.81945226  0.98943032  0.19288289  1
  O  O460  1  0.82544033  0.98883731  0.53454640  1
  O  O461  1  0.82285783  0.97957630  0.86474906  1
