# generated using pymatgen
data_Na31Fe20(SO4)36
_symmetry_space_group_name_H-M   'P 1'
_cell_length_a   18.07014102
_cell_length_b   18.07683775
_cell_length_c   19.71410295
_cell_angle_alpha   107.57318839
_cell_angle_beta   107.56846128
_cell_angle_gamma   90.72929696
_symmetry_Int_Tables_number   1
_chemical_formula_structural   Na31Fe20(SO4)36
_chemical_formula_sum   'Na62 Fe40 S72 O288'
_cell_volume   5814.41870354
_cell_formula_units_Z   2
loop_
 _symmetry_equiv_pos_site_id
 _symmetry_equiv_pos_as_xyz
  1  'x, y, z'
loop_
 _atom_site_type_symbol
 _atom_site_label
 _atom_site_symmetry_multiplicity
 _atom_site_fract_x
 _atom_site_fract_y
 _atom_site_fract_z
 _atom_site_occupancy
  Na  Na0  1  0.13279268  0.36880567  0.08477347  1
  Na  Na1  1  0.14043869  0.36020982  0.41246712  1
  Na  Na2  1  0.14025614  0.36367647  0.75082560  1
  Na  Na3  1  0.12149903  0.86564007  0.07952978  1
  Na  Na4  1  0.13661621  0.86662006  0.42212858  1
  Na  Na5  1  0.13147823  0.86365162  0.74154862  1
  Na  Na6  1  0.62564574  0.36976319  0.07813824  1
  Na  Na7  1  0.63492814  0.36592672  0.42236233  1
  Na  Na8  1  0.64813963  0.36953951  0.75851762  1
  Na  Na9  1  0.63333485  0.86493268  0.07939278  1
  Na  Na10  1  0.64177231  0.85785904  0.42796447  1
  Na  Na11  1  0.62703989  0.86817042  0.74606265  1
  Na  Na12  1  0.37056530  0.16112134  0.28057649  1
  Na  Na13  1  0.36673132  0.13727330  0.58474347  1
  Na  Na14  1  0.36765986  0.11928755  0.90659871  1
  Na  Na15  1  0.36712424  0.63015506  0.24919942  1
  Na  Na16  1  0.37688388  0.63585213  0.58454072  1
  Na  Na17  1  0.37360724  0.62754623  0.91764651  1
  Na  Na18  1  0.86535782  0.13562029  0.24987150  1
  Na  Na19  1  0.85116734  0.15218892  0.58407158  1
  Na  Na20  1  0.85242938  0.12878258  0.90567069  1
  Na  Na21  1  0.86167351  0.64092383  0.25162730  1
  Na  Na22  1  0.83464314  0.63772805  0.55477478  1
  Na  Na23  1  0.85821597  0.63382423  0.91074492  1
  Na  Na24  1  0.98967653  0.50749431  0.75844599  1
  Na  Na25  1  0.95350118  0.52104726  -0.01179292  1
  Na  Na26  1  0.50839310  0.00696067  0.05435286  1
  Na  Na27  1  0.49934137  0.53644179  0.43087982  1
  Na  Na28  1  0.49356062  0.50440633  0.75616429  1
  Na  Na29  1  0.98956623  0.01073856  0.41740354  1
  Na  Na30  1  0.49319652  0.00442978  0.42543359  1
  Na  Na31  1  0.99326214  0.54177651  0.41940799  1
  Na  Na32  1  0.99889645  0.00289308  0.76274249  1
  Na  Na33  1  0.54599263  0.49201703  0.25821401  1
  Na  Na34  1  -0.01565768  0.52402619  0.57929412  1
  Na  Na35  1  0.51671436  0.45686759  0.56749664  1
  Na  Na36  1  0.50978563  0.99295702  0.24373111  1
  Na  Na37  1  0.00248338  0.50472594  0.22989565  1
  Na  Na38  1  0.03069329  0.98514143  0.59516405  1
  Na  Na39  1  -0.04632863  1.01480676  0.97899297  1
  Na  Na40  1  0.00702548  0.96256020  0.22735702  1
  Na  Na41  1  0.49748170  0.98514269  0.61336364  1
  Na  Na42  1  0.74071318  0.73189874  0.35182181  1
  Na  Na43  1  0.74135708  0.24284800  0.34484958  1
  Na  Na44  1  0.24813676  0.24044193  0.66881138  1
  Na  Na45  1  0.24472689  0.74602432  0.33556036  1
  Na  Na46  1  0.24341497  0.74368257  0.66560289  1
  Na  Na47  1  0.75630521  0.26249808  -0.00949378  1
  Na  Na48  1  0.77424488  0.77689111  -0.00181235  1
  Na  Na49  1  0.24837572  0.74810525  0.00091616  1
  Na  Na50  1  0.74459469  0.75311306  0.65241182  1
  Na  Na51  1  0.24846959  0.24022095  0.00273409  1
  Na  Na52  1  0.23897893  0.23045428  0.83504072  1
  Na  Na53  1  0.76100648  0.76134487  0.16209283  1
  Na  Na54  1  0.23841703  0.74421562  0.50488741  1
  Na  Na55  1  0.27129976  0.25881623  0.48128539  1
  Na  Na56  1  0.76711699  0.26782098  0.82352130  1
  Na  Na57  1  0.75452333  0.25847150  0.16388311  1
  Na  Na58  1  0.24821000  0.74993898  0.83119014  1
  Na  Na59  1  0.24530768  0.24271538  0.18073918  1
  Na  Na60  1  0.76015264  0.76927476  0.82898921  1
  Na  Na61  1  0.24480808  0.74597043  0.16871598  1
  Fe  Fe62  1  0.46732920  0.80217075  0.12109059  1
  Fe  Fe63  1  0.46769763  0.80421624  0.78691665  1
  Fe  Fe64  1  0.96904276  0.80124500  0.45629258  1
  Fe  Fe65  1  0.96415092  0.80861619  0.78383276  1
  Fe  Fe66  1  0.96368907  0.30985343  0.11968095  1
  Fe  Fe67  1  0.96756458  0.30793564  0.45286254  1
  Fe  Fe68  1  0.46603655  0.30594810  0.11945112  1
  Fe  Fe69  1  0.96619534  0.31270285  0.78642215  1
  Fe  Fe70  1  0.46636579  0.30917719  0.78802240  1
  Fe  Fe71  1  0.46572542  0.80139963  0.45769887  1
  Fe  Fe72  1  0.69478006  0.03406792  0.38774588  1
  Fe  Fe73  1  0.69696486  0.53179061  0.04129258  1
  Fe  Fe74  1  0.19115362  0.53462594  0.37882804  1
  Fe  Fe75  1  0.69523219  0.53368933  0.71598375  1
  Fe  Fe76  1  0.19342171  0.03317592  0.38188623  1
  Fe  Fe77  1  0.19195738  0.53197349  0.04404673  1
  Fe  Fe78  1  0.69489050  0.04129410  0.71686818  1
  Fe  Fe79  1  0.18990725  0.53398050  0.70910331  1
  Fe  Fe80  1  0.69635453  0.03386819  0.03983327  1
  Fe  Fe81  1  0.19020368  0.03391373  0.04930900  1
  Fe  Fe82  1  0.53765075  0.20093043  0.54784549  1
  Fe  Fe83  1  0.03568967  0.19198865  0.88007243  1
  Fe  Fe84  1  0.53414437  0.19400319  0.21828081  1
  Fe  Fe85  1  0.03580780  0.19181560  0.21437697  1
  Fe  Fe86  1  0.53773775  0.69238455  0.88366551  1
  Fe  Fe87  1  0.53671372  0.68573042  0.21247770  1
  Fe  Fe88  1  0.03383186  0.69286909  0.87920330  1
  Fe  Fe89  1  0.53446802  0.19048815  0.87860373  1
  Fe  Fe90  1  0.02653091  0.69909061  0.20409767  1
  Fe  Fe91  1  0.03437423  0.19475797  0.55092098  1
  Fe  Fe92  1  0.30869041  0.46300865  0.61412073  1
  Fe  Fe93  1  0.80825425  0.46219638  0.61624791  1
  Fe  Fe94  1  0.80747081  0.96460556  0.28542872  1
  Fe  Fe95  1  0.29892449  0.97084320  0.62872604  1
  Fe  Fe96  1  0.30865689  0.96426184  0.28789486  1
  Fe  Fe97  1  0.31298195  0.46063397  0.28751424  1
  Fe  Fe98  1  0.80324610  0.47001701  0.28992818  1
  Fe  Fe99  1  0.31057613  0.46329592  0.95295956  1
  Fe  Fe100  1  0.30489013  0.96485490  0.95465347  1
  Fe  Fe101  1  0.80523495  0.96828921  0.61798628  1
  S  S102  1  0.36107009  0.13831268  0.08717563  1
  S  S103  1  0.36371000  0.13481698  0.42128908  1
  S  S104  1  0.36154609  0.14194144  0.74803595  1
  S  S105  1  0.35822336  0.63887883  0.08221541  1
  S  S106  1  0.35450424  0.63928929  0.41350369  1
  S  S107  1  0.36068973  0.63666839  0.74997680  1
  S  S108  1  0.85908590  0.14856865  0.08575597  1
  S  S109  1  0.86155487  0.14022089  0.41627665  1
  S  S110  1  0.86191794  0.14179428  0.74967683  1
  S  S111  1  0.85252750  0.64724212  0.08588196  1
  S  S112  1  0.86134112  0.64066300  0.41527069  1
  S  S113  1  0.86030973  0.63892737  0.74437842  1
  S  S114  1  0.13930371  0.36087239  0.24748445  1
  S  S115  1  0.14476778  0.35553774  0.58198093  1
  S  S116  1  0.14494596  0.35705528  0.91557731  1
  S  S117  1  0.14412254  0.85966617  0.24986742  1
  S  S118  1  0.14072264  0.85886460  0.58249528  1
  S  S119  1  0.13994584  0.85960257  0.91738091  1
  S  S120  1  0.64223088  0.35527184  0.24997201  1
  S  S121  1  0.65036763  0.35580077  0.58999498  1
  S  S122  1  0.63892621  0.35906612  0.91745141  1
  S  S123  1  0.64067593  0.85821833  0.25246468  1
  S  S124  1  0.63478392  0.86930371  0.58646472  1
  S  S125  1  0.63784042  0.85965797  0.91977168  1
  S  S126  1  0.06706567  0.17134630  0.04447615  1
  S  S127  1  0.06800156  0.16686387  0.37650856  1
  S  S128  1  0.05960594  0.16897109  0.70994293  1
  S  S129  1  0.06848111  0.66659541  0.03893045  1
  S  S130  1  0.06699562  0.67043284  0.36850202  1
  S  S131  1  0.06483512  0.66821813  0.70812225  1
  S  S132  1  0.56863320  0.17235488  0.04405000  1
  S  S133  1  0.56922690  0.16281987  0.37457802  1
  S  S134  1  0.57168657  0.17700370  0.71202546  1
  S  S135  1  0.57332663  0.67122130  0.04612217  1
  S  S136  1  0.56110527  0.66876516  0.37321202  1
  S  S137  1  0.56763287  0.66830735  0.71420273  1
  S  S138  1  0.32860240  0.42978632  0.12217560  1
  S  S139  1  0.33269430  0.43953094  0.45577954  1
  S  S140  1  0.32934347  0.43129945  0.78755745  1
  S  S141  1  0.33011314  0.92982730  0.12593564  1
  S  S142  1  0.33025781  0.93034668  0.46109772  1
  S  S143  1  0.32744644  0.92320377  0.79258785  1
  S  S144  1  0.82528050  0.43395700  0.12432575  1
  S  S145  1  0.83603286  0.43130432  0.45638939  1
  S  S146  1  0.84102487  0.44099547  0.79596205  1
  S  S147  1  0.82604128  0.93884416  0.12569500  1
  S  S148  1  0.83202517  0.93469622  0.45725879  1
  S  S149  1  0.83084940  0.93643964  0.78853089  1
  S  S150  1  0.43950110  0.33533195  0.29109663  1
  S  S151  1  0.43619790  0.33267610  0.62573493  1
  S  S152  1  0.42533900  0.32164250  0.95398936  1
  S  S153  1  0.43346965  0.82905939  0.29218051  1
  S  S154  1  0.42217067  0.83014197  0.62466698  1
  S  S155  1  0.42886498  0.82555693  0.95936950  1
  S  S156  1  0.93727383  0.33430378  0.29270641  1
  S  S157  1  0.94177164  0.33682667  0.62744032  1
  S  S158  1  0.93400744  0.32235011  0.95485291  1
  S  S159  1  0.93719891  0.83340837  0.29476553  1
  S  S160  1  0.92883017  0.83683886  0.62483873  1
  S  S161  1  0.93219770  0.82280851  0.94814820  1
  S  S162  1  0.17234095  0.06838404  0.21225529  1
  S  S163  1  0.16672130  0.06721127  0.54131460  1
  S  S164  1  0.16935805  0.06303020  0.87786402  1
  S  S165  1  0.16727734  0.56877418  0.20636194  1
  S  S166  1  0.16644185  0.56014030  0.54052865  1
  S  S167  1  0.17266839  0.56636038  0.87425055  1
  S  S168  1  0.66805873  0.06489550  0.20794029  1
  S  S169  1  0.66575031  0.06719274  0.53858601  1
  S  S170  1  0.66815261  0.07300449  0.87488213  1
  S  S171  1  0.67194373  0.56634145  0.20546282  1
  S  S172  1  0.66499137  0.55494503  0.54738553  1
  S  S173  1  0.67139343  0.57228806  0.88005613  1
  O  O174  1  0.36887386  0.21580293  0.07606424  1
  O  O175  1  0.36790782  0.21014893  0.40954148  1
  O  O176  1  0.37575322  0.21944055  0.73627931  1
  O  O177  1  0.36842793  0.71894986  0.07583652  1
  O  O178  1  0.36465983  0.71761404  0.40401501  1
  O  O179  1  0.36933818  0.71573079  0.74262657  1
  O  O180  1  0.86501022  0.23174643  0.08429096  1
  O  O181  1  0.87214244  0.21803073  0.40621827  1
  O  O182  1  0.87150550  0.22301409  0.74857718  1
  O  O183  1  0.85238852  0.72916355  0.08935349  1
  O  O184  1  0.87542351  0.71848655  0.40373191  1
  O  O185  1  0.86850900  0.71847609  0.73722347  1
  O  O186  1  0.28055443  0.12880324  0.09222424  1
  O  O187  1  0.28628422  0.12108140  0.43262364  1
  O  O188  1  0.28393226  0.13723538  0.75571054  1
  O  O189  1  0.27814019  0.63096077  0.08904689  1
  O  O190  1  0.27324765  0.63336084  0.41944074  1
  O  O191  1  0.28064518  0.62773952  0.75668175  1
  O  O192  1  0.78051129  0.13648205  0.09370396  1
  O  O193  1  0.78053467  0.12932284  0.41722315  1
  O  O194  1  0.78582454  0.13307514  0.76397405  1
  O  O195  1  0.77434226  0.62536751  0.09528417  1
  O  O196  1  0.78227518  0.63480123  0.41935611  1
  O  O197  1  0.78404305  0.63194048  0.75835983  1
  O  O198  1  0.13075329  0.28042940  0.25135605  1
  O  O199  1  0.13431636  0.27844837  0.59390857  1
  O  O200  1  0.13765161  0.27638820  0.92127407  1
  O  O201  1  0.13359612  0.77848625  0.25264227  1
  O  O202  1  0.13780524  0.77934355  0.58635546  1
  O  O203  1  0.13224119  0.78086882  0.92675523  1
  O  O204  1  0.63305447  0.27250638  0.25126044  1
  O  O205  1  0.63693865  0.27788855  0.59811044  1
  O  O206  1  0.62175203  0.28561594  0.93341752  1
  O  O207  1  0.63048239  0.77902780  0.25875562  1
  O  O208  1  0.62838367  0.79670195  0.60278414  1
  O  O209  1  0.62375209  0.78537698  0.93661438  1
  O  O210  1  0.21708300  0.37146628  0.23709827  1
  O  O211  1  0.22413761  0.36285616  0.57413933  1
  O  O212  1  0.22308394  0.36649448  0.90538996  1
  O  O213  1  0.22619021  0.86852020  0.24677036  1
  O  O214  1  0.21679926  0.87464091  0.56883905  1
  O  O215  1  0.22047744  0.86802506  0.91167116  1
  O  O216  1  0.72234143  0.36607901  0.24458618  1
  O  O217  1  0.73166506  0.36481487  0.58816502  1
  O  O218  1  0.71547265  0.35878411  0.90689589  1
  O  O219  1  0.71865920  0.86790380  0.24293535  1
  O  O220  1  0.71137739  0.88135842  0.57428830  1
  O  O221  1  0.71733840  0.86396924  0.91618019  1
  O  O222  1  0.41825698  0.13377207  0.15744260  1
  O  O223  1  0.42550789  0.12871276  0.48932863  1
  O  O224  1  0.42078981  0.13391548  0.81575488  1
  O  O225  1  0.41593964  0.63075156  0.14992096  1
  O  O226  1  0.41178590  0.62910868  0.47904480  1
  O  O227  1  0.41899953  0.62773371  0.81808109  1
  O  O228  1  0.91861167  0.14105691  0.15431776  1
  O  O229  1  0.91743906  0.13542807  0.48769726  1
  O  O230  1  0.92406964  0.12522252  0.81175691  1
  O  O231  1  0.91331147  0.63607116  0.15235276  1
  O  O232  1  0.92003558  0.63108566  0.48160083  1
  O  O233  1  0.92267868  0.62737558  0.80919352  1
  O  O234  1  0.37282309  0.07711178  0.02168229  1
  O  O235  1  0.37288047  0.07187575  0.35461415  1
  O  O236  1  0.36787799  0.08089595  0.67973456  1
  O  O237  1  0.36412513  0.58115891  0.01299185  1
  O  O238  1  0.35958217  0.57983096  0.34343129  1
  O  O239  1  0.36978223  0.57772389  0.68252406  1
  O  O240  1  0.86867583  0.09602996  0.01733800  1
  O  O241  1  0.87616439  0.07951505  0.35230061  1
  O  O242  1  0.86307641  0.08671095  0.67696376  1
  O  O243  1  0.86093514  0.59623515  0.01608887  1
  O  O244  1  0.87100377  0.58088900  0.34601120  1
  O  O245  1  0.86562306  0.58070132  0.67473843  1
  O  O246  1  0.07861907  0.37312983  0.18190393  1
  O  O247  1  0.08698276  0.36013074  0.51208510  1
  O  O248  1  0.08523515  0.36729634  0.84977580  1
  O  O249  1  0.08880887  0.87272787  0.18463804  1
  O  O250  1  0.07840269  0.86722500  0.51444876  1
  O  O251  1  0.08308789  0.86632838  0.84828840  1
  O  O252  1  0.58461975  0.36428825  0.18028682  1
  O  O253  1  0.59445155  0.36500701  0.52242461  1
  O  O254  1  0.57841412  0.36816076  0.85068436  1
  O  O255  1  0.57983087  0.86825567  0.18533911  1
  O  O256  1  0.57282819  0.87270243  0.51714321  1
  O  O257  1  0.58113166  0.86153607  0.84764093  1
  O  O258  1  0.13279810  0.41761688  0.31717814  1
  O  O259  1  0.13656042  0.41666138  0.64866421  1
  O  O260  1  0.13978099  0.41349590  0.98595386  1
  O  O261  1  0.13682013  0.91579937  0.32051338  1
  O  O262  1  0.13175412  0.91674007  0.64907519  1
  O  O263  1  0.13189201  0.91891356  0.98511297  1
  O  O264  1  0.63119179  0.41016335  0.31637274  1
  O  O265  1  0.63912035  0.41582021  0.65812424  1
  O  O266  1  0.63625356  0.42414924  0.98567019  1
  O  O267  1  0.63367673  0.91722902  0.32097457  1
  O  O268  1  0.62443672  0.93519770  0.65071869  1
  O  O269  1  0.62517833  0.92404537  0.98282644  1
  O  O270  1  0.03003081  0.20327547  0.10478097  1
  O  O271  1  0.03172047  0.19559978  0.43802785  1
  O  O272  1  0.02829187  0.21087568  0.77302397  1
  O  O273  1  0.03184872  0.69055418  0.09829192  1
  O  O274  1  0.03391145  0.69738344  0.43002400  1
  O  O275  1  0.03704387  0.70374567  0.77500517  1
  O  O276  1  0.52828281  0.19692185  0.10294913  1
  O  O277  1  0.53667522  0.18699428  0.43646004  1
  O  O278  1  0.53401093  0.20469997  0.77251683  1
  O  O279  1  0.53146731  0.69473133  0.10447390  1
  O  O280  1  0.52403322  0.70354828  0.43148340  1
  O  O281  1  0.53313304  0.70085031  0.77888294  1
  O  O282  1  0.30061950  0.46906421  0.06260757  1
  O  O283  1  0.29319359  0.47230536  0.39236972  1
  O  O284  1  0.29840399  0.46816236  0.72697822  1
  O  O285  1  0.29980731  0.96566068  0.06470142  1
  O  O286  1  0.30019339  0.96365596  0.39778991  1
  O  O287  1  0.30397400  0.96000868  0.73361577  1
  O  O288  1  0.79606740  0.47148543  0.06541419  1
  O  O289  1  0.81476803  0.46721530  0.39650544  1
  O  O290  1  0.80720588  0.47394318  0.73254115  1
  O  O291  1  0.79428055  0.97850996  0.06917150  1
  O  O292  1  0.80083123  0.97091059  0.39506441  1
  O  O293  1  0.79779628  0.97158020  0.72561820  1
  O  O294  1  0.47027229  0.30031513  0.22456936  1
  O  O295  1  0.47310931  0.30386907  0.56698573  1
  O  O296  1  0.46237906  0.29370352  0.89348970  1
  O  O297  1  0.47007163  0.79858337  0.23138253  1
  O  O298  1  0.45456893  0.80639001  0.56218968  1
  O  O299  1  0.46272870  0.79552204  0.89735036  1
  O  O300  1  0.97431912  0.30334051  0.23196340  1
  O  O301  1  0.97498263  0.30327911  0.56372457  1
  O  O302  1  0.97582516  0.29255317  0.89681348  1
  O  O303  1  0.97671274  0.80740767  0.23743503  1
  O  O304  1  0.96221040  0.81233445  0.56324481  1
  O  O305  1  0.96874849  0.78917542  0.88458166  1
  O  O306  1  0.20311954  0.03095625  0.27309149  1
  O  O307  1  0.19599882  0.03302398  0.60177597  1
  O  O308  1  0.20178283  0.03314010  0.94443705  1
  O  O309  1  0.19396215  0.53145737  0.26661534  1
  O  O310  1  0.20519683  0.52404116  0.60120355  1
  O  O311  1  0.20107295  0.52873559  0.93450694  1
  O  O312  1  0.69680004  0.02688074  0.26786301  1
  O  O313  1  0.70183124  0.04099391  0.60556511  1
  O  O314  1  0.69525227  0.03968488  0.93628550  1
  O  O315  1  0.69753912  0.52368670  0.26016651  1
  O  O316  1  0.70792810  0.52351212  0.61224508  1
  O  O317  1  0.69455579  0.53662906  0.94120717  1
  O  O318  1  0.08490504  0.09040803  0.04268376  1
  O  O319  1  0.08174839  0.08312193  0.36771004  1
  O  O320  1  0.06445917  0.08761279  0.70851317  1
  O  O321  1  0.08835495  0.58430155  0.02930081  1
  O  O322  1  0.08258938  0.58596807  0.35960591  1
  O  O323  1  0.08434708  0.58620190  0.70775134  1
  O  O324  1  0.59360839  0.09367784  0.04233294  1
  O  O325  1  0.58660978  0.07833848  0.36312926  1
  O  O326  1  0.58796640  0.09441578  0.70350339  1
  O  O327  1  0.59910837  0.59292257  0.04143909  1
  O  O328  1  0.57391027  0.58808319  0.37150682  1
  O  O329  1  0.58917389  0.58836315  0.71564161  1
  O  O330  1  0.40977400  0.41159620  0.12898957  1
  O  O331  1  0.41367685  0.43220891  0.45749888  1
  O  O332  1  0.41082437  0.41511809  0.79138064  1
  O  O333  1  0.41134343  0.90996415  0.12988579  1
  O  O334  1  0.41364966  0.91567697  0.46853984  1
  O  O335  1  0.40771852  0.90091577  0.80384417  1
  O  O336  1  0.90604840  0.41317789  0.12683281  1
  O  O337  1  0.91996890  0.41306368  0.46891572  1
  O  O338  1  0.91900661  0.41485094  0.78909407  1
  O  O339  1  0.90311824  0.91700967  0.12493906  1
  O  O340  1  0.91542670  0.92289583  0.46516345  1
  O  O341  1  0.90970013  0.91301699  0.78584096  1
  O  O342  1  0.42394226  0.41807177  0.29407340  1
  O  O343  1  0.41744714  0.41533564  0.62908935  1
  O  O344  1  0.40373726  0.40077024  0.95695584  1
  O  O345  1  0.41823804  0.91206184  0.29701328  1
  O  O346  1  0.40175426  0.91188827  0.63457172  1
  O  O347  1  0.41035325  0.90719446  0.96689262  1
  O  O348  1  0.92159770  0.41624753  0.29807604  1
  O  O349  1  0.92435441  0.41875952  0.63005469  1
  O  O350  1  0.90877799  0.39743303  0.95239039  1
  O  O351  1  0.91989185  0.91662905  0.30079080  1
  O  O352  1  0.91503992  0.92220737  0.63753189  1
  O  O353  1  0.90187990  0.89474339  0.93906707  1
  O  O354  1  0.09176068  0.08703551  0.21008691  1
  O  O355  1  0.08356996  0.08483526  0.53637636  1
  O  O356  1  0.09223046  0.09226647  0.88039394  1
  O  O357  1  0.08675846  0.58985492  0.20068767  1
  O  O358  1  0.08580968  0.56953978  0.53992228  1
  O  O359  1  0.09230055  0.58740041  0.86943071  1
  O  O360  1  0.58520018  0.08212763  0.20230098  1
  O  O361  1  0.58568511  0.08808431  0.53803463  1
  O  O362  1  0.58590369  0.09006068  0.86397296  1
  O  O363  1  0.58899949  0.58100949  0.19894180  1
  O  O364  1  0.58427637  0.56081297  0.54998713  1
  O  O365  1  0.58714130  0.58588269  0.86586246  1
  O  O366  1  0.13913471  0.22288131  0.06084137  1
  O  O367  1  0.14071884  0.21649904  0.39383521  1
  O  O368  1  0.13559354  0.21251272  0.72316652  1
  O  O369  1  0.13932100  0.72049938  0.05628192  1
  O  O370  1  0.14007148  0.72011000  0.38391756  1
  O  O371  1  0.13727333  0.71687567  0.71963713  1
  O  O372  1  0.63646951  0.22929268  0.06191299  1
  O  O373  1  0.63835615  0.21396209  0.38559551  1
  O  O374  1  0.64350381  0.22855315  0.73143531  1
  O  O375  1  0.63946115  0.73047554  0.06605713  1
  O  O376  1  0.63246807  0.71854178  0.38590616  1
  O  O377  1  0.63818069  0.72145201  0.72990607  1
  O  O378  1  0.27484511  0.35853774  0.10288450  1
  O  O379  1  0.28602407  0.36627473  0.44296003  1
  O  O380  1  0.27850298  0.35877476  0.77086918  1
  O  O381  1  0.27723484  0.85935409  0.11078046  1
  O  O382  1  0.28036193  0.85745383  0.44449801  1
  O  O383  1  0.27123601  0.85356903  0.77558301  1
  O  O384  1  0.77173980  0.36343591  0.10829836  1
  O  O385  1  0.78303687  0.36137695  0.43997926  1
  O  O386  1  0.78851456  0.37397316  0.78735974  1
  O  O387  1  0.77019741  0.87004704  0.11171020  1
  O  O388  1  0.78284154  0.86183664  0.43957141  1
  O  O389  1  0.77657037  0.86646210  0.77284897  1
  O  O390  1  0.36489871  0.28822831  0.27480200  1
  O  O391  1  0.36383114  0.28182120  0.60969741  1
  O  O392  1  0.35677484  0.26603963  0.93908523  1
  O  O393  1  0.36044650  0.77879342  0.27424319  1
  O  O394  1  0.35247059  0.77555305  0.60998090  1
  O  O395  1  0.35813865  0.77308668  0.94494098  1
  O  O396  1  0.86534344  0.28277497  0.27593712  1
  O  O397  1  0.87327555  0.28693492  0.61782530  1
  O  O398  1  0.86648623  0.26423335  0.93765432  1
  O  O399  1  0.86414787  0.78316678  0.27629117  1
  O  O400  1  0.85683328  0.78794904  0.61077170  1
  O  O401  1  0.86552744  0.76396572  0.93339215  1
  O  O402  1  0.22525380  0.13785148  0.22690392  1
  O  O403  1  0.21657541  0.13850998  0.55338043  1
  O  O404  1  0.22579012  0.12953114  0.88884871  1
  O  O405  1  0.22238531  0.63868823  0.22322867  1
  O  O406  1  0.21453635  0.63377308  0.55590582  1
  O  O407  1  0.22712100  0.63641195  0.89120841  1
  O  O408  1  0.72021122  0.13681490  0.22653206  1
  O  O409  1  0.71568890  0.13099578  0.53794156  1
  O  O410  1  0.71944424  0.14528264  0.89004457  1
  O  O411  1  0.72218868  0.64038113  0.22744066  1
  O  O412  1  0.70788669  0.63168473  0.56329466  1
  O  O413  1  0.72119158  0.64540391  0.89875199  1
  O  O414  1  0.48551603  0.32622625  0.02709506  1
  O  O415  1  0.49943944  0.33405060  0.35864136  1
  O  O416  1  0.49335776  0.34002599  0.70120256  1
  O  O417  1  0.48998388  0.82797989  0.03148609  1
  O  O418  1  0.49022191  0.83162357  0.36544460  1
  O  O419  1  0.48413925  0.83018765  0.69509363  1
  O  O420  1  0.99248243  0.32860425  0.02967275  1
  O  O421  1  0.99614079  0.33372466  0.36471928  1
  O  O422  1  1.00527320  0.34304092  0.69918554  1
  O  O423  1  0.99284092  0.83294583  0.01920107  1
  O  O424  1  0.99304406  0.83591456  0.36950246  1
  O  O425  1  0.99055224  0.83504591  0.69581590  1
  O  O426  1  0.16823430  0.00800811  0.13928501  1
  O  O427  1  0.16098691  0.00740363  0.46694923  1
  O  O428  1  0.15581684  -0.00082356  0.80821838  1
  O  O429  1  0.16596763  0.50943278  0.13401137  1
  O  O430  1  0.16482788  0.50401061  0.46608994  1
  O  O431  1  0.16907491  0.50688876  0.80133369  1
  O  O432  1  0.66417713  0.00787559  0.13400070  1
  O  O433  1  0.65498644  -0.00149180  0.46822693  1
  O  O434  1  0.67117823  0.01314650  0.80408006  1
  O  O435  1  0.67276029  0.51289785  0.13015558  1
  O  O436  1  0.66656382  0.49862634  0.47701263  1
  O  O437  1  0.67827559  0.51277025  0.81110648  1
  O  O438  1  0.00913428  0.16920879  0.30532696  1
  O  O439  1  0.00272768  0.17185820  0.63765807  1
  O  O440  1  0.00842846  0.16664111  0.97125815  1
  O  O441  1  0.00829369  0.66911872  0.29576040  1
  O  O442  1  0.00178965  0.66149820  0.63932378  1
  O  O443  1  0.00915700  0.66466554  0.96629147  1
  O  O444  1  0.50640561  0.16018308  0.30262048  1
  O  O445  1  0.51282948  0.17762426  0.64026953  1
  O  O446  1  0.50950838  0.16599135  0.97053982  1
  O  O447  1  0.50369629  0.66438079  0.29659172  1
  O  O448  1  0.50653452  0.66315587  0.64505652  1
  O  O449  1  0.51340262  0.66693468  0.97313069  1
  O  O450  1  0.32728055  0.48776577  0.19409536  1
  O  O451  1  0.33109889  0.49824902  0.52809772  1
  O  O452  1  0.33038951  0.48894853  0.86041049  1
  O  O453  1  0.33499811  0.99017333  0.19851333  1
  O  O454  1  0.32915223  0.98997830  0.53180959  1
  O  O455  1  0.32665462  0.98353020  0.86466962  1
  O  O456  1  0.83280342  0.49145970  0.19959986  1
  O  O457  1  0.83756861  0.49180436  0.52887044  1
  O  O458  1  0.85750785  0.50354291  0.86781960  1
  O  O459  1  0.83267583  0.99630365  0.20283655  1
  O  O460  1  0.82815152  0.99405215  0.52744236  1
  O  O461  1  0.84051280  0.99695126  0.86009790  1
