# generated using pymatgen
data_Na31Fe20(SO4)36
_symmetry_space_group_name_H-M   'P 1'
_cell_length_a   18.06814036
_cell_length_b   18.07252062
_cell_length_c   19.71002036
_cell_angle_alpha   107.58348698
_cell_angle_beta   107.54594092
_cell_angle_gamma   90.73578868
_symmetry_Int_Tables_number   1
_chemical_formula_structural   Na31Fe20(SO4)36
_chemical_formula_sum   'Na62 Fe40 S72 O288'
_cell_volume   5811.54142803
_cell_formula_units_Z   2
loop_
 _symmetry_equiv_pos_site_id
 _symmetry_equiv_pos_as_xyz
  1  'x, y, z'
loop_
 _atom_site_type_symbol
 _atom_site_label
 _atom_site_symmetry_multiplicity
 _atom_site_fract_x
 _atom_site_fract_y
 _atom_site_fract_z
 _atom_site_occupancy
  Na  Na0  1  0.15389927  0.35286619  0.09290346  1
  Na  Na1  1  0.13152909  0.34601270  0.39291520  1
  Na  Na2  1  0.12685987  0.37428260  0.75157125  1
  Na  Na3  1  0.13898138  0.87117373  0.08756444  1
  Na  Na4  1  0.14299745  0.86114270  0.42290471  1
  Na  Na5  1  0.13006171  0.86497776  0.74732437  1
  Na  Na6  1  0.62956685  0.37290990  0.08374304  1
  Na  Na7  1  0.63216146  0.36034170  0.40589479  1
  Na  Na8  1  0.62841649  0.37714171  0.75463812  1
  Na  Na9  1  0.62567475  0.86252350  0.08416398  1
  Na  Na10  1  0.64134732  0.86721899  0.42746915  1
  Na  Na11  1  0.63679289  0.86629439  0.75018887  1
  Na  Na12  1  0.36188848  0.16793942  0.26674609  1
  Na  Na13  1  0.36405049  0.13353998  0.57910228  1
  Na  Na14  1  0.35781126  0.14063362  0.92385476  1
  Na  Na15  1  0.36544424  0.62811779  0.23941048  1
  Na  Na16  1  0.36424561  0.63755515  0.57961844  1
  Na  Na17  1  0.37682703  0.64740395  0.93269716  1
  Na  Na18  1  0.86614072  0.14116286  0.25348860  1
  Na  Na19  1  0.86108329  0.12340555  0.57593588  1
  Na  Na20  1  0.85825890  0.13329587  0.91019431  1
  Na  Na21  1  0.86874403  0.62947174  0.25154994  1
  Na  Na22  1  0.86477824  0.62169925  0.57427233  1
  Na  Na23  1  0.87500363  0.62097225  0.91731264  1
  Na  Na24  1  0.98205531  0.49745801  0.43624434  1
  Na  Na25  1  0.99678183  0.05644475  0.10041820  1
  Na  Na26  1  0.48267245  0.05997504  0.11375624  1
  Na  Na27  1  0.51227660  0.49045978  0.41759242  1
  Na  Na28  1  0.49081420  0.02461390  0.40551248  1
  Na  Na29  1  1.04550073  0.48303980  0.02763207  1
  Na  Na30  1  0.95585939  0.01507522  0.70389624  1
  Na  Na31  1  0.99124651  0.00280306  0.43204081  1
  Na  Na32  1  0.49005880  0.01253274  0.74787336  1
  Na  Na33  1  0.01198828  0.99303800  0.91132847  1
  Na  Na34  1  0.51561591  0.96882039  0.23685920  1
  Na  Na35  1  0.01690521  0.48702945  0.23813262  1
  Na  Na36  1  0.50550943  0.99137775  0.92366263  1
  Na  Na37  1  0.53134535  0.49587828  0.24794894  1
  Na  Na38  1  0.50142622  0.48437356  0.93229238  1
  Na  Na39  1  -0.00009832  1.00630151  0.25183338  1
  Na  Na40  1  0.50460895  0.45724173  0.58094698  1
  Na  Na41  1  0.52084946  0.99391052  0.57784364  1
  Na  Na42  1  0.24345555  0.73870692  0.34117521  1
  Na  Na43  1  0.25551829  0.25601376  0.66168614  1
  Na  Na44  1  0.25587113  0.74719885  0.01024396  1
  Na  Na45  1  0.25645215  0.75553899  0.65754382  1
  Na  Na46  1  0.73855739  0.24152711  0.33016409  1
  Na  Na47  1  0.76027267  0.26761808  -0.00785455  1
  Na  Na48  1  0.75131854  0.75021704  0.66456910  1
  Na  Na49  1  0.75673568  0.25888639  0.66287007  1
  Na  Na50  1  0.74658016  0.74410450  0.00476364  1
  Na  Na51  1  0.74419939  0.73718841  0.34076580  1
  Na  Na52  1  0.74431569  0.25733829  0.16449194  1
  Na  Na53  1  0.23361020  0.24197951  0.84129912  1
  Na  Na54  1  0.74335755  0.24757934  0.49617863  1
  Na  Na55  1  0.76083728  0.27171005  0.82804803  1
  Na  Na56  1  0.24707734  0.73616277  0.16957840  1
  Na  Na57  1  0.26536107  0.25939607  0.47460469  1
  Na  Na58  1  0.24841386  0.74623536  0.83709044  1
  Na  Na59  1  0.75060979  0.74721734  0.83900025  1
  Na  Na60  1  0.74880104  0.74112099  0.17115591  1
  Na  Na61  1  0.74781010  0.74220073  0.50234594  1
  Fe  Fe62  1  0.96724936  0.80910498  0.11891062  1
  Fe  Fe63  1  0.96805776  0.30383448  0.45578952  1
  Fe  Fe64  1  0.96831270  0.30026780  0.12410771  1
  Fe  Fe65  1  0.46175496  0.30295525  0.12445414  1
  Fe  Fe66  1  0.96570038  0.31423428  0.79460632  1
  Fe  Fe67  1  0.96597364  0.80700609  0.78527522  1
  Fe  Fe68  1  0.46079010  0.30578492  0.78764014  1
  Fe  Fe69  1  0.46394973  0.80888889  0.78331347  1
  Fe  Fe70  1  0.46350271  0.80735021  0.45024740  1
  Fe  Fe71  1  0.96651527  0.80837266  0.45550397  1
  Fe  Fe72  1  0.70337243  0.53056487  0.04099810  1
  Fe  Fe73  1  0.69493083  0.03053019  0.38197826  1
  Fe  Fe74  1  0.19147541  0.53435010  0.71209219  1
  Fe  Fe75  1  0.69300504  0.53629139  0.71372127  1
  Fe  Fe76  1  0.19145561  0.04209530  0.05537358  1
  Fe  Fe77  1  0.70000034  0.03369368  0.71434938  1
  Fe  Fe78  1  0.18558335  0.03473712  0.71247927  1
  Fe  Fe79  1  0.19485787  0.53606263  0.38137313  1
  Fe  Fe80  1  0.19213926  0.03373411  0.38095866  1
  Fe  Fe81  1  0.69019175  0.03660056  0.05114714  1
  Fe  Fe82  1  0.53119921  0.19325041  0.88300393  1
  Fe  Fe83  1  0.03780908  0.18968718  0.88343574  1
  Fe  Fe84  1  0.03694343  0.68899695  0.21105817  1
  Fe  Fe85  1  0.53032768  0.19867047  0.54312684  1
  Fe  Fe86  1  0.53558652  0.68938316  0.54333834  1
  Fe  Fe87  1  0.03928460  0.69152900  0.54896318  1
  Fe  Fe88  1  0.03680789  0.19281119  0.55162520  1
  Fe  Fe89  1  0.03901307  0.68850027  0.87901390  1
  Fe  Fe90  1  0.53223361  0.69622156  0.20746198  1
  Fe  Fe91  1  0.53154985  0.69457729  0.87815159  1
  Fe  Fe92  1  0.30779115  0.46650265  0.61740874  1
  Fe  Fe93  1  0.81066938  0.46512782  0.62405704  1
  Fe  Fe94  1  0.31044034  0.46344953  0.28303457  1
  Fe  Fe95  1  0.30799755  0.96405058  0.28128062  1
  Fe  Fe96  1  0.30775245  0.97015488  0.95615740  1
  Fe  Fe97  1  0.30536295  0.96393622  0.61636173  1
  Fe  Fe98  1  0.81021226  0.95931594  0.28686369  1
  Fe  Fe99  1  0.30190285  0.47006617  0.96144870  1
  Fe  Fe100  1  0.80878716  0.96636720  0.95534775  1
  Fe  Fe101  1  0.79793606  0.46793327  0.29029209  1
  S  S102  1  0.34697743  0.14812012  0.08203682  1
  S  S103  1  0.35971848  0.13674142  0.41751548  1
  S  S104  1  0.35683736  0.13827155  0.74891202  1
  S  S105  1  0.36383390  0.63995559  0.08040727  1
  S  S106  1  0.36040918  0.64080024  0.41559004  1
  S  S107  1  0.35769514  0.64189529  0.74835946  1
  S  S108  1  0.85098478  0.14279489  0.08290952  1
  S  S109  1  0.86236340  0.13541114  0.41683858  1
  S  S110  1  0.85652985  0.14647290  0.75256395  1
  S  S111  1  0.86468270  0.64433671  0.08458272  1
  S  S112  1  0.86558357  0.63803172  0.41823922  1
  S  S113  1  0.86069247  0.64330083  0.75100772  1
  S  S114  1  0.13864838  0.36392018  0.25031550  1
  S  S115  1  0.14311969  0.35823879  0.58291641  1
  S  S116  1  0.14095422  0.35544848  0.91650417  1
  S  S117  1  0.14290336  0.85857629  0.25064333  1
  S  S118  1  0.14119714  0.85931962  0.58343699  1
  S  S119  1  0.14113905  0.86194019  0.91696512  1
  S  S120  1  0.63587751  0.35794349  0.24438027  1
  S  S121  1  0.64132209  0.35943087  0.58382634  1
  S  S122  1  0.63561735  0.35810075  0.91710407  1
  S  S123  1  0.64575134  0.85557256  0.25355651  1
  S  S124  1  0.63838543  0.85954841  0.58455636  1
  S  S125  1  0.63958849  0.86285880  0.91644927  1
  S  S126  1  0.05753177  0.16386295  0.03381475  1
  S  S127  1  0.06351586  0.16222826  0.37934548  1
  S  S128  1  0.06196603  0.16881661  0.70908727  1
  S  S129  1  0.07210063  0.67938604  0.04587644  1
  S  S130  1  0.07009001  0.67074000  0.37556889  1
  S  S131  1  0.07007802  0.67313473  0.71160412  1
  S  S132  1  0.55972100  0.16852597  0.04200795  1
  S  S133  1  0.56633304  0.15819238  0.36933276  1
  S  S134  1  0.56648750  0.16913457  0.70982087  1
  S  S135  1  0.57716377  0.66868175  0.03975865  1
  S  S136  1  0.56346863  0.66948812  0.37514741  1
  S  S137  1  0.56760802  0.67363066  0.70885298  1
  S  S138  1  0.33569278  0.42900066  0.12438408  1
  S  S139  1  0.33317654  0.44086734  0.45839339  1
  S  S140  1  0.32603144  0.43080343  0.79445671  1
  S  S141  1  0.33374001  0.94377889  0.12323044  1
  S  S142  1  0.33247105  0.93213079  0.45752882  1
  S  S143  1  0.33068071  0.93644235  0.79079641  1
  S  S144  1  0.82875032  0.42973124  0.12690115  1
  S  S145  1  0.82823207  0.42345821  0.45838630  1
  S  S146  1  0.82515094  0.43418308  0.78914101  1
  S  S147  1  0.83159169  0.93404039  0.12501546  1
  S  S148  1  0.83151510  0.93071156  0.45757004  1
  S  S149  1  0.83060092  0.93365636  0.79239329  1
  S  S150  1  0.43659961  0.34350937  0.29244992  1
  S  S151  1  0.42897347  0.32721284  0.62452813  1
  S  S152  1  0.42251332  0.32476565  0.95529678  1
  S  S153  1  0.43573770  0.83251080  0.29226084  1
  S  S154  1  0.43284729  0.83510163  0.62642650  1
  S  S155  1  0.43424692  0.83639414  0.95453809  1
  S  S156  1  0.92587228  0.33231152  0.29385707  1
  S  S157  1  0.92961829  0.32213677  0.62324506  1
  S  S158  1  0.93664737  0.32428212  0.95770190  1
  S  S159  1  0.93957550  0.83234963  0.29344411  1
  S  S160  1  0.93116589  0.82193303  0.62035664  1
  S  S161  1  0.93644743  0.83813549  0.96069106  1
  S  S162  1  0.16763864  0.06220224  0.21333079  1
  S  S163  1  0.17120254  0.06573801  0.54490096  1
  S  S164  1  0.16650697  0.06225269  0.87119551  1
  S  S165  1  0.16986027  0.56553984  0.20811958  1
  S  S166  1  0.17081644  0.56509377  0.54244095  1
  S  S167  1  0.17827397  0.57039332  0.87797895  1
  S  S168  1  0.67211152  0.05687392  0.21056357  1
  S  S169  1  0.66394746  0.06934863  0.54328059  1
  S  S170  1  0.66658244  0.06782277  0.87659409  1
  S  S171  1  0.67454125  0.57256473  0.20689100  1
  S  S172  1  0.66899327  0.56397216  0.54362775  1
  S  S173  1  0.67027227  0.57357663  0.87492090  1
  O  O174  1  0.36614286  0.22492798  0.07199141  1
  O  O175  1  0.36589690  0.21415945  0.41108954  1
  O  O176  1  0.36628693  0.21705888  0.74060145  1
  O  O177  1  0.37850108  0.71074858  0.06264300  1
  O  O178  1  0.36969194  0.72052344  0.40851127  1
  O  O179  1  0.36767602  0.71999616  0.73769081  1
  O  O180  1  0.86211671  0.22212840  0.07653267  1
  O  O181  1  0.87082210  0.21408414  0.40836728  1
  O  O182  1  0.86322041  0.23054051  0.75572636  1
  O  O183  1  0.87083652  0.72692706  0.08082992  1
  O  O184  1  0.87848040  0.71540968  0.40660561  1
  O  O185  1  0.86915123  0.72326469  0.74362323  1
  O  O186  1  0.26312551  0.14071594  0.07467785  1
  O  O187  1  0.28247752  0.12248166  0.42966215  1
  O  O188  1  0.27783408  0.12901905  0.75605737  1
  O  O189  1  0.28755740  0.63514320  0.09165615  1
  O  O190  1  0.28261315  0.63273163  0.42541698  1
  O  O191  1  0.27678980  0.63342507  0.75243266  1
  O  O192  1  0.76947713  0.13456515  0.08705927  1
  O  O193  1  0.78407869  0.12724617  0.42709796  1
  O  O194  1  0.77974455  0.13445715  0.76572223  1
  O  O195  1  0.78377307  0.63305095  0.08892574  1
  O  O196  1  0.79066524  0.63409559  0.43139003  1
  O  O197  1  0.78131105  0.63512186  0.75872509  1
  O  O198  1  0.12983258  0.29146932  0.26534856  1
  O  O199  1  0.13356977  0.28020108  0.59344513  1
  O  O200  1  0.13643655  0.27037927  0.90833749  1
  O  O201  1  0.13312921  0.77844119  0.25609954  1
  O  O202  1  0.13310876  0.78053443  0.59234671  1
  O  O203  1  0.13322463  0.78196854  0.92310726  1
  O  O204  1  0.63635013  0.28062511  0.25339835  1
  O  O205  1  0.62984517  0.28127679  0.59413173  1
  O  O206  1  0.62242442  0.28130255  0.92998786  1
  O  O207  1  0.63445145  0.77597672  0.26001590  1
  O  O208  1  0.62450375  0.78186020  0.59535310  1
  O  O209  1  0.63052731  0.78353694  0.92281201  1
  O  O210  1  0.21527971  0.37813086  0.23995043  1
  O  O211  1  0.22378293  0.36680118  0.57769715  1
  O  O212  1  0.22093480  0.37418895  0.91076688  1
  O  O213  1  0.22000806  0.86571847  0.23812512  1
  O  O214  1  0.21991260  0.86916648  0.57557781  1
  O  O215  1  0.21950668  0.87183126  0.90767698  1
  O  O216  1  0.71156026  0.37560397  0.23117885  1
  O  O217  1  0.72476804  0.36560025  0.58456119  1
  O  O218  1  0.71324532  0.36318974  0.90982957  1
  O  O219  1  0.72673319  0.86163627  0.24740242  1
  O  O220  1  0.71279724  0.86260914  0.57047585  1
  O  O221  1  0.71905239  0.87234284  0.90892328  1
  O  O222  1  0.39623323  0.14098498  0.15302351  1
  O  O223  1  0.42108083  0.12680897  0.48489365  1
  O  O224  1  0.41646022  0.13001055  0.81668356  1
  O  O225  1  0.42461074  0.63273981  0.14863225  1
  O  O226  1  0.42071968  0.63329616  0.48364852  1
  O  O227  1  0.41370167  0.63877343  0.81977801  1
  O  O228  1  0.90707501  0.13134858  0.14900846  1
  O  O229  1  0.92249193  0.12553243  0.48350557  1
  O  O230  1  0.91879169  0.13012490  0.81407186  1
  O  O231  1  0.91987648  0.64103401  0.15740596  1
  O  O232  1  0.92896579  0.62698472  0.48329437  1
  O  O233  1  0.91950666  0.63809341  0.82014429  1
  O  O234  1  0.36359728  0.08615800  0.01788804  1
  O  O235  1  0.36844609  0.07630323  0.35000234  1
  O  O236  1  0.36679347  0.07918055  0.68133654  1
  O  O237  1  0.36911232  0.57174972  0.01367671  1
  O  O238  1  0.36818238  0.58303920  0.34713132  1
  O  O239  1  0.36800342  0.58133585  0.68281532  1
  O  O240  1  0.85856384  0.08462845  0.01322470  1
  O  O241  1  0.86934735  0.07614620  0.34846619  1
  O  O242  1  0.85827306  0.09551871  0.67987010  1
  O  O243  1  0.87822859  0.58883259  0.02063917  1
  O  O244  1  0.86989483  0.57660570  0.34965584  1
  O  O245  1  0.86815678  0.58510569  0.68288997  1
  O  O246  1  0.07734160  0.36827722  0.17990640  1
  O  O247  1  0.08572702  0.36291635  0.51284312  1
  O  O248  1  0.08250865  0.36895398  0.85026268  1
  O  O249  1  0.08160792  0.87155558  0.18668015  1
  O  O250  1  0.08202615  0.86657397  0.51540150  1
  O  O251  1  0.08069621  0.87084220  0.84952543  1
  O  O252  1  0.57348901  0.35811786  0.17153416  1
  O  O253  1  0.58815699  0.36668511  0.51459010  1
  O  O254  1  0.57517040  0.36386624  0.84815799  1
  O  O255  1  0.58920279  0.86777989  0.18836430  1
  O  O256  1  0.57466938  0.87180670  0.52070287  1
  O  O257  1  0.58093825  0.87283167  0.84899278  1
  O  O258  1  0.12621906  0.43042962  0.31379546  1
  O  O259  1  0.13445589  0.41820099  0.64993506  1
  O  O260  1  0.13198298  0.40256381  0.98712052  1
  O  O261  1  0.13974309  0.91528921  0.32228640  1
  O  O262  1  0.13280622  0.91755068  0.65153524  1
  O  O263  1  0.13245255  0.92016457  0.98493159  1
  O  O264  1  0.62316246  0.41881561  0.30683873  1
  O  O265  1  0.62900472  0.41991429  0.65001483  1
  O  O266  1  0.62619981  0.42111083  0.98266329  1
  O  O267  1  0.63957384  0.91301440  0.32398394  1
  O  O268  1  0.63519399  0.92044671  0.65466618  1
  O  O269  1  0.63107003  0.92157665  0.98459817  1
  O  O270  1  0.02247852  0.19191653  0.09475921  1
  O  O271  1  0.03359972  0.19814664  0.44545110  1
  O  O272  1  0.02363956  0.20080832  0.76786011  1
  O  O273  1  0.03203029  0.70975372  0.10557878  1
  O  O274  1  0.03802177  0.70265078  0.43941589  1
  O  O275  1  0.03167644  0.70313111  0.77198921  1
  O  O276  1  0.51909153  0.19747329  0.09859820  1
  O  O277  1  0.54222352  0.18256532  0.43793146  1
  O  O278  1  0.52822861  0.19676729  0.77020168  1
  O  O279  1  0.54734269  0.69166591  0.10332472  1
  O  O280  1  0.52975737  0.70823945  0.43821910  1
  O  O281  1  0.53032643  0.70326517  0.76972349  1
  O  O282  1  0.31396990  0.46176007  0.06094310  1
  O  O283  1  0.29659922  0.47410022  0.39546817  1
  O  O284  1  0.30202867  0.47170975  0.73667134  1
  O  O285  1  0.29110931  0.97818768  0.06190635  1
  O  O286  1  0.30335667  0.96469154  0.39431789  1
  O  O287  1  0.29887199  0.97019182  0.72832122  1
  O  O288  1  0.80199084  0.46835112  0.06898398  1
  O  O289  1  0.80287934  0.45811830  0.39779551  1
  O  O290  1  0.79680734  0.47298968  0.72767129  1
  O  O291  1  0.80065158  0.97200823  0.06506878  1
  O  O292  1  0.79964774  0.96581101  0.39402802  1
  O  O293  1  0.80341379  0.97142808  0.73405291  1
  O  O294  1  0.46336372  0.30904402  0.22457670  1
  O  O295  1  0.46922026  0.30026426  0.56783015  1
  O  O296  1  0.46497996  0.29925505  0.89782660  1
  O  O297  1  0.47172612  0.80138976  0.23326433  1
  O  O298  1  0.46475168  0.80218754  0.56364173  1
  O  O299  1  0.46635161  0.80328174  0.88855227  1
  O  O300  1  0.95927415  0.31094593  0.23217048  1
  O  O301  1  0.96973242  0.29422834  0.56396634  1
  O  O302  1  0.97648953  0.28965313  0.89821345  1
  O  O303  1  0.97530729  0.80315270  0.23245311  1
  O  O304  1  0.97163813  0.79026088  0.56151744  1
  O  O305  1  0.97056730  0.80730918  0.89838265  1
  O  O306  1  0.20505664  0.02341790  0.27277702  1
  O  O307  1  0.20026388  0.02899788  0.60620046  1
  O  O308  1  0.19704815  0.02772657  0.93296857  1
  O  O309  1  0.20602513  0.53756589  0.27437143  1
  O  O310  1  0.20076420  0.52698261  0.60270625  1
  O  O311  1  0.20732165  0.53056035  0.93554221  1
  O  O312  1  0.70878447  0.02144005  0.27189304  1
  O  O313  1  0.68685290  0.03673503  0.60562025  1
  O  O314  1  0.69503366  0.03087775  0.93711949  1
  O  O315  1  0.70293133  0.53645227  0.26667517  1
  O  O316  1  0.70305162  0.53271870  0.60897697  1
  O  O317  1  0.69499655  0.53569611  0.93306257  1
  O  O318  1  0.08082705  0.08302136  0.03473491  1
  O  O319  1  0.08310729  0.08071421  0.38010441  1
  O  O320  1  0.07901246  0.08750406  0.70817161  1
  O  O321  1  0.09457853  0.60288510  0.04569359  1
  O  O322  1  0.08646649  0.58855567  0.37019386  1
  O  O323  1  0.09340430  0.59551180  0.71136609  1
  O  O324  1  0.58038564  0.08759224  0.04227580  1
  O  O325  1  0.58723136  0.07366278  0.35974189  1
  O  O326  1  0.58299624  0.08623200  0.70423144  1
  O  O327  1  0.59674926  0.58646531  0.02379668  1
  O  O328  1  0.57007099  0.58791527  0.37186773  1
  O  O329  1  0.58492629  0.59218699  0.70103548  1
  O  O330  1  0.41928910  0.40912402  0.13595413  1
  O  O331  1  0.41503377  0.43195936  0.46296911  1
  O  O332  1  0.40812026  0.41195341  0.80407581  1
  O  O333  1  0.41534627  0.94242928  0.12431928  1
  O  O334  1  0.41628394  0.91796581  0.46699975  1
  O  O335  1  0.41447126  0.92310222  0.79661985  1
  O  O336  1  0.90884409  0.40647331  0.13106255  1
  O  O337  1  0.91113846  0.40520680  0.46839119  1
  O  O338  1  0.90024234  0.40435944  0.78351671  1
  O  O339  1  0.91337867  0.91693995  0.12863757  1
  O  O340  1  0.91178957  0.91016994  0.45537782  1
  O  O341  1  0.91273944  0.91475029  0.79877389  1
  O  O342  1  0.42116231  0.42760803  0.29641376  1
  O  O343  1  0.40891958  0.40798904  0.62701180  1
  O  O344  1  0.40500738  0.40667740  0.96090053  1
  O  O345  1  0.41766965  0.91491361  0.29423055  1
  O  O346  1  0.41656811  0.91786166  0.63001882  1
  O  O347  1  0.41334084  0.91714632  0.95398059  1
  O  O348  1  0.90850533  0.41565611  0.31049653  1
  O  O349  1  0.90749942  0.40056478  0.62560864  1
  O  O350  1  0.92632312  0.40472959  0.96124327  1
  O  O351  1  0.92282075  0.91549617  0.29868808  1
  O  O352  1  0.90899374  0.89836429  0.61899130  1
  O  O353  1  0.92111068  0.92132507  0.96704978  1
  O  O354  1  0.08636797  0.06939240  0.21339590  1
  O  O355  1  0.09022706  0.08473941  0.54043877  1
  O  O356  1  0.08439172  0.07946828  0.86719163  1
  O  O357  1  0.08951202  0.58690362  0.21068065  1
  O  O358  1  0.08967516  0.58403836  0.53921517  1
  O  O359  1  0.10025015  0.59364507  0.87877809  1
  O  O360  1  0.59109552  0.06615612  0.20774749  1
  O  O361  1  0.57964310  0.08505469  0.53073484  1
  O  O362  1  0.58248740  0.08147937  0.86845826  1
  O  O363  1  0.59445708  0.59342863  0.20514439  1
  O  O364  1  0.58888457  0.58665319  0.54463852  1
  O  O365  1  0.58986574  0.59617276  0.86664683  1
  O  O366  1  0.12257855  0.21590071  0.03933055  1
  O  O367  1  0.13403152  0.21141464  0.39001482  1
  O  O368  1  0.13417192  0.21891963  0.72393327  1
  O  O369  1  0.14091461  0.73658474  0.06366019  1
  O  O370  1  0.14044748  0.72113203  0.38735847  1
  O  O371  1  0.13866859  0.72962894  0.72781641  1
  O  O372  1  0.62934500  0.22111002  0.05619649  1
  O  O373  1  0.63836985  0.20909085  0.38258140  1
  O  O374  1  0.63803614  0.22094353  0.72784672  1
  O  O375  1  0.64709325  0.72361171  0.05488289  1
  O  O376  1  0.63936786  0.71610191  0.39306351  1
  O  O377  1  0.63994422  0.72639429  0.72810170  1
  O  O378  1  0.28341087  0.36062599  0.11000235  1
  O  O379  1  0.28483457  0.36886688  0.44574156  1
  O  O380  1  0.27151479  0.35961284  0.77272561  1
  O  O381  1  0.29168401  0.86646703  0.10697531  1
  O  O382  1  0.28309270  0.86043108  0.44357591  1
  O  O383  1  0.28297377  0.86272125  0.77539176  1
  O  O384  1  0.77287692  0.35968108  0.10885211  1
  O  O385  1  0.77601953  0.35170699  0.44253884  1
  O  O386  1  0.76543046  0.36667659  0.76991063  1
  O  O387  1  0.77959205  0.86322882  0.10901080  1
  O  O388  1  0.78022583  0.85827973  0.44076121  1
  O  O389  1  0.77849802  0.86183888  0.77622168  1
  O  O390  1  0.36530699  0.29845647  0.28385034  1
  O  O391  1  0.35744057  0.27354945  0.60580124  1
  O  O392  1  0.35166721  0.27125998  0.93256449  1
  O  O393  1  0.36371297  0.78326185  0.28035978  1
  O  O394  1  0.36296798  0.78634293  0.61762836  1
  O  O395  1  0.36260014  0.78526759  0.93957313  1
  O  O396  1  0.85412640  0.27913226  0.27620234  1
  O  O397  1  0.86014083  0.26514925  0.60376716  1
  O  O398  1  0.86161788  0.27394609  0.93580911  1
  O  O399  1  0.86791851  0.78195583  0.27837849  1
  O  O400  1  0.86330554  0.76487854  0.60487431  1
  O  O401  1  0.86386912  0.78877291  0.94620610  1
  O  O402  1  0.21422792  0.13460463  0.22784411  1
  O  O403  1  0.22423128  0.13589827  0.56136221  1
  O  O404  1  0.21702041  0.13177201  0.88218212  1
  O  O405  1  0.21976999  0.63717610  0.21924314  1
  O  O406  1  0.22332171  0.63598499  0.56007961  1
  O  O407  1  0.23337618  0.64027623  0.89390455  1
  O  O408  1  0.72014709  0.13067893  0.22571451  1
  O  O409  1  0.71511333  0.14105666  0.55838267  1
  O  O410  1  0.71556236  0.14118753  0.89438593  1
  O  O411  1  0.72890270  0.64362451  0.22339424  1
  O  O412  1  0.72103350  0.63483619  0.55684806  1
  O  O413  1  0.72647461  0.64323579  0.89198048  1
  O  O414  1  0.47869130  0.32264451  0.02809046  1
  O  O415  1  0.50204433  0.34893979  0.35967927  1
  O  O416  1  0.48454576  0.33182311  0.69994700  1
  O  O417  1  0.49535206  0.84092765  0.02325838  1
  O  O418  1  0.49415779  0.84064590  0.36787825  1
  O  O419  1  0.49514243  0.84208847  0.69971615  1
  O  O420  1  0.99034780  0.31890630  0.02982779  1
  O  O421  1  0.98681611  0.32699137  0.36353804  1
  O  O422  1  0.98792134  0.32426075  0.69590754  1
  O  O423  1  0.99586838  0.83896031  0.03244680  1
  O  O424  1  0.99860366  0.83601497  0.36653051  1
  O  O425  1  0.99036374  0.82771603  0.69503020  1
  O  O426  1  0.16446770  0.00492120  0.13794928  1
  O  O427  1  0.16871672  0.00521948  0.47298724  1
  O  O428  1  0.16235145  0.00096802  0.79853211  1
  O  O429  1  0.16051513  0.50284394  0.13814524  1
  O  O430  1  0.16626481  0.50654277  0.46930879  1
  O  O431  1  0.17075906  0.51274804  0.80275481  1
  O  O432  1  0.67341147  0.00008758  0.13733424  1
  O  O433  1  0.66695715  0.00863495  0.47313305  1
  O  O434  1  0.66753103  0.01012409  0.80422873  1
  O  O435  1  0.67083974  0.51540916  0.13263142  1
  O  O436  1  0.65982633  0.50206817  0.47343884  1
  O  O437  1  0.66818914  0.51473997  0.80150302  1
  O  O438  1  -0.00029935  0.15319201  0.31003206  1
  O  O439  1  0.00479694  0.16322543  0.63444991  1
  O  O440  1  -0.00490892  0.14785928  0.95846980  1
  O  O441  1  0.00800203  0.66825634  0.30429447  1
  O  O442  1  0.01093297  0.66756485  0.63839448  1
  O  O443  1  0.01320147  0.67735642  0.97259893  1
  O  O444  1  0.50238716  0.15624789  0.30295246  1
  O  O445  1  0.50860628  0.16752143  0.63686364  1
  O  O446  1  0.50227649  0.15761456  0.96514686  1
  O  O447  1  0.50803649  0.67368990  0.30313466  1
  O  O448  1  0.50883628  0.67626853  0.63797851  1
  O  O449  1  0.51440072  0.67233279  0.97050739  1
  O  O450  1  0.33542138  0.49326809  0.19302882  1
  O  O451  1  0.33230399  0.50012449  0.53134336  1
  O  O452  1  0.32650091  0.48670066  0.86876648  1
  O  O453  1  0.33024496  0.99784109  0.19615000  1
  O  O454  1  0.33197065  0.99305158  0.52870989  1
  O  O455  1  0.33092909  0.99573262  0.86242321  1
  O  O456  1  0.83444573  0.48699909  0.20211810  1
  O  O457  1  0.82781593  0.48320499  0.53019829  1
  O  O458  1  0.83422162  0.49189700  0.86099974  1
  O  O459  1  0.83706258  0.99232154  0.19919728  1
  O  O460  1  0.83652315  0.98991482  0.52790468  1
  O  O461  1  0.83331145  0.99139213  0.86681206  1
