# generated using pymatgen
data_Na31Fe20(SO4)36
_symmetry_space_group_name_H-M   'P 1'
_cell_length_a   18.07908520
_cell_length_b   18.07891807
_cell_length_c   19.71804217
_cell_angle_alpha   107.57319041
_cell_angle_beta   107.55077944
_cell_angle_gamma   90.74853245
_symmetry_Int_Tables_number   1
_chemical_formula_structural   Na31Fe20(SO4)36
_chemical_formula_sum   'Na62 Fe40 S72 O288'
_cell_volume   5819.52120260
_cell_formula_units_Z   2
loop_
 _symmetry_equiv_pos_site_id
 _symmetry_equiv_pos_as_xyz
  1  'x, y, z'
loop_
 _atom_site_type_symbol
 _atom_site_label
 _atom_site_symmetry_multiplicity
 _atom_site_fract_x
 _atom_site_fract_y
 _atom_site_fract_z
 _atom_site_occupancy
  Na  Na0  1  0.13215452  0.36175446  0.08323265  1
  Na  Na1  1  0.16363762  0.34410908  0.41814409  1
  Na  Na2  1  0.14541496  0.36887323  0.75523020  1
  Na  Na3  1  0.13082118  0.86691100  0.08496224  1
  Na  Na4  1  0.12736779  0.86271039  0.41009582  1
  Na  Na5  1  0.13490684  0.85659369  0.74500160  1
  Na  Na6  1  0.62118497  0.36688547  0.06862870  1
  Na  Na7  1  0.62227309  0.37558769  0.41944122  1
  Na  Na8  1  0.64023172  0.36916926  0.75838108  1
  Na  Na9  1  0.62793976  0.87322641  0.08113417  1
  Na  Na10  1  0.63110249  0.86699113  0.41677993  1
  Na  Na11  1  0.64182513  0.88021836  0.76998797  1
  Na  Na12  1  0.36313093  0.15877490  0.27283919  1
  Na  Na13  1  0.36259107  0.13382214  0.57344174  1
  Na  Na14  1  0.38660175  0.12726858  0.91881408  1
  Na  Na15  1  0.36121108  0.63063273  0.24850366  1
  Na  Na16  1  0.36985194  0.63325308  0.58910975  1
  Na  Na17  1  0.34148231  0.62268040  0.89620357  1
  Na  Na18  1  0.85956188  0.12350285  0.23098945  1
  Na  Na19  1  0.86711818  0.13590463  0.58404019  1
  Na  Na20  1  0.85351915  0.14524612  0.92348761  1
  Na  Na21  1  0.87485263  0.63371210  0.24879358  1
  Na  Na22  1  0.86785328  0.63419150  0.58289043  1
  Na  Na23  1  0.86576435  0.63761217  0.91905838  1
  Na  Na24  1  0.49547665  0.04124467  0.75039080  1
  Na  Na25  1  0.48132459  0.01340628  0.42738359  1
  Na  Na26  1  0.99103310  0.00849069  0.75283044  1
  Na  Na27  1  1.01171923  0.49250292  0.74516161  1
  Na  Na28  1  1.01924066  0.48538027  0.41159749  1
  Na  Na29  1  0.48567639  0.50335272  0.75172618  1
  Na  Na30  1  0.95015224  0.00191931  0.08623573  1
  Na  Na31  1  0.58695659  0.02542835  -0.03878855  1
  Na  Na32  1  0.98942951  0.53148139  0.09431439  1
  Na  Na33  1  0.50608243  0.48644242  0.25273300  1
  Na  Na34  1  0.45076737  0.51093967  0.97007731  1
  Na  Na35  1  0.04221794  0.49024904  0.59189961  1
  Na  Na36  1  0.01293449  0.45288761  0.22829558  1
  Na  Na37  1  0.00078179  0.97703159  0.27153738  1
  Na  Na38  1  0.01386479  0.99194519  0.57114677  1
  Na  Na39  1  -0.03499970  1.01856616  0.93890046  1
  Na  Na40  1  0.49156285  1.01796558  0.22896023  1
  Na  Na41  1  0.01700459  0.48855679  0.91985719  1
  Na  Na42  1  0.26052200  0.25909967  0.65211614  1
  Na  Na43  1  0.24686212  0.74353573  -0.00121497  1
  Na  Na44  1  0.75081050  0.24985824  0.33189627  1
  Na  Na45  1  0.23198405  0.73497814  0.34116234  1
  Na  Na46  1  0.25643494  0.25626471  -0.00610075  1
  Na  Na47  1  0.75147638  0.75073827  0.33098080  1
  Na  Na48  1  0.75579468  0.25488983  -0.00835521  1
  Na  Na49  1  0.74615569  0.75487263  0.66856885  1
  Na  Na50  1  0.75949655  0.77166530  -0.00563124  1
  Na  Na51  1  0.73927940  0.24332562  0.68239115  1
  Na  Na52  1  0.24276648  0.74050037  0.51705370  1
  Na  Na53  1  0.23665427  0.74085487  0.17420789  1
  Na  Na54  1  0.74229429  0.24470311  0.50480865  1
  Na  Na55  1  0.74864167  0.23114161  0.15198518  1
  Na  Na56  1  0.75019263  0.75206588  0.16405292  1
  Na  Na57  1  0.74723438  0.74689975  0.50040152  1
  Na  Na58  1  0.25348054  0.75153610  0.81926831  1
  Na  Na59  1  0.24719585  0.24923489  0.17312131  1
  Na  Na60  1  0.75564543  0.75740630  0.83044842  1
  Na  Na61  1  0.26121086  0.26189513  0.82840883  1
  Fe  Fe62  1  0.96400084  0.81143347  0.78916162  1
  Fe  Fe63  1  0.46322529  0.30721897  0.11734519  1
  Fe  Fe64  1  0.46356219  0.80919667  0.78632095  1
  Fe  Fe65  1  0.46947387  0.30146906  0.79410348  1
  Fe  Fe66  1  0.97043323  0.79491239  0.12495093  1
  Fe  Fe67  1  0.46165142  0.81282744  0.45567882  1
  Fe  Fe68  1  0.96270436  0.30776307  0.78438741  1
  Fe  Fe69  1  0.96759865  0.30421714  0.44993085  1
  Fe  Fe70  1  0.46157574  0.80747548  0.11988714  1
  Fe  Fe71  1  0.96706210  0.80176435  0.45333274  1
  Fe  Fe72  1  0.19037576  0.03393820  0.04688865  1
  Fe  Fe73  1  0.68781730  0.53881266  0.04419189  1
  Fe  Fe74  1  0.68856243  0.53525175  0.70875915  1
  Fe  Fe75  1  0.19011013  0.04102141  0.38158774  1
  Fe  Fe76  1  0.68514625  0.03988794  0.70990467  1
  Fe  Fe77  1  0.19648287  0.53247553  0.38412909  1
  Fe  Fe78  1  0.69557902  0.53442625  0.37936987  1
  Fe  Fe79  1  0.19297424  0.03552535  0.71624098  1
  Fe  Fe80  1  0.69037072  0.03452085  0.37933552  1
  Fe  Fe81  1  0.19980007  0.52781333  0.04808602  1
  Fe  Fe82  1  0.53232642  0.68939817  0.21124386  1
  Fe  Fe83  1  0.03771892  0.18737129  0.54285459  1
  Fe  Fe84  1  0.53551654  0.19334521  0.21329435  1
  Fe  Fe85  1  0.03871306  0.68700456  0.54997059  1
  Fe  Fe86  1  0.03412669  0.69024981  0.87959359  1
  Fe  Fe87  1  0.52967466  0.20654684  0.54348492  1
  Fe  Fe88  1  0.53245014  0.69514575  0.88185769  1
  Fe  Fe89  1  0.03414521  0.19889696  0.21147452  1
  Fe  Fe90  1  0.02846910  0.19661426  0.88350820  1
  Fe  Fe91  1  0.53343993  0.69279495  0.54619326  1
  Fe  Fe92  1  0.80522408  0.96539571  0.61734070  1
  Fe  Fe93  1  0.30485156  0.46421700  0.62009459  1
  Fe  Fe94  1  0.30680547  0.96697258  0.95219829  1
  Fe  Fe95  1  0.80877234  0.46469777  0.28046334  1
  Fe  Fe96  1  0.80537791  0.96625586  0.28727780  1
  Fe  Fe97  1  0.31997792  0.46267670  0.29965367  1
  Fe  Fe98  1  0.80936034  0.46336101  0.95012842  1
  Fe  Fe99  1  0.30230820  0.96791167  0.28356374  1
  Fe  Fe100  1  0.81002825  0.46678149  0.61819305  1
  Fe  Fe101  1  0.30707066  0.96424498  0.61918186  1
  S  S102  1  0.35773361  0.13865582  0.08543972  1
  S  S103  1  0.36052221  0.13713740  0.41537383  1
  S  S104  1  0.35524501  0.13931186  0.74596242  1
  S  S105  1  0.35761695  0.64388015  0.08581953  1
  S  S106  1  0.35948839  0.64605564  0.41818164  1
  S  S107  1  0.36414095  0.63823896  0.75076276  1
  S  S108  1  0.86356206  0.13619381  0.07972960  1
  S  S109  1  0.86048610  0.14039368  0.41852255  1
  S  S110  1  0.85969587  0.13921665  0.74633494  1
  S  S111  1  0.85551547  0.63910019  0.07946603  1
  S  S112  1  0.86073067  0.63825911  0.41676991  1
  S  S113  1  0.85674431  0.64245521  0.74853618  1
  S  S114  1  0.14783006  0.35844375  0.25770789  1
  S  S115  1  0.14011022  0.35556683  0.58141745  1
  S  S116  1  0.13738991  0.35730602  0.91483152  1
  S  S117  1  0.14047889  0.86253998  0.25248498  1
  S  S118  1  0.13903228  0.85981597  0.58545896  1
  S  S119  1  0.14105602  0.85856468  0.91518395  1
  S  S120  1  0.64308082  0.36212727  0.24930204  1
  S  S121  1  0.64850085  0.36164695  0.58658536  1
  S  S122  1  0.63943751  0.36663250  0.91665100  1
  S  S123  1  0.63724212  0.85840430  0.24978348  1
  S  S124  1  0.63892095  0.85970832  0.57972652  1
  S  S125  1  0.63675817  0.85823908  0.91943127  1
  S  S126  1  0.07241671  0.16909139  0.04140629  1
  S  S127  1  0.06432065  0.16645493  0.37304544  1
  S  S128  1  0.06600605  0.16912570  0.70837514  1
  S  S129  1  0.06712391  0.66530825  0.04204795  1
  S  S130  1  0.06633847  0.66586974  0.38018387  1
  S  S131  1  0.05870198  0.66852523  0.71047072  1
  S  S132  1  0.57352484  0.17869424  0.05692388  1
  S  S133  1  0.56837756  0.16512701  0.37365821  1
  S  S134  1  0.56394625  0.17706468  0.70421873  1
  S  S135  1  0.56274710  0.67237215  0.04382502  1
  S  S136  1  0.56763177  0.66974530  0.37492811  1
  S  S137  1  0.57159830  0.67544496  0.71010542  1
  S  S138  1  0.32955539  0.43134761  0.13028163  1
  S  S139  1  0.33860367  0.44075814  0.46366088  1
  S  S140  1  0.33623188  0.42846171  0.79122000  1
  S  S141  1  0.32570747  0.93185258  0.12204101  1
  S  S142  1  0.32373162  0.92946283  0.45450762  1
  S  S143  1  0.32574259  0.93088127  0.78841064  1
  S  S144  1  0.83062991  0.44057658  0.11988334  1
  S  S145  1  0.83519757  0.43394665  0.45772468  1
  S  S146  1  0.83657265  0.43825019  0.78955367  1
  S  S147  1  0.83812336  0.92075729  0.13094980  1
  S  S148  1  0.82896098  0.92978465  0.45755215  1
  S  S149  1  0.83287043  0.93752185  0.78842429  1
  S  S150  1  0.43947473  0.33130202  0.29026905  1
  S  S151  1  0.43161590  0.32900153  0.62880993  1
  S  S152  1  0.42566592  0.31956246  0.95150640  1
  S  S153  1  0.42976717  0.83088974  0.29038114  1
  S  S154  1  0.43469564  0.83347574  0.62599498  1
  S  S155  1  0.42317506  0.82390321  0.95573878  1
  S  S156  1  0.93243702  0.33063127  0.28920624  1
  S  S157  1  0.93532622  0.32986998  0.62153362  1
  S  S158  1  0.93531523  0.33690202  0.95836974  1
  S  S159  1  0.92776552  0.82661221  0.29367446  1
  S  S160  1  0.93294380  0.83259889  0.62429878  1
  S  S161  1  0.93844744  0.82841521  0.95893024  1
  S  S162  1  0.16705098  0.06986452  0.20653704  1
  S  S163  1  0.16856947  0.06316842  0.54263352  1
  S  S164  1  0.16578463  0.06821266  0.87475014  1
  S  S165  1  0.17038961  0.55630259  0.21168897  1
  S  S166  1  0.17198695  0.56188758  0.54370794  1
  S  S167  1  0.15930084  0.56346869  0.87514828  1
  S  S168  1  0.67243019  0.06535724  0.21336507  1
  S  S169  1  0.67029344  0.07060458  0.54233443  1
  S  S170  1  0.66921074  0.06835076  0.87057027  1
  S  S171  1  0.67022032  0.56841590  0.20923162  1
  S  S172  1  0.67490246  0.57276811  0.54401820  1
  S  S173  1  0.67150642  0.57562745  0.87473603  1
  O  O174  1  0.36469381  0.21795938  0.07791803  1
  O  O175  1  0.36785664  0.20981841  0.40104724  1
  O  O176  1  0.36829922  0.22164731  0.74390379  1
  O  O177  1  0.36338069  0.72743611  0.08656211  1
  O  O178  1  0.37013530  0.72408172  0.40751145  1
  O  O179  1  0.37727989  0.71589483  0.74115801  1
  O  O180  1  0.86343420  0.21371144  0.06959544  1
  O  O181  1  0.86808404  0.22063393  0.41219377  1
  O  O182  1  0.87086019  0.21647900  0.73485097  1
  O  O183  1  0.86759129  0.71650307  0.06837291  1
  O  O184  1  0.86838839  0.71833309  0.41053186  1
  O  O185  1  0.86510802  0.72288712  0.74254793  1
  O  O186  1  0.27881010  0.12759356  0.09355786  1
  O  O187  1  0.28496409  0.12269864  0.42832693  1
  O  O188  1  0.27365026  0.13320297  0.74977212  1
  O  O189  1  0.27978958  0.63120796  0.09619166  1
  O  O190  1  0.27812455  0.63928184  0.42203685  1
  O  O191  1  0.29193199  0.63275834  0.76829762  1
  O  O192  1  0.79220597  0.11586407  0.09446532  1
  O  O193  1  0.78306362  0.13046301  0.42989181  1
  O  O194  1  0.77882620  0.13030828  0.74731857  1
  O  O195  1  0.77483442  0.63465055  0.08560201  1
  O  O196  1  0.78128298  0.62969692  0.42507879  1
  O  O197  1  0.77615342  0.63221061  0.75280403  1
  O  O198  1  0.13237732  0.28069605  0.26576605  1
  O  O199  1  0.13123680  0.27355312  0.58367136  1
  O  O200  1  0.12350549  0.27867145  0.92343008  1
  O  O201  1  0.13728994  0.78887806  0.26808002  1
  O  O202  1  0.12838958  0.78188382  0.59394340  1
  O  O203  1  0.13287150  0.77904746  0.92238350  1
  O  O204  1  0.63412428  0.28362398  0.25777448  1
  O  O205  1  0.63857875  0.28062646  0.59138780  1
  O  O206  1  0.63988408  0.29489950  0.93502120  1
  O  O207  1  0.62772705  0.77812553  0.25581548  1
  O  O208  1  0.63178967  0.77871500  0.58428170  1
  O  O209  1  0.62216307  0.78014619  0.93091779  1
  O  O210  1  0.23121993  0.36658916  0.26108922  1
  O  O211  1  0.22082084  0.36802266  0.57839338  1
  O  O212  1  0.21336823  0.36270629  0.90455880  1
  O  O213  1  0.21768002  0.87480457  0.24028364  1
  O  O214  1  0.21778128  0.86820173  0.57752403  1
  O  O215  1  0.21956804  0.86876795  0.90622534  1
  O  O216  1  0.72228379  0.37065990  0.24143659  1
  O  O217  1  0.73070371  0.36951647  0.58228435  1
  O  O218  1  0.71323907  0.38388076  0.90131680  1
  O  O219  1  0.71688315  0.86738961  0.24332305  1
  O  O220  1  0.71659328  0.86884808  0.56781665  1
  O  O221  1  0.70962236  0.85603923  0.90098765  1
  O  O222  1  0.41733027  0.13044569  0.15296861  1
  O  O223  1  0.42352981  0.12972175  0.48269408  1
  O  O224  1  0.41134546  0.12414425  0.80925393  1
  O  O225  1  0.41777754  0.63376743  0.15276823  1
  O  O226  1  0.41504838  0.64313285  0.48978245  1
  O  O227  1  0.43020517  0.62494003  0.81290780  1
  O  O228  1  0.92996145  0.13442444  0.15015074  1
  O  O229  1  0.92084029  0.13249464  0.48597550  1
  O  O230  1  0.91556965  0.13362362  0.81728679  1
  O  O231  1  0.91241593  0.63030588  0.14605991  1
  O  O232  1  0.91910984  0.62975195  0.48444629  1
  O  O233  1  0.91323951  0.63456062  0.81740195  1
  O  O234  1  0.36383524  0.08049654  0.01590505  1
  O  O235  1  0.36982638  0.07091853  0.34960708  1
  O  O236  1  0.36048891  0.08406141  0.67405391  1
  O  O237  1  0.36410034  0.59225759  0.01561428  1
  O  O238  1  0.37043131  0.58591923  0.35308471  1
  O  O239  1  0.36535548  0.57773916  0.68011116  1
  O  O240  1  0.87974570  0.07796126  0.01590323  1
  O  O241  1  0.86640822  0.08287463  0.34931110  1
  O  O242  1  0.87416868  0.07814016  0.68207129  1
  O  O243  1  0.86302810  0.57864515  0.01102549  1
  O  O244  1  0.86768153  0.58091883  0.34790485  1
  O  O245  1  0.86753501  0.58529624  0.68089794  1
  O  O246  1  0.09711488  0.36726775  0.18766078  1
  O  O247  1  0.08381062  0.36420619  0.51103677  1
  O  O248  1  0.07538717  0.36761248  0.84838973  1
  O  O249  1  0.07976915  0.86349081  0.18219041  1
  O  O250  1  0.07993051  0.86900227  0.51722763  1
  O  O251  1  0.08177487  0.86676216  0.84747463  1
  O  O252  1  0.58374654  0.37435063  0.18415387  1
  O  O253  1  0.59279037  0.37325616  0.52202466  1
  O  O254  1  0.57582922  0.36324691  0.84518807  1
  O  O255  1  0.57859244  0.86757170  0.18231112  1
  O  O256  1  0.57844375  0.86810088  0.51270168  1
  O  O257  1  0.57228441  0.86831132  0.85444699  1
  O  O258  1  0.13241413  0.41880468  0.32273581  1
  O  O259  1  0.12596883  0.41026354  0.64708668  1
  O  O260  1  0.13049149  0.41689483  0.98355054  1
  O  O261  1  0.12882044  0.92730934  0.31581408  1
  O  O262  1  0.12957083  0.92034594  0.65235131  1
  O  O263  1  0.13384486  0.91640954  0.98402785  1
  O  O264  1  0.63675396  0.42134903  0.31928741  1
  O  O265  1  0.64522355  0.41743481  0.65918520  1
  O  O266  1  0.62554396  0.43160670  0.97831130  1
  O  O267  1  0.63018379  0.91576360  0.31891369  1
  O  O268  1  0.63463125  0.91627248  0.64944103  1
  O  O269  1  0.63837214  0.91898144  0.98838287  1
  O  O270  1  0.04731915  0.19900516  0.10724545  1
  O  O271  1  0.02619994  0.19663845  0.43383081  1
  O  O272  1  0.02900906  0.19799867  0.76876394  1
  O  O273  1  0.03230714  0.69488928  0.10268885  1
  O  O274  1  0.03259050  0.69733975  0.44503523  1
  O  O275  1  0.02200007  0.70593779  0.77066154  1
  O  O276  1  0.52839591  0.21194890  0.11315066  1
  O  O277  1  0.53794404  0.19439529  0.43650831  1
  O  O278  1  0.52359850  0.20363519  0.76237563  1
  O  O279  1  0.52443400  0.70281639  0.10396906  1
  O  O280  1  0.53211871  0.69782221  0.43628299  1
  O  O281  1  0.53762564  0.70767379  0.77203687  1
  O  O282  1  0.30082466  0.46846172  0.07173032  1
  O  O283  1  0.29978639  0.48149694  0.40429592  1
  O  O284  1  0.31963378  0.45948362  0.72709130  1
  O  O285  1  0.29607649  0.96673238  0.06010368  1
  O  O286  1  0.29085851  0.96371257  0.39286473  1
  O  O287  1  0.29558021  0.96970768  0.72825662  1
  O  O288  1  0.78983122  0.47433123  0.05809611  1
  O  O289  1  0.80549833  0.46921163  0.39592211  1
  O  O290  1  0.80810475  0.47581061  0.72963167  1
  O  O291  1  0.81966680  0.94577209  0.06539234  1
  O  O292  1  0.80033794  0.96604475  0.39688669  1
  O  O293  1  0.80053393  0.96391169  0.72040383  1
  O  O294  1  0.47350521  0.30084351  0.22581036  1
  O  O295  1  0.47332923  0.30627554  0.57342382  1
  O  O296  1  0.46643891  0.29506176  0.89316426  1
  O  O297  1  0.46926834  0.80220855  0.23176266  1
  O  O298  1  0.47230954  0.80518219  0.56501276  1
  O  O299  1  0.45856146  0.79329772  0.89420609  1
  O  O300  1  0.96974137  0.30370933  0.23084353  1
  O  O301  1  0.97267784  0.30028549  0.56153908  1
  O  O302  1  0.96061152  0.29878212  0.88894002  1
  O  O303  1  0.96249712  0.80030921  0.23342313  1
  O  O304  1  0.96705196  0.79924585  0.56248870  1
  O  O305  1  0.97451359  0.79362638  0.89722549  1
  O  O306  1  0.19952891  0.03638003  0.26993575  1
  O  O307  1  0.19752158  0.02406713  0.60200527  1
  O  O308  1  0.19622670  0.03135697  0.93528673  1
  O  O309  1  0.21112344  0.52392985  0.27386903  1
  O  O310  1  0.20281109  0.52703507  0.60404919  1
  O  O311  1  0.18407461  0.53732497  0.94191537  1
  O  O312  1  0.70396188  0.03214601  0.27949974  1
  O  O313  1  0.69700654  0.03107048  0.60158005  1
  O  O314  1  0.69910125  0.02946579  0.92640192  1
  O  O315  1  0.70418889  0.53200395  0.27014108  1
  O  O316  1  0.70391951  0.53299789  0.60286093  1
  O  O317  1  0.70025058  0.54243435  0.93720695  1
  O  O318  1  0.08627622  0.08430514  0.02880473  1
  O  O319  1  0.07813602  0.08317339  0.36719831  1
  O  O320  1  0.08159852  0.08578103  0.70196369  1
  O  O321  1  0.08612311  0.58394911  0.03971436  1
  O  O322  1  0.09021378  0.58655018  0.38098440  1
  O  O323  1  0.06488667  0.58643857  0.70583209  1
  O  O324  1  0.61160684  0.11437793  0.07776685  1
  O  O325  1  0.58111888  0.08018127  0.36321233  1
  O  O326  1  0.58223136  0.09586270  0.70067807  1
  O  O327  1  0.58162929  0.59198712  0.04248975  1
  O  O328  1  0.58857729  0.58881919  0.36781229  1
  O  O329  1  0.58949303  0.59473732  0.70751928  1
  O  O330  1  0.41087093  0.41107370  0.13404974  1
  O  O331  1  0.41972452  0.44026005  0.46942198  1
  O  O332  1  0.41720082  0.40099856  0.80378318  1
  O  O333  1  0.40689543  0.91224183  0.12723262  1
  O  O334  1  0.40569510  0.91468922  0.45692720  1
  O  O335  1  0.40536714  0.91146316  0.79007954  1
  O  O336  1  0.91231145  0.43676992  0.12149691  1
  O  O337  1  0.91789887  0.41763626  0.46503297  1
  O  O338  1  0.91973784  0.42180771  0.79515873  1
  O  O339  1  0.92258956  0.90236964  0.14914610  1
  O  O340  1  0.90988139  0.90963292  0.46503652  1
  O  O341  1  0.91509016  0.91690609  0.79171328  1
  O  O342  1  0.42433906  0.41447786  0.29499651  1
  O  O343  1  0.40890129  0.40984094  0.63454105  1
  O  O344  1  0.39655944  0.39455787  0.95475487  1
  O  O345  1  0.41121267  0.91233337  0.29521818  1
  O  O346  1  0.41415244  0.91436624  0.63083610  1
  O  O347  1  0.40213272  0.90296816  0.95766643  1
  O  O348  1  0.91603013  0.41444973  0.29542203  1
  O  O349  1  0.91847931  0.41224208  0.62661979  1
  O  O350  1  0.91969877  0.41964840  0.95825025  1
  O  O351  1  0.90861103  0.90882170  0.30399673  1
  O  O352  1  0.91808256  0.91515266  0.62811691  1
  O  O353  1  0.93000714  0.91021980  0.96443015  1
  O  O354  1  0.08579731  0.08666858  0.20239109  1
  O  O355  1  0.08722282  0.08105033  0.54091817  1
  O  O356  1  0.08408742  0.08690951  0.86988847  1
  O  O357  1  0.08817620  0.55985720  0.20850103  1
  O  O358  1  0.08921400  0.57985702  0.54186121  1
  O  O359  1  0.07463062  0.58278694  0.86493605  1
  O  O360  1  0.59376777  0.08961794  0.21490536  1
  O  O361  1  0.59048458  0.09189092  0.53510797  1
  O  O362  1  0.58688466  0.08208498  0.86274334  1
  O  O363  1  0.59028177  0.58634778  0.21029139  1
  O  O364  1  0.59671129  0.59537975  0.54191955  1
  O  O365  1  0.58884933  0.59143010  0.86562674  1
  O  O366  1  0.14369464  0.21660165  0.04907268  1
  O  O367  1  0.13773401  0.21362938  0.39171593  1
  O  O368  1  0.13757991  0.22009771  0.72480839  1
  O  O369  1  0.13812605  0.71714874  0.05533303  1
  O  O370  1  0.13658323  0.72077812  0.39771916  1
  O  O371  1  0.13313677  0.71470575  0.72684358  1
  O  O372  1  0.63291964  0.24224368  0.06726494  1
  O  O373  1  0.64155257  0.21293446  0.38622484  1
  O  O374  1  0.63493015  0.22995567  0.72327486  1
  O  O375  1  0.63310346  0.72558908  0.06105500  1
  O  O376  1  0.63790584  0.72389044  0.39078841  1
  O  O377  1  0.64255172  0.72707257  0.72292269  1
  O  O378  1  0.27711743  0.35996694  0.11490057  1
  O  O379  1  0.29273618  0.36588040  0.44339048  1
  O  O380  1  0.27797424  0.36022474  0.77182022  1
  O  O381  1  0.27245153  0.86220306  0.10779947  1
  O  O382  1  0.27476505  0.85720357  0.44148545  1
  O  O383  1  0.27199171  0.86157269  0.77271052  1
  O  O384  1  0.78716862  0.36539245  0.10644669  1
  O  O385  1  0.78378924  0.36260220  0.44243201  1
  O  O386  1  0.78670702  0.36607103  0.77263108  1
  O  O387  1  0.78467583  0.85200207  0.12043093  1
  O  O388  1  0.77499001  0.85968675  0.44166825  1
  O  O389  1  0.78278037  0.86667121  0.77796579  1
  O  O390  1  0.36509869  0.28292824  0.26983606  1
  O  O391  1  0.36346577  0.27285455  0.61085588  1
  O  O392  1  0.36070025  0.25772153  0.93366535  1
  O  O393  1  0.35906791  0.77760247  0.27292928  1
  O  O394  1  0.36525421  0.77914856  0.60884405  1
  O  O395  1  0.35369176  0.76955648  0.94163374  1
  O  O396  1  0.86034037  0.28051225  0.27464821  1
  O  O397  1  0.86443351  0.27790154  0.60534607  1
  O  O398  1  0.86300515  0.29193189  0.94949068  1
  O  O399  1  0.85653766  0.77395524  0.27854285  1
  O  O400  1  0.86001449  0.78376430  0.60998990  1
  O  O401  1  0.86317372  0.78020695  0.93894309  1
  O  O402  1  0.21848263  0.13886136  0.21761842  1
  O  O403  1  0.22027092  0.13399540  0.55977194  1
  O  O404  1  0.21810712  0.13774997  0.88823071  1
  O  O405  1  0.21314158  0.63395279  0.22755183  1
  O  O406  1  0.22060019  0.63258874  0.55389938  1
  O  O407  1  0.20907974  0.63512594  0.88724737  1
  O  O408  1  0.72732800  0.13509639  0.23014257  1
  O  O409  1  0.72713795  0.13969711  0.56188845  1
  O  O410  1  0.71903120  0.14075569  0.88447722  1
  O  O411  1  0.72146276  0.64012597  0.22422927  1
  O  O412  1  0.73114411  0.64232735  0.56178796  1
  O  O413  1  0.72286526  0.64720057  0.88923143  1
  O  O414  1  0.48535458  0.32365465  0.02503068  1
  O  O415  1  0.49705783  0.32890309  0.35859674  1
  O  O416  1  0.48866522  0.33489638  0.70554453  1
  O  O417  1  0.48401419  0.82849972  0.02827010  1
  O  O418  1  0.48818761  0.83393869  0.36396183  1
  O  O419  1  0.49448996  0.83651694  0.69824756  1
  O  O420  1  1.00017697  0.34156609  0.02492745  1
  O  O421  1  0.99067715  0.33614166  0.36437134  1
  O  O422  1  0.99366842  0.33379464  0.69546023  1
  O  O423  1  0.99276344  0.82352890  0.03107214  1
  O  O424  1  0.98814309  0.82667446  0.36557616  1
  O  O425  1  0.99201905  0.83515671  0.69670330  1
  O  O426  1  0.16392092  0.00648923  0.13521088  1
  O  O427  1  0.16416331  0.00571956  0.46876654  1
  O  O428  1  0.16085461  0.00731206  0.80149416  1
  O  O429  1  0.17377991  0.50258603  0.13823268  1
  O  O430  1  0.16215581  0.50127701  0.46909583  1
  O  O431  1  0.15586151  0.50059623  0.80672673  1
  O  O432  1  0.66803180  0.00258314  0.14595791  1
  O  O433  1  0.66974730  0.01087584  0.47003386  1
  O  O434  1  0.66789837  0.01107103  0.79363830  1
  O  O435  1  0.66572380  0.51037078  0.13605135  1
  O  O436  1  0.67232225  0.51426883  0.47102752  1
  O  O437  1  0.67192834  0.51449923  0.80388328  1
  O  O438  1  0.00560598  0.16733962  0.30165729  1
  O  O439  1  0.00776105  0.16693260  0.63514352  1
  O  O440  1  0.00706494  0.16831689  0.97174378  1
  O  O441  1  0.00638580  0.66001112  0.31038522  1
  O  O442  1  0.00320226  0.67121815  0.63677892  1
  O  O443  1  0.00772841  0.65998224  0.96814867  1
  O  O444  1  0.50774518  0.16471629  0.30169791  1
  O  O445  1  0.50732319  0.17326799  0.63010422  1
  O  O446  1  0.51604893  0.15261026  0.98169295  1
  O  O447  1  0.50714430  0.66765432  0.30306897  1
  O  O448  1  0.51137203  0.67214872  0.63779612  1
  O  O449  1  0.50384418  0.66608662  0.97035452  1
  O  O450  1  0.33637999  0.48938282  0.20548290  1
  O  O451  1  0.32826557  0.49463984  0.53625281  1
  O  O452  1  0.33886855  0.49090011  0.85955644  1
  O  O453  1  0.33134698  0.99330883  0.19440750  1
  O  O454  1  0.32667450  0.98860708  0.52715568  1
  O  O455  1  0.32932322  0.99101423  0.86119069  1
  O  O456  1  0.82961747  0.49721685  0.19362391  1
  O  O457  1  0.83551416  0.49383183  0.52955324  1
  O  O458  1  0.83788171  0.49628536  0.86219603  1
  O  O459  1  0.83726117  0.98565820  0.20057927  1
  O  O460  1  0.83087737  0.99058360  0.52966811  1
  O  O461  1  0.83919362  1.00188395  0.85608486  1
