# generated using pymatgen
data_Na31Fe20(SO4)36
_symmetry_space_group_name_H-M   'P 1'
_cell_length_a   18.08386380
_cell_length_b   18.07732925
_cell_length_c   19.70356535
_cell_angle_alpha   107.60353809
_cell_angle_beta   107.61957738
_cell_angle_gamma   90.71431828
_symmetry_Int_Tables_number   1
_chemical_formula_structural   Na31Fe20(SO4)36
_chemical_formula_sum   'Na62 Fe40 S72 O288'
_cell_volume   5813.11618688
_cell_formula_units_Z   2
loop_
 _symmetry_equiv_pos_site_id
 _symmetry_equiv_pos_as_xyz
  1  'x, y, z'
loop_
 _atom_site_type_symbol
 _atom_site_label
 _atom_site_symmetry_multiplicity
 _atom_site_fract_x
 _atom_site_fract_y
 _atom_site_fract_z
 _atom_site_occupancy
  Na  Na0  1  0.12991610  0.36628334  0.08328321  1
  Na  Na1  1  0.12841297  0.36666280  0.40926751  1
  Na  Na2  1  0.13386049  0.37427426  0.74957086  1
  Na  Na3  1  0.13160722  0.86657098  0.08516161  1
  Na  Na4  1  0.12528379  0.86708088  0.41199216  1
  Na  Na5  1  0.12361323  0.86336394  0.74109120  1
  Na  Na6  1  0.68158282  0.38205197  0.13393651  1
  Na  Na7  1  0.65897496  0.37479883  0.43610842  1
  Na  Na8  1  0.63538763  0.35071054  0.74211631  1
  Na  Na9  1  0.63537144  0.86578868  0.08393379  1
  Na  Na10  1  0.63090814  0.87562299  0.41975493  1
  Na  Na11  1  0.63190558  0.85510053  0.73859135  1
  Na  Na12  1  0.36197956  0.13747160  0.24485282  1
  Na  Na13  1  0.36910239  0.13709169  0.59049025  1
  Na  Na14  1  0.36761073  0.13801554  0.91890929  1
  Na  Na15  1  0.37556188  0.62934621  0.25402138  1
  Na  Na16  1  0.35863166  0.63262748  0.58367016  1
  Na  Na17  1  0.36274564  0.62929647  0.91044396  1
  Na  Na18  1  0.85883399  0.14663330  0.24548525  1
  Na  Na19  1  0.86555169  0.13579100  0.58761450  1
  Na  Na20  1  0.86834242  0.14415886  0.92958249  1
  Na  Na21  1  0.86106492  0.63666090  0.25572611  1
  Na  Na22  1  0.85584068  0.63123805  0.57688739  1
  Na  Na23  1  0.86111084  0.63131251  0.91115380  1
  Na  Na24  1  0.54090148  0.48996876  0.37449880  1
  Na  Na25  1  0.95600079  0.52377608  0.41241593  1
  Na  Na26  1  0.97912915  0.51150696  0.62468533  1
  Na  Na27  1  0.50854417  0.47792540  0.10556294  1
  Na  Na28  1  0.99032445  0.01754721  0.08243200  1
  Na  Na29  1  0.49307933  0.01050553  0.08502929  1
  Na  Na30  1  0.49938338  0.48383233  0.74767723  1
  Na  Na31  1  0.49469588  0.01779703  0.74344075  1
  Na  Na32  1  0.98696544  0.54718920  0.19850073  1
  Na  Na33  1  0.00225569  1.00423050  0.88965424  1
  Na  Na34  1  0.50851981  0.99481423  0.26556454  1
  Na  Na35  1  0.00179869  0.98181885  0.26659231  1
  Na  Na36  1  0.00696576  0.48954118  0.91560048  1
  Na  Na37  1  0.51243183  0.99837849  0.55971592  1
  Na  Na38  1  0.00220529  0.98714718  0.58962890  1
  Na  Na39  1  0.51163434  0.45155252  0.91229920  1
  Na  Na40  1  0.50842979  0.99504272  0.91291023  1
  Na  Na41  1  0.52214006  0.49583546  0.57203277  1
  Na  Na42  1  0.22890306  0.73605827  0.33693595  1
  Na  Na43  1  0.74932119  0.74788403  -0.00171797  1
  Na  Na44  1  0.75635930  0.25652984  0.00991446  1
  Na  Na45  1  0.26547322  0.26058992  0.66578922  1
  Na  Na46  1  0.24369748  0.24265145  0.01217739  1
  Na  Na47  1  0.24024894  0.74344051  0.00593131  1
  Na  Na48  1  0.73559976  0.73436098  0.34355303  1
  Na  Na49  1  0.25800355  0.25968057  0.32181035  1
  Na  Na50  1  0.21568023  0.71751509  0.66575588  1
  Na  Na51  1  0.76802310  0.29204468  0.32450874  1
  Na  Na52  1  0.22859028  0.72870467  0.83390182  1
  Na  Na53  1  0.25760857  0.25781319  0.49460333  1
  Na  Na54  1  0.74587454  0.74659262  0.16924957  1
  Na  Na55  1  0.26123463  0.25800811  0.82836152  1
  Na  Na56  1  0.76040391  0.25667627  0.82559633  1
  Na  Na57  1  0.73379553  0.73684882  0.51427188  1
  Na  Na58  1  0.23563235  0.73915182  0.17648520  1
  Na  Na59  1  0.75703273  0.75353060  0.81666132  1
  Na  Na60  1  0.75912362  0.26104504  0.50923210  1
  Na  Na61  1  0.22554739  0.73433558  0.50531977  1
  Fe  Fe62  1  0.46526778  0.80821582  0.11592785  1
  Fe  Fe63  1  0.96866959  0.80010035  0.12466590  1
  Fe  Fe64  1  0.95785120  0.80485336  0.78123744  1
  Fe  Fe65  1  0.46352927  0.80502210  0.77973215  1
  Fe  Fe66  1  0.96363751  0.30440516  0.78233452  1
  Fe  Fe67  1  0.97350807  0.30898613  0.45975341  1
  Fe  Fe68  1  0.46685708  0.30623712  0.12510926  1
  Fe  Fe69  1  0.46431589  0.30689927  0.45242514  1
  Fe  Fe70  1  0.45821210  0.80720746  0.44563506  1
  Fe  Fe71  1  0.96759421  0.80032564  0.45638910  1
  Fe  Fe72  1  0.19343437  0.53610574  0.04806944  1
  Fe  Fe73  1  0.19591569  0.03315868  0.71454613  1
  Fe  Fe74  1  0.18257145  0.53346104  0.37314921  1
  Fe  Fe75  1  0.69282161  0.03499201  0.05061926  1
  Fe  Fe76  1  0.69430421  0.03602645  0.71501887  1
  Fe  Fe77  1  0.19324473  0.03712089  0.38206535  1
  Fe  Fe78  1  0.19381873  0.03365999  0.04799334  1
  Fe  Fe79  1  0.69249857  0.53392689  0.04585277  1
  Fe  Fe80  1  0.69851696  0.04125138  0.38684906  1
  Fe  Fe81  1  0.70198393  0.52685292  0.71160356  1
  Fe  Fe82  1  0.53484367  0.20085824  0.88247782  1
  Fe  Fe83  1  0.53307317  0.19355719  0.54853347  1
  Fe  Fe84  1  0.52956834  0.69217643  0.54308171  1
  Fe  Fe85  1  0.53335732  0.69644378  0.21240162  1
  Fe  Fe86  1  0.53774697  0.19258117  0.21810925  1
  Fe  Fe87  1  0.03335765  0.68464420  0.87416880  1
  Fe  Fe88  1  0.03504617  0.19219298  0.88081204  1
  Fe  Fe89  1  0.03820296  0.18651342  0.54704796  1
  Fe  Fe90  1  0.03349594  0.19991500  0.21256434  1
  Fe  Fe91  1  0.53326442  0.68808482  0.87498769  1
  Fe  Fe92  1  0.30873195  0.46633440  0.95292573  1
  Fe  Fe93  1  0.30680710  0.96356146  0.61539251  1
  Fe  Fe94  1  0.30973534  0.46161658  0.28774750  1
  Fe  Fe95  1  0.30027064  0.46814146  0.62395843  1
  Fe  Fe96  1  0.30484612  0.96237010  0.94643814  1
  Fe  Fe97  1  0.80646620  0.96343338  0.61967159  1
  Fe  Fe98  1  0.82029897  0.46281278  0.95907812  1
  Fe  Fe99  1  0.81049943  0.96903370  0.29205225  1
  Fe  Fe100  1  0.30769088  0.96812745  0.28410959  1
  Fe  Fe101  1  0.80463031  0.96184820  0.95094777  1
  S  S102  1  0.36453037  0.13496313  0.08220371  1
  S  S103  1  0.36033881  0.13904335  0.41615519  1
  S  S104  1  0.36258621  0.13589335  0.75285389  1
  S  S105  1  0.35894272  0.64448302  0.08257445  1
  S  S106  1  0.35382637  0.64120388  0.41403393  1
  S  S107  1  0.35744153  0.64428600  0.74677055  1
  S  S108  1  0.86041083  0.13386337  0.08263408  1
  S  S109  1  0.86294460  0.14448808  0.41743257  1
  S  S110  1  0.86192509  0.13583504  0.75209747  1
  S  S111  1  0.85450831  0.64309908  0.08044279  1
  S  S112  1  0.85367032  0.65290055  0.41995054  1
  S  S113  1  0.85767060  0.64160278  0.75154529  1
  S  S114  1  0.14584573  0.35643281  0.24811817  1
  S  S115  1  0.14367978  0.35063220  0.58385035  1
  S  S116  1  0.14227963  0.35829023  0.91699206  1
  S  S117  1  0.14207706  0.86347616  0.24819654  1
  S  S118  1  0.13990999  0.86189252  0.58156622  1
  S  S119  1  0.13861837  0.85998297  0.91459212  1
  S  S120  1  0.63358179  0.36118235  0.25728311  1
  S  S121  1  0.63575573  0.35895819  0.58426515  1
  S  S122  1  0.64660528  0.35773654  0.91614962  1
  S  S123  1  0.63891542  0.86524391  0.25075233  1
  S  S124  1  0.63375296  0.86442415  0.58112194  1
  S  S125  1  0.63621926  0.86002835  0.91523203  1
  S  S126  1  0.06844907  0.15583199  0.03666723  1
  S  S127  1  0.06777556  0.16822705  0.37460128  1
  S  S128  1  0.07100165  0.16515639  0.70978160  1
  S  S129  1  0.06688657  0.67205534  0.04101353  1
  S  S130  1  0.06170655  0.67430154  0.37341112  1
  S  S131  1  0.05823008  0.67221447  0.71373692  1
  S  S132  1  0.57008635  0.16871296  0.04287588  1
  S  S133  1  0.56877339  0.17211781  0.37932399  1
  S  S134  1  0.56679346  0.16023136  0.70785146  1
  S  S135  1  0.56555856  0.67220464  0.03856941  1
  S  S136  1  0.56517651  0.68144115  0.37880307  1
  S  S137  1  0.56287426  0.66627881  0.70740539  1
  S  S138  1  0.32831951  0.43222750  0.12271415  1
  S  S139  1  0.33152166  0.43330113  0.46018701  1
  S  S140  1  0.33659908  0.43609634  0.79289921  1
  S  S141  1  0.33341370  0.93415852  0.12241758  1
  S  S142  1  0.32711785  0.93259388  0.45386732  1
  S  S143  1  0.33167079  0.92864463  0.78798456  1
  S  S144  1  0.83802712  0.44448720  0.11975116  1
  S  S145  1  0.84733180  0.43151389  0.46954957  1
  S  S146  1  0.83043930  0.42885310  0.79339720  1
  S  S147  1  0.82880260  0.92887988  0.12606395  1
  S  S148  1  0.82863033  0.93101829  0.45750531  1
  S  S149  1  0.82450400  0.93194285  0.79173211  1
  S  S150  1  0.43224773  0.32613028  0.29283140  1
  S  S151  1  0.43181420  0.32886677  0.62398137  1
  S  S152  1  0.43493948  0.32964829  0.96255362  1
  S  S153  1  0.43060836  0.83387421  0.28618617  1
  S  S154  1  0.42950100  0.83123345  0.61911131  1
  S  S155  1  0.43153432  0.83342038  0.95497843  1
  S  S156  1  0.93857687  0.33127306  0.29513110  1
  S  S157  1  0.94098179  0.32251780  0.62450504  1
  S  S158  1  0.93987865  0.32633612  0.95469904  1
  S  S159  1  0.92962056  0.83456285  0.29433217  1
  S  S160  1  0.93010132  0.83679378  0.62298767  1
  S  S161  1  0.93124708  0.82999701  0.95922458  1
  S  S162  1  0.17018547  0.06923682  0.20950753  1
  S  S163  1  0.17510033  0.06800659  0.54427561  1
  S  S164  1  0.17453432  0.06734531  0.87731379  1
  S  S165  1  0.18047446  0.56910187  0.21258181  1
  S  S166  1  0.16574947  0.55793729  0.53545587  1
  S  S167  1  0.17148782  0.56378710  0.87961957  1
  S  S168  1  0.66831768  0.06659484  0.21156452  1
  S  S169  1  0.67325399  0.07225995  0.54406291  1
  S  S170  1  0.66838660  0.06592003  0.87722185  1
  S  S171  1  0.66322608  0.57423037  0.20464160  1
  S  S172  1  0.65898582  0.56886358  0.54220645  1
  S  S173  1  0.66699632  0.56498631  0.87317554  1
  O  O174  1  0.37311937  0.21354590  0.07354252  1
  O  O175  1  0.36774885  0.21829438  0.40824804  1
  O  O176  1  0.36680344  0.21144955  0.74154338  1
  O  O177  1  0.36945877  0.72270188  0.07230320  1
  O  O178  1  0.36170259  0.71792879  0.40043006  1
  O  O179  1  0.37164813  0.71940394  0.73146321  1
  O  O180  1  0.86665089  0.20635460  0.06633974  1
  O  O181  1  0.87686432  0.22527552  0.41363266  1
  O  O182  1  0.87055279  0.21436175  0.74461014  1
  O  O183  1  0.86822787  0.72342626  0.07441171  1
  O  O184  1  0.87046465  0.73488481  0.41025985  1
  O  O185  1  0.86094991  0.72597910  0.75451385  1
  O  O186  1  0.28705965  0.12459010  0.09127762  1
  O  O187  1  0.28177156  0.13023356  0.42544690  1
  O  O188  1  0.28521244  0.12247003  0.76428330  1
  O  O189  1  0.27883486  0.63826533  0.08885107  1
  O  O190  1  0.27259975  0.63188797  0.41719115  1
  O  O191  1  0.27890979  0.64084614  0.75260260  1
  O  O192  1  0.78366656  0.12104940  0.09413686  1
  O  O193  1  0.78376781  0.13841069  0.42621328  1
  O  O194  1  0.78420786  0.12725419  0.76400103  1
  O  O195  1  0.77035397  0.63773531  0.07811648  1
  O  O196  1  0.77353732  0.65478802  0.42331056  1
  O  O197  1  0.78027247  0.62679332  0.76264337  1
  O  O198  1  0.13510412  0.27861240  0.25981318  1
  O  O199  1  0.13752864  0.26931491  0.58931193  1
  O  O200  1  0.13396376  0.27940912  0.92588330  1
  O  O201  1  0.13988121  0.78579312  0.25555901  1
  O  O202  1  0.13599528  0.78608349  0.59252409  1
  O  O203  1  0.13070244  0.77934984  0.91915559  1
  O  O204  1  0.62534376  0.27709948  0.25777017  1
  O  O205  1  0.62225015  0.28112037  0.59349068  1
  O  O206  1  0.63547590  0.27751785  0.92269796  1
  O  O207  1  0.62949720  0.78686815  0.25932716  1
  O  O208  1  0.62266430  0.78535158  0.58674630  1
  O  O209  1  0.62568608  0.78209233  0.92446997  1
  O  O210  1  0.22992085  0.36430859  0.25063014  1
  O  O211  1  0.22447012  0.36193230  0.57944876  1
  O  O212  1  0.22177703  0.36791607  0.90996790  1
  O  O213  1  0.21784776  0.87880614  0.23449324  1
  O  O214  1  0.21523670  0.87490127  0.56713768  1
  O  O215  1  0.21536425  0.86853389  0.90110939  1
  O  O216  1  0.71128336  0.37463293  0.25262949  1
  O  O217  1  0.71007923  0.36670875  0.57161281  1
  O  O218  1  0.72878458  0.36643937  0.91539139  1
  O  O219  1  0.71704342  0.87435606  0.24186232  1
  O  O220  1  0.71128706  0.87317950  0.57036362  1
  O  O221  1  0.71582960  0.86742572  0.90843497  1
  O  O222  1  0.42571000  0.12609424  0.14924055  1
  O  O223  1  0.41948311  0.13030039  0.48357840  1
  O  O224  1  0.42338481  0.13023416  0.82186555  1
  O  O225  1  0.41573251  0.63893660  0.15253443  1
  O  O226  1  0.40913875  0.64095726  0.48701648  1
  O  O227  1  0.41543611  0.64143327  0.81848891  1
  O  O228  1  0.92233497  0.12902585  0.15122054  1
  O  O229  1  0.92071226  0.13113413  0.48303985  1
  O  O230  1  0.92232635  0.12516951  0.81822714  1
  O  O231  1  0.90597680  0.63552424  0.15001207  1
  O  O232  1  0.90996870  0.64732779  0.48886467  1
  O  O233  1  0.91775877  0.63237084  0.81947697  1
  O  O234  1  0.37331026  0.07551721  0.01391620  1
  O  O235  1  0.36679814  0.08135862  0.34657788  1
  O  O236  1  0.37275847  0.07311549  0.68683011  1
  O  O237  1  0.36816535  0.58421316  0.01635665  1
  O  O238  1  0.36812051  0.57928333  0.35140632  1
  O  O239  1  0.36869952  0.58013846  0.68357357  1
  O  O240  1  0.86982191  0.06796757  0.01749580  1
  O  O241  1  0.86511218  0.08792591  0.34573458  1
  O  O242  1  0.86546284  0.07726112  0.68198529  1
  O  O243  1  0.86481252  0.58597616  0.01233661  1
  O  O244  1  0.86169445  0.59496216  0.35301249  1
  O  O245  1  0.86520339  0.59037539  0.68231892  1
  O  O246  1  0.09270623  0.36084455  0.17857898  1
  O  O247  1  0.08865251  0.35191591  0.50951156  1
  O  O248  1  0.08333656  0.36541266  0.84861581  1
  O  O249  1  0.07853404  0.87126130  0.18217032  1
  O  O250  1  0.07644153  0.86869401  0.51400980  1
  O  O251  1  0.07610583  0.87475128  0.85250335  1
  O  O252  1  0.57425055  0.36932065  0.18721759  1
  O  O253  1  0.57219316  0.37036204  0.51907593  1
  O  O254  1  0.59162924  0.36566731  0.84737062  1
  O  O255  1  0.57883747  0.87232201  0.18201702  1
  O  O256  1  0.57291198  0.87780197  0.51614299  1
  O  O257  1  0.57822534  0.86864916  0.84651481  1
  O  O258  1  0.13578923  0.41687361  0.31511036  1
  O  O259  1  0.12859453  0.40777483  0.64591496  1
  O  O260  1  0.13310542  0.41808011  0.98418839  1
  O  O261  1  0.13400923  0.92301403  0.31692835  1
  O  O262  1  0.13166269  0.92430793  0.64849810  1
  O  O263  1  0.13863031  0.91580315  0.98782263  1
  O  O264  1  0.61978062  0.41160156  0.32462687  1
  O  O265  1  0.62991321  0.41869455  0.65386100  1
  O  O266  1  0.63356634  0.41566763  0.98312362  1
  O  O267  1  0.62981870  0.92576206  0.31772051  1
  O  O268  1  0.62920922  0.92290452  0.65147768  1
  O  O269  1  0.62725191  0.92077072  0.98242232  1
  O  O270  1  0.03675260  0.17907220  0.09911594  1
  O  O271  1  0.03057971  0.19744230  0.43554422  1
  O  O272  1  0.03404884  0.19513395  0.77003461  1
  O  O273  1  0.03148283  0.70037220  0.10081476  1
  O  O274  1  0.02785873  0.70761373  0.43626451  1
  O  O275  1  0.02418792  0.71202000  0.77805585  1
  O  O276  1  0.53444665  0.19818180  0.10422611  1
  O  O277  1  0.52914387  0.19954714  0.43806787  1
  O  O278  1  0.53243589  0.17907224  0.76889190  1
  O  O279  1  0.52945438  0.70314101  0.09998367  1
  O  O280  1  0.52142030  0.71032651  0.43585373  1
  O  O281  1  0.52929911  0.70251707  0.77056365  1
  O  O282  1  0.30197194  0.47398686  0.06475828  1
  O  O283  1  0.30403574  0.47033996  0.39996786  1
  O  O284  1  0.30132201  0.46972588  0.73275646  1
  O  O285  1  0.30188317  0.96609322  0.05854330  1
  O  O286  1  0.29858934  0.96981811  0.39340331  1
  O  O287  1  0.29857553  0.96105014  0.72482746  1
  O  O288  1  0.79352810  0.47691580  0.05501793  1
  O  O289  1  0.83536760  0.45322902  0.40213409  1
  O  O290  1  0.80084883  0.46422125  0.73379643  1
  O  O291  1  0.79565819  0.96109449  0.06254045  1
  O  O292  1  0.80301068  0.97241946  0.39910254  1
  O  O293  1  0.79420652  0.96524133  0.72855165  1
  O  O294  1  0.46345024  0.29135457  0.22865524  1
  O  O295  1  0.45974679  0.29537575  0.55650465  1
  O  O296  1  0.47183982  0.30255645  0.90317013  1
  O  O297  1  0.46817425  0.80225657  0.22581829  1
  O  O298  1  0.46421088  0.80085731  0.55718721  1
  O  O299  1  0.46576863  0.80375718  0.89316648  1
  O  O300  1  0.97859562  0.29663832  0.23936249  1
  O  O301  1  0.98051023  0.29108941  0.56321422  1
  O  O302  1  0.97105323  0.29234394  0.88797632  1
  O  O303  1  0.97022900  0.81618793  0.23761431  1
  O  O304  1  0.96987546  0.81729308  0.56453308  1
  O  O305  1  0.96921598  0.80269584  0.90000305  1
  O  O306  1  0.20100111  0.03500489  0.27221119  1
  O  O307  1  0.20888725  0.03387143  0.60674697  1
  O  O308  1  0.20396983  0.03056345  0.93876860  1
  O  O309  1  0.20859463  0.52599545  0.26937705  1
  O  O310  1  0.20103664  0.52251833  0.59522593  1
  O  O311  1  0.20584835  0.53099343  0.94489169  1
  O  O312  1  0.70092457  0.03197952  0.27349021  1
  O  O313  1  0.70272191  0.03508837  0.60496370  1
  O  O314  1  0.69866253  0.02775689  0.93716865  1
  O  O315  1  0.68446986  0.54359820  0.26611357  1
  O  O316  1  0.67304081  0.54019493  0.60777228  1
  O  O317  1  0.69450505  0.52858559  0.93340177  1
  O  O318  1  0.08226535  0.06972398  0.02254932  1
  O  O319  1  0.08637236  0.08658298  0.37082996  1
  O  O320  1  0.09051087  0.08403634  0.70602289  1
  O  O321  1  0.08800021  0.59101324  0.03497355  1
  O  O322  1  0.08851464  0.59757511  0.37852601  1
  O  O323  1  0.08344322  0.59913422  0.72475365  1
  O  O324  1  0.58229475  0.08370072  0.03622254  1
  O  O325  1  0.59054255  0.09162661  0.37523205  1
  O  O326  1  0.58180558  0.07457875  0.69114526  1
  O  O327  1  0.58344670  0.59098747  0.03169219  1
  O  O328  1  0.58882521  0.60574443  0.37961004  1
  O  O329  1  0.57523273  0.58452249  0.70494992  1
  O  O330  1  0.40763951  0.40949680  0.12429267  1
  O  O331  1  0.41360008  0.41465504  0.46645735  1
  O  O332  1  0.41915457  0.42602881  0.79946694  1
  O  O333  1  0.41726715  0.92070332  0.12962017  1
  O  O334  1  0.40796596  0.91231739  0.45758312  1
  O  O335  1  0.41527769  0.91553886  0.79292917  1
  O  O336  1  0.91591099  0.43457202  0.11330861  1
  O  O337  1  0.93182169  0.40554565  0.49018256  1
  O  O338  1  0.91215824  0.40927421  0.79837628  1
  O  O339  1  0.91082397  0.91287054  0.13157814  1
  O  O340  1  0.90827818  0.90695172  0.46282159  1
  O  O341  1  0.90423346  0.90941903  0.79443337  1
  O  O342  1  0.41482754  0.40707593  0.29488836  1
  O  O343  1  0.40669750  0.40799281  0.62519934  1
  O  O344  1  0.41757949  0.41278241  0.96919660  1
  O  O345  1  0.41372639  0.91504258  0.28726206  1
  O  O346  1  0.41614395  0.91507450  0.62685459  1
  O  O347  1  0.41685941  0.91722587  0.96183710  1
  O  O348  1  0.93248402  0.41316214  0.30398500  1
  O  O349  1  0.92472048  0.40165398  0.63128144  1
  O  O350  1  0.92312195  0.40751079  0.95497012  1
  O  O351  1  0.91378777  0.91886979  0.30827790  1
  O  O352  1  0.91427658  0.92083836  0.63518187  1
  O  O353  1  0.91381410  0.91293164  0.96615021  1
  O  O354  1  0.08870215  0.08684985  0.20407482  1
  O  O355  1  0.09458630  0.08423404  0.54319835  1
  O  O356  1  0.09386287  0.08643797  0.87282711  1
  O  O357  1  0.10711259  0.59807359  0.21638490  1
  O  O358  1  0.08519524  0.57070505  0.53007532  1
  O  O359  1  0.09239760  0.58475062  0.88250792  1
  O  O360  1  0.58495447  0.08002352  0.20719815  1
  O  O361  1  0.59184425  0.08986084  0.54019992  1
  O  O362  1  0.58598594  0.08176105  0.87290691  1
  O  O363  1  0.57930542  0.59463831  0.18842953  1
  O  O364  1  0.57405999  0.58906650  0.52514696  1
  O  O365  1  0.58304702  0.58055522  0.86424234  1
  O  O366  1  0.14009625  0.20408215  0.04935535  1
  O  O367  1  0.13938640  0.21984643  0.39146494  1
  O  O368  1  0.14148117  0.21765322  0.72471782  1
  O  O369  1  0.13834245  0.72581272  0.05713625  1
  O  O370  1  0.13122964  0.72979829  0.38825528  1
  O  O371  1  0.12640274  0.72888046  0.72704519  1
  O  O372  1  0.64265140  0.21546180  0.05689135  1
  O  O373  1  0.63743857  0.22675926  0.39600570  1
  O  O374  1  0.63887385  0.21060368  0.72591919  1
  O  O375  1  0.63626733  0.72584049  0.05550307  1
  O  O376  1  0.63192876  0.74113023  0.39888886  1
  O  O377  1  0.63476592  0.71556525  0.72160219  1
  O  O378  1  0.27246396  0.36342790  0.10337566  1
  O  O379  1  0.27949948  0.36067388  0.44150719  1
  O  O380  1  0.28951042  0.36154189  0.77960889  1
  O  O381  1  0.28511093  0.86194823  0.10925405  1
  O  O382  1  0.27386238  0.86325803  0.43880871  1
  O  O383  1  0.28388841  0.85713542  0.77671466  1
  O  O384  1  0.79212541  0.36994933  0.10549923  1
  O  O385  1  0.79160983  0.36205838  0.45460172  1
  O  O386  1  0.77870868  0.35930921  0.78176787  1
  O  O387  1  0.77761433  0.85764650  0.11251308  1
  O  O388  1  0.77020480  0.86478074  0.43898499  1
  O  O389  1  0.77009960  0.86561982  0.78155822  1
  O  O390  1  0.36342734  0.27497716  0.28251984  1
  O  O391  1  0.36379155  0.27406621  0.61265345  1
  O  O392  1  0.36245383  0.27855137  0.94550624  1
  O  O393  1  0.35922425  0.78316402  0.27079844  1
  O  O394  1  0.35691463  0.78282791  0.60394178  1
  O  O395  1  0.35951908  0.78466525  0.94185586  1
  O  O396  1  0.86468910  0.28197280  0.27598586  1
  O  O397  1  0.87125036  0.26740158  0.60495661  1
  O  O398  1  0.86604143  0.27706472  0.93795421  1
  O  O399  1  0.85697837  0.78272745  0.27167559  1
  O  O400  1  0.85812995  0.78547575  0.60235485  1
  O  O401  1  0.85797993  0.77907002  0.94023513  1
  O  O402  1  0.22296408  0.13809807  0.22267622  1
  O  O403  1  0.22659016  0.13850561  0.55753771  1
  O  O404  1  0.22740724  0.13842362  0.89479906  1
  O  O405  1  0.24107576  0.63494843  0.22990837  1
  O  O406  1  0.21680720  0.63251221  0.55290263  1
  O  O407  1  0.22366986  0.63650905  0.89660219  1
  O  O408  1  0.71623293  0.13805376  0.22434043  1
  O  O409  1  0.72487672  0.14158410  0.55720692  1
  O  O410  1  0.71968266  0.13746444  0.89441274  1
  O  O411  1  0.71507205  0.64498549  0.21583667  1
  O  O412  1  0.71281125  0.63857526  0.56018510  1
  O  O413  1  0.71641523  0.63866257  0.89099822  1
  O  O414  1  0.49265402  0.33298415  0.03652155  1
  O  O415  1  0.49493650  0.33211856  0.36466880  1
  O  O416  1  0.49676539  0.33752658  0.69250536  1
  O  O417  1  0.49209752  0.83648930  0.02774358  1
  O  O418  1  0.48892261  0.83821299  0.35952544  1
  O  O419  1  0.49005621  0.83179059  0.69081329  1
  O  O420  1  0.99991994  0.32543394  0.02212890  1
  O  O421  1  0.99226759  0.32531423  0.37158271  1
  O  O422  1  0.99960980  0.31858229  0.69601184  1
  O  O423  1  0.98809301  0.83137822  0.03269004  1
  O  O424  1  0.98520450  0.82927082  0.36681853  1
  O  O425  1  0.98727681  0.83328573  0.69462947  1
  O  O426  1  0.16710579  0.00718646  0.13740001  1
  O  O427  1  0.17118337  0.00783412  0.47169118  1
  O  O428  1  0.17336381  0.00723124  0.80601925  1
  O  O429  1  0.17274592  0.51129716  0.13702163  1
  O  O430  1  0.17012435  0.50266260  0.46209215  1
  O  O431  1  0.16813596  0.50441963  0.81053978  1
  O  O432  1  0.66365243  0.00569349  0.13821751  1
  O  O433  1  0.66970153  0.01086436  0.47153254  1
  O  O434  1  0.66492725  0.00773331  0.80349511  1
  O  O435  1  0.66056624  0.51177978  0.13135848  1
  O  O436  1  0.65993489  0.50528478  0.47579416  1
  O  O437  1  0.66750439  0.50730551  0.80091951  1
  O  O438  1  0.00916733  0.16416946  0.30176321  1
  O  O439  1  0.01108449  0.15831077  0.63586758  1
  O  O440  1  0.00685457  0.15579142  0.96497261  1
  O  O441  1  0.00221242  0.66265112  0.30076577  1
  O  O442  1  -0.00306358  0.66157334  0.64262952  1
  O  O443  1  0.00848533  0.66870150  0.96706963  1
  O  O444  1  0.50825545  0.16468556  0.30517722  1
  O  O445  1  0.50705319  0.16387288  0.63710747  1
  O  O446  1  0.50985757  0.16657924  0.97028898  1
  O  O447  1  0.50797866  0.67749922  0.30401901  1
  O  O448  1  0.50310460  0.66535176  0.63531087  1
  O  O449  1  0.50579648  0.67210488  0.96682113  1
  O  O450  1  0.33416468  0.48928733  0.19722797  1
  O  O451  1  0.33307574  0.49078221  0.53296299  1
  O  O452  1  0.33557119  0.49275076  0.86734036  1
  O  O453  1  0.33386493  0.99552703  0.19318628  1
  O  O454  1  0.33381326  0.99313772  0.52740875  1
  O  O455  1  0.33567404  0.99077873  0.86016321  1
  O  O456  1  0.83847342  0.50348882  0.18969290  1
  O  O457  1  0.84844942  0.49585414  0.53612740  1
  O  O458  1  0.83708855  0.48986887  0.86816014  1
  O  O459  1  0.83097666  0.99014994  0.19771929  1
  O  O460  1  0.83419981  0.99135136  0.53089705  1
  O  O461  1  0.83342087  0.99535114  0.86426675  1
