# generated using pymatgen
data_Na31Fe20(SO4)36
_symmetry_space_group_name_H-M   'P 1'
_cell_length_a   18.08832781
_cell_length_b   18.07782200
_cell_length_c   19.73182201
_cell_angle_alpha   107.53469993
_cell_angle_beta   107.60153667
_cell_angle_gamma   90.74603559
_symmetry_Int_Tables_number   1
_chemical_formula_structural   Na31Fe20(SO4)36
_chemical_formula_sum   'Na62 Fe40 S72 O288'
_cell_volume   5825.79686541
_cell_formula_units_Z   2
loop_
 _symmetry_equiv_pos_site_id
 _symmetry_equiv_pos_as_xyz
  1  'x, y, z'
loop_
 _atom_site_type_symbol
 _atom_site_label
 _atom_site_symmetry_multiplicity
 _atom_site_fract_x
 _atom_site_fract_y
 _atom_site_fract_z
 _atom_site_occupancy
  Na  Na0  1  0.15132065  0.35501657  0.08612555  1
  Na  Na1  1  0.13210779  0.36151329  0.41355549  1
  Na  Na2  1  0.13651244  0.36765350  0.75351256  1
  Na  Na3  1  0.11948865  0.87697212  0.08217036  1
  Na  Na4  1  0.04892078  0.96582734  0.37659936  1
  Na  Na5  1  0.12571778  0.86685992  0.74933816  1
  Na  Na6  1  0.63770199  0.36687505  0.07805780  1
  Na  Na7  1  0.64158699  0.36285024  0.41351318  1
  Na  Na8  1  0.63548060  0.36878201  0.75150012  1
  Na  Na9  1  0.64369885  0.85780059  0.09780031  1
  Na  Na10  1  0.63437064  0.86931855  0.41873052  1
  Na  Na11  1  0.63433289  0.86850345  0.75374220  1
  Na  Na12  1  0.35770271  0.14096873  0.24694517  1
  Na  Na13  1  0.36845464  0.13116998  0.58366774  1
  Na  Na14  1  0.36579583  0.14809424  0.93032526  1
  Na  Na15  1  0.36567033  0.63773787  0.25297095  1
  Na  Na16  1  0.36743583  0.62738067  0.58059079  1
  Na  Na17  1  0.37155205  0.63169762  0.91461678  1
  Na  Na18  1  0.87202685  0.11275261  0.24911691  1
  Na  Na19  1  0.86594259  0.11626488  0.58135386  1
  Na  Na20  1  0.87503987  0.12595457  0.92087266  1
  Na  Na21  1  0.84905133  0.63607514  0.23035761  1
  Na  Na22  1  0.87062374  0.64483693  0.58739267  1
  Na  Na23  1  0.86425717  0.63813201  0.91873884  1
  Na  Na24  1  0.47625859  0.00798092  0.42356546  1
  Na  Na25  1  0.98359996  0.52363915  0.41293016  1
  Na  Na26  1  0.50713146  0.50083608  0.08616617  1
  Na  Na27  1  0.49504724  0.50013269  0.43517915  1
  Na  Na28  1  0.95834605  -0.00670476  0.74485903  1
  Na  Na29  1  0.50434003  0.00246589  0.06500724  1
  Na  Na30  1  0.49236839  0.53572975  0.75236833  1
  Na  Na31  1  0.98322300  0.51154528  0.08138025  1
  Na  Na32  1  0.98791636  0.52739970  0.74809155  1
  Na  Na33  1  0.56795910  0.50723435  0.94211239  1
  Na  Na34  1  0.01162488  0.48360922  0.24714462  1
  Na  Na35  1  0.50955458  0.99337091  0.24804016  1
  Na  Na36  1  0.00642822  0.49116830  0.91180337  1
  Na  Na37  1  -0.01524530  0.92011373  0.53298459  1
  Na  Na38  1  0.50945924  0.49152009  0.25436308  1
  Na  Na39  1  0.48635492  1.04255511  0.86241047  1
  Na  Na40  1  0.50975291  0.98261898  0.61253374  1
  Na  Na41  1  0.01327473  0.48829545  0.57727821  1
  Na  Na42  1  0.24701142  0.75604672  0.33743812  1
  Na  Na43  1  0.24317784  0.23890539  0.67494036  1
  Na  Na44  1  0.25177762  0.75039169  0.66547714  1
  Na  Na45  1  0.77551418  0.77607590  0.66482073  1
  Na  Na46  1  0.77396276  0.78237832  0.31471111  1
  Na  Na47  1  0.74547722  0.24530967  0.67152702  1
  Na  Na48  1  0.24804822  0.75388705  -0.00236883  1
  Na  Na49  1  0.24120575  0.23786977  0.33561996  1
  Na  Na50  1  0.73470942  0.23604525  0.00440947  1
  Na  Na51  1  0.73199951  0.72704671  0.01552094  1
  Na  Na52  1  0.73986056  0.23963767  0.18314280  1
  Na  Na53  1  0.24596842  0.75597927  0.49541641  1
  Na  Na54  1  0.77565629  0.77796735  0.49209308  1
  Na  Na55  1  0.23808660  0.22970460  0.50363362  1
  Na  Na56  1  0.76044530  0.25865641  0.49306423  1
  Na  Na57  1  0.25085704  0.75255863  0.83250537  1
  Na  Na58  1  0.24511251  0.75239895  0.16559515  1
  Na  Na59  1  0.24333913  0.24172079  0.84669568  1
  Na  Na60  1  0.74349915  0.74825106  0.83613186  1
  Na  Na61  1  0.74015967  0.23827627  0.84227446  1
  Fe  Fe62  1  0.96504519  0.30399759  0.11526658  1
  Fe  Fe63  1  0.96547419  0.30842842  0.78352503  1
  Fe  Fe64  1  0.96020067  0.82149773  0.13029216  1
  Fe  Fe65  1  0.46057316  0.80555612  0.11922189  1
  Fe  Fe66  1  0.47017252  0.80170637  0.79510262  1
  Fe  Fe67  1  0.46784141  0.30768945  0.45240329  1
  Fe  Fe68  1  0.46244362  0.30533566  0.11453008  1
  Fe  Fe69  1  0.95925271  0.30655784  0.44706912  1
  Fe  Fe70  1  0.46654421  0.80574720  0.45716402  1
  Fe  Fe71  1  0.47223554  0.30063649  0.78963249  1
  Fe  Fe72  1  0.69368636  0.53829067  0.38383288  1
  Fe  Fe73  1  0.18536218  0.03983455  0.04504936  1
  Fe  Fe74  1  0.68943382  0.53807072  0.71119233  1
  Fe  Fe75  1  0.19514942  0.53188882  0.04694357  1
  Fe  Fe76  1  0.19528088  0.53052203  0.71317517  1
  Fe  Fe77  1  0.69205223  0.03269430  0.04956801  1
  Fe  Fe78  1  0.70049924  0.03235535  0.71149343  1
  Fe  Fe79  1  0.69772640  0.03383046  0.37667776  1
  Fe  Fe80  1  0.19528964  0.53039350  0.38049275  1
  Fe  Fe81  1  0.18895141  0.03327854  0.71165781  1
  Fe  Fe82  1  0.53284050  0.19415261  0.21380014  1
  Fe  Fe83  1  0.03567376  0.19337903  0.88251971  1
  Fe  Fe84  1  0.03851041  0.69165579  0.21539537  1
  Fe  Fe85  1  0.02680580  0.70655328  0.87843622  1
  Fe  Fe86  1  0.03527471  0.18641978  0.21078960  1
  Fe  Fe87  1  0.53774169  0.69375829  0.55244401  1
  Fe  Fe88  1  0.03108720  0.18377372  0.53937495  1
  Fe  Fe89  1  0.03181413  0.70148750  0.54381469  1
  Fe  Fe90  1  0.53699150  0.19515618  0.54686368  1
  Fe  Fe91  1  0.53603178  0.69155998  0.21790389  1
  Fe  Fe92  1  0.30808525  0.96724004  0.62428317  1
  Fe  Fe93  1  0.80287754  0.47005626  0.95107881  1
  Fe  Fe94  1  0.30922278  0.46479190  0.95165386  1
  Fe  Fe95  1  0.80833557  0.46749950  0.61635784  1
  Fe  Fe96  1  0.29741026  0.96987248  0.29025689  1
  Fe  Fe97  1  0.30751618  0.45978277  0.61761232  1
  Fe  Fe98  1  0.30868874  0.46017431  0.28128546  1
  Fe  Fe99  1  0.80326823  0.46810988  0.28086954  1
  Fe  Fe100  1  0.30301835  0.96734346  0.95577763  1
  Fe  Fe101  1  0.80843849  0.96326032  0.95755126  1
  S  S102  1  0.35861333  0.14057996  0.08394185  1
  S  S103  1  0.36194267  0.14229643  0.41548232  1
  S  S104  1  0.35745147  0.13989048  0.75339736  1
  S  S105  1  0.35793086  0.63891954  0.08582148  1
  S  S106  1  0.36238393  0.63485065  0.41755497  1
  S  S107  1  0.35633022  0.63715536  0.74819938  1
  S  S108  1  0.85795732  0.14107386  0.08459019  1
  S  S109  1  0.85601701  0.14719094  0.41969245  1
  S  S110  1  0.86155502  0.14470896  0.75069557  1
  S  S111  1  0.86774219  0.63805311  0.08094243  1
  S  S112  1  0.85757172  0.64140193  0.41516170  1
  S  S113  1  0.85853034  0.64161849  0.74804131  1
  S  S114  1  0.14100649  0.35708748  0.24809257  1
  S  S115  1  0.13908214  0.35599360  0.58054193  1
  S  S116  1  0.14001554  0.36086160  0.91599688  1
  S  S117  1  0.14191409  0.85546662  0.24985602  1
  S  S118  1  0.14753269  0.85822484  0.58344995  1
  S  S119  1  0.14124190  0.86194602  0.91785080  1
  S  S120  1  0.63641483  0.36312254  0.24928043  1
  S  S121  1  0.64156492  0.36197615  0.58117717  1
  S  S122  1  0.64676932  0.35634864  0.91239378  1
  S  S123  1  0.62991164  0.86414705  0.25415387  1
  S  S124  1  0.64128392  0.85816436  0.58554891  1
  S  S125  1  0.64220237  0.85928838  0.92036704  1
  S  S126  1  0.06724112  0.17261539  0.04354465  1
  S  S127  1  0.06280949  0.17191764  0.37744048  1
  S  S128  1  0.06827800  0.17484364  0.71099793  1
  S  S129  1  0.07169175  0.66235239  0.03706739  1
  S  S130  1  0.07110860  0.65637775  0.37130564  1
  S  S131  1  0.06961108  0.66298211  0.70527692  1
  S  S132  1  0.56535644  0.17071994  0.04372914  1
  S  S133  1  0.57131074  0.17271081  0.37677090  1
  S  S134  1  0.57069343  0.17006954  0.70656365  1
  S  S135  1  0.55843416  0.66886211  0.05058892  1
  S  S136  1  0.56674086  0.66917471  0.38064076  1
  S  S137  1  0.56407462  0.66918747  0.70869386  1
  S  S138  1  0.33660512  0.43564009  0.12651602  1
  S  S139  1  0.32931071  0.42789416  0.45443106  1
  S  S140  1  0.33083367  0.42825753  0.78876239  1
  S  S141  1  0.32668766  0.93320195  0.12705889  1
  S  S142  1  0.34325655  0.93209363  0.46621764  1
  S  S143  1  0.32928423  0.93113284  0.79419232  1
  S  S144  1  0.83317946  0.42923038  0.12153736  1
  S  S145  1  0.83255407  0.43742953  0.45858098  1
  S  S146  1  0.83241613  0.43434661  0.78790807  1
  S  S147  1  0.82209497  0.93170514  0.12000352  1
  S  S148  1  0.82266701  0.93334156  0.44311684  1
  S  S149  1  0.82779131  0.93337362  0.79644814  1
  S  S150  1  0.43582606  0.33470628  0.29368381  1
  S  S151  1  0.43230824  0.32758553  0.62458319  1
  S  S152  1  0.43487527  0.33645212  0.95806816  1
  S  S153  1  0.42587907  0.83013193  0.29333306  1
  S  S154  1  0.42933929  0.82336135  0.62668575  1
  S  S155  1  0.42799096  0.82991044  0.95988915  1
  S  S156  1  0.93248413  0.33582562  0.28993089  1
  S  S157  1  0.93681450  0.33953872  0.62608053  1
  S  S158  1  0.93485218  0.33540598  0.95699685  1
  S  S159  1  0.94305220  0.82423969  0.28641075  1
  S  S160  1  0.94091655  0.83080112  0.62452102  1
  S  S161  1  0.92562947  0.82566959  0.96023989  1
  S  S162  1  0.17132150  0.06827105  0.20958714  1
  S  S163  1  0.17396307  0.06634540  0.54554432  1
  S  S164  1  0.16978774  0.06873886  0.87417975  1
  S  S165  1  0.17276902  0.56329581  0.20937206  1
  S  S166  1  0.16872239  0.56083133  0.54063099  1
  S  S167  1  0.16873786  0.56667760  0.87473084  1
  S  S168  1  0.65731965  0.06538750  0.20610076  1
  S  S169  1  0.66971040  0.07145938  0.53977970  1
  S  S170  1  0.68050769  0.06819170  0.88017083  1
  S  S171  1  0.66421176  0.56432699  0.21264244  1
  S  S172  1  0.67386465  0.57049941  0.54481487  1
  S  S173  1  0.67079144  0.56620479  0.87140842  1
  O  O174  1  0.36984109  0.21680499  0.07162531  1
  O  O175  1  0.37693759  0.21936393  0.40405167  1
  O  O176  1  0.37139724  0.21906787  0.74641983  1
  O  O177  1  0.36255003  0.71892283  0.07921614  1
  O  O178  1  0.37063746  0.71430473  0.41034625  1
  O  O179  1  0.36622672  0.71743963  0.74295368  1
  O  O180  1  0.86749523  0.21717500  0.07070311  1
  O  O181  1  0.86039072  0.23080129  0.42104171  1
  O  O182  1  0.87108347  0.22418296  0.74164341  1
  O  O183  1  0.88322304  0.71446805  0.07046119  1
  O  O184  1  0.86171290  0.71861929  0.40754340  1
  O  O185  1  0.86629681  0.71653999  0.73687043  1
  O  O186  1  0.27967141  0.12941249  0.08871689  1
  O  O187  1  0.28458505  0.13775425  0.42303395  1
  O  O188  1  0.27360959  0.13412428  0.75226693  1
  O  O189  1  0.28056080  0.62768115  0.09716855  1
  O  O190  1  0.28558546  0.62626322  0.43005436  1
  O  O191  1  0.27537367  0.62916671  0.75397763  1
  O  O192  1  0.77747759  0.13394251  0.09063258  1
  O  O193  1  0.77470695  0.13215037  0.42474515  1
  O  O194  1  0.78017434  0.13747739  0.75427894  1
  O  O195  1  0.79148472  0.63170847  0.09025562  1
  O  O196  1  0.78283156  0.62750219  0.43061357  1
  O  O197  1  0.78062295  0.62835226  0.75742579  1
  O  O198  1  0.13056572  0.27910903  0.25700235  1
  O  O199  1  0.12887647  0.27584450  0.58524439  1
  O  O200  1  0.13102400  0.28040930  0.91865662  1
  O  O201  1  0.13820273  0.77142520  0.24962064  1
  O  O202  1  0.13723101  0.77719830  0.58884857  1
  O  O203  1  0.12910182  0.78212120  0.92593360  1
  O  O204  1  0.62779158  0.28439524  0.25674705  1
  O  O205  1  0.63341401  0.28269042  0.58885708  1
  O  O206  1  0.64485989  0.27632521  0.91527784  1
  O  O207  1  0.61565935  0.79089357  0.27141531  1
  O  O208  1  0.62884448  0.78184405  0.59883356  1
  O  O209  1  0.63885736  0.78346675  0.93092576  1
  O  O210  1  0.21980162  0.36804529  0.24168117  1
  O  O211  1  0.21757428  0.36445066  0.57112122  1
  O  O212  1  0.21741254  0.37198128  0.90539583  1
  O  O213  1  0.22174651  0.86830769  0.24203103  1
  O  O214  1  0.23157372  0.86685670  0.58544777  1
  O  O215  1  0.22498856  0.86659970  0.91686856  1
  O  O216  1  0.71417456  0.37278308  0.23898494  1
  O  O217  1  0.71976935  0.37162450  0.57115961  1
  O  O218  1  0.72235786  0.37296112  0.89820687  1
  O  O219  1  0.70442601  0.86634782  0.24129850  1
  O  O220  1  0.71915232  0.86551291  0.57968345  1
  O  O221  1  0.72095175  0.87402083  0.90940036  1
  O  O222  1  0.41676488  0.13714659  0.15511539  1
  O  O223  1  0.42221194  0.13418952  0.48364580  1
  O  O224  1  0.40842355  0.13085608  0.82275162  1
  O  O225  1  0.41898346  0.62969019  0.15192378  1
  O  O226  1  0.42438103  0.62414879  0.48250925  1
  O  O227  1  0.41342243  0.62413580  0.81231864  1
  O  O228  1  0.91510152  0.13941827  0.15573006  1
  O  O229  1  0.91241483  0.14144780  0.49106047  1
  O  O230  1  0.91711629  0.14215104  0.82350342  1
  O  O231  1  0.92903139  0.62401620  0.14621400  1
  O  O232  1  0.92188573  0.63070625  0.48010056  1
  O  O233  1  0.91905383  0.63416251  0.81700981  1
  O  O234  1  0.37162098  0.07813427  0.01970722  1
  O  O235  1  0.37032985  0.07999682  0.34891260  1
  O  O236  1  0.36786088  0.08100479  0.68596115  1
  O  O237  1  0.36312915  0.58226884  0.01568718  1
  O  O238  1  0.36655021  0.57669871  0.34748258  1
  O  O239  1  0.36108535  0.57944737  0.67697165  1
  O  O240  1  0.86784236  0.07825920  0.02008822  1
  O  O241  1  0.86784272  0.09437002  0.35402141  1
  O  O242  1  0.87445801  0.08435855  0.68858293  1
  O  O243  1  0.87541123  0.57627368  0.01205939  1
  O  O244  1  0.86369166  0.58034466  0.34601864  1
  O  O245  1  0.86952084  0.57833125  0.68253091  1
  O  O246  1  0.08210554  0.36605987  0.18010246  1
  O  O247  1  0.07925235  0.36936935  0.51554338  1
  O  O248  1  0.07883169  0.37476234  0.85155843  1
  O  O249  1  0.08358880  0.86139145  0.18010757  1
  O  O250  1  0.09500367  0.86764050  0.51587898  1
  O  O251  1  0.08824968  0.86954940  0.84986556  1
  O  O252  1  0.57503460  0.37313031  0.18326834  1
  O  O253  1  0.58153239  0.36925396  0.51336135  1
  O  O254  1  0.58350717  0.36550242  0.84579392  1
  O  O255  1  0.56664877  0.87382785  0.18845538  1
  O  O256  1  0.58108047  0.86225058  0.51542553  1
  O  O257  1  0.58284568  0.86362736  0.85015792  1
  O  O258  1  0.13098742  0.41688744  0.31549168  1
  O  O259  1  0.13397028  0.41364964  0.65087091  1
  O  O260  1  0.13474962  0.41710624  0.98677920  1
  O  O261  1  0.13568839  0.90853833  0.31827326  1
  O  O262  1  0.13823177  0.91459368  0.65300734  1
  O  O263  1  0.13575764  0.92065543  0.98717252  1
  O  O264  1  0.62984403  0.42235742  0.31849591  1
  O  O265  1  0.63537476  0.41983012  0.64990120  1
  O  O266  1  0.63968667  0.41277657  0.98081139  1
  O  O267  1  0.62345019  0.93007446  0.32120543  1
  O  O268  1  0.62876085  0.92068469  0.65026600  1
  O  O269  1  0.63215958  0.92170954  0.98555214  1
  O  O270  1  0.02769075  0.20195148  0.10351277  1
  O  O271  1  0.02268058  0.20744109  0.43658984  1
  O  O272  1  0.03039977  0.20477741  0.77137435  1
  O  O273  1  0.04276951  0.68820720  0.10154713  1
  O  O274  1  0.04053523  0.68307629  0.43437006  1
  O  O275  1  0.03537336  0.68333066  0.76645812  1
  O  O276  1  0.53147145  0.20364184  0.10742696  1
  O  O277  1  0.53503521  0.20046217  0.43799092  1
  O  O278  1  0.53107534  0.19632204  0.76305436  1
  O  O279  1  0.52646372  0.70953381  0.11592897  1
  O  O280  1  0.52997798  0.69971608  0.44141532  1
  O  O281  1  0.52533193  0.69623462  0.76628413  1
  O  O282  1  0.30295879  0.46860000  0.06333459  1
  O  O283  1  0.29902887  0.46551395  0.39409689  1
  O  O284  1  0.29995189  0.46568034  0.72755778  1
  O  O285  1  0.29886461  0.97062835  0.06721601  1
  O  O286  1  0.32159533  0.96486570  0.40414546  1
  O  O287  1  0.30061944  0.96975127  0.73484275  1
  O  O288  1  0.81261550  0.46115710  0.05923195  1
  O  O289  1  0.79958103  0.46777235  0.39418118  1
  O  O290  1  0.80215712  0.46856486  0.72574637  1
  O  O291  1  0.79367060  0.97007505  0.05622970  1
  O  O292  1  0.78530450  0.97468688  0.38623321  1
  O  O293  1  0.79724843  0.97729089  0.74242740  1
  O  O294  1  0.46750595  0.30300656  0.22988062  1
  O  O295  1  0.46974950  0.30155171  0.56362516  1
  O  O296  1  0.47133155  0.31460673  0.89901800  1
  O  O297  1  0.45664273  0.79662753  0.22975973  1
  O  O298  1  0.46713829  0.79523791  0.56598333  1
  O  O299  1  0.46169298  0.80573556  0.89879910  1
  O  O300  1  0.96955581  0.30611246  0.22987078  1
  O  O301  1  0.97140344  0.30896530  0.56483590  1
  O  O302  1  0.97223432  0.30413299  0.89695027  1
  O  O303  1  0.97611556  0.78511592  0.21991191  1
  O  O304  1  0.97551127  0.79853837  0.56169820  1
  O  O305  1  0.96594048  0.80378485  0.90345113  1
  O  O306  1  0.19849401  0.02871802  0.26672020  1
  O  O307  1  0.20373313  0.03008324  0.60854058  1
  O  O308  1  0.19887814  0.03206747  0.93557160  1
  O  O309  1  0.20359816  0.52738960  0.27072052  1
  O  O310  1  0.19873039  0.52365870  0.60119722  1
  O  O311  1  0.20110199  0.53135848  0.93635325  1
  O  O312  1  0.68265860  0.03557246  0.27073668  1
  O  O313  1  0.68782166  0.03328173  0.59777793  1
  O  O314  1  0.71200301  0.02818888  0.94013649  1
  O  O315  1  0.70045494  0.53389518  0.27849711  1
  O  O316  1  0.70271507  0.53186250  0.60441699  1
  O  O317  1  0.70419965  0.53281043  0.93311962  1
  O  O318  1  0.08295774  0.09153713  0.03841594  1
  O  O319  1  0.07912931  0.09437170  0.37891365  1
  O  O320  1  0.08827144  0.09522036  0.70842793  1
  O  O321  1  0.08605939  0.57702543  0.02614404  1
  O  O322  1  0.08482098  0.57060096  0.36202461  1
  O  O323  1  0.08728041  0.57840812  0.69328820  1
  O  O324  1  0.59020833  0.09237349  0.04646591  1
  O  O325  1  0.59135428  0.09084997  0.37050874  1
  O  O326  1  0.59619738  0.09101158  0.70362036  1
  O  O327  1  0.57309612  0.59026407  0.05650169  1
  O  O328  1  0.58094127  0.58595408  0.37539349  1
  O  O329  1  0.58358068  0.58781079  0.70477124  1
  O  O330  1  0.41951131  0.42059610  0.13034630  1
  O  O331  1  0.41086664  0.41172294  0.45779609  1
  O  O332  1  0.41037929  0.40843356  0.79155280  1
  O  O333  1  0.40864158  0.91414353  0.13267345  1
  O  O334  1  0.42975737  0.91961436  0.48252825  1
  O  O335  1  0.40974907  0.91080108  0.79823223  1
  O  O336  1  0.91778694  0.41213727  0.13574940  1
  O  O337  1  0.91465749  0.41992085  0.46159352  1
  O  O338  1  0.91565413  0.41871395  0.79350849  1
  O  O339  1  0.90378832  0.91747363  0.12462861  1
  O  O340  1  0.89080697  0.90189233  0.42461833  1
  O  O341  1  0.90591023  0.91584213  0.79725931  1
  O  O342  1  0.42178816  0.41880181  0.29947283  1
  O  O343  1  0.41371309  0.40961905  0.63296913  1
  O  O344  1  0.41646554  0.42020784  0.97141873  1
  O  O345  1  0.40998592  0.91225057  0.29797089  1
  O  O346  1  0.41167949  0.90471479  0.63144503  1
  O  O347  1  0.40557907  0.91123338  0.96953541  1
  O  O348  1  0.91723922  0.41939130  0.29557611  1
  O  O349  1  0.92318069  0.42367982  0.63193053  1
  O  O350  1  0.91900746  0.41756747  0.95948092  1
  O  O351  1  0.92610248  0.90112916  0.27976109  1
  O  O352  1  0.92450248  0.91064897  0.62391049  1
  O  O353  1  0.90194037  0.90637720  0.96721501  1
  O  O354  1  0.09198326  0.09074083  0.20728457  1
  O  O355  1  0.09601362  0.09206814  0.54805393  1
  O  O356  1  0.08907170  0.08860265  0.86895858  1
  O  O357  1  0.08975743  0.57692373  0.20228682  1
  O  O358  1  0.08634187  0.57625903  0.53419131  1
  O  O359  1  0.08641307  0.58096477  0.86889754  1
  O  O360  1  0.57301333  0.08248783  0.19603225  1
  O  O361  1  0.58585445  0.08842662  0.52235751  1
  O  O362  1  0.60665574  0.09485184  0.88611187  1
  O  O363  1  0.58250899  0.58212782  0.21458714  1
  O  O364  1  0.59226838  0.58787007  0.53914169  1
  O  O365  1  0.58887148  0.57680979  0.86611624  1
  O  O366  1  0.13711194  0.22446237  0.06015066  1
  O  O367  1  0.13472288  0.22572245  0.39628569  1
  O  O368  1  0.13928663  0.22947179  0.72995578  1
  O  O369  1  0.14431437  0.71080664  0.04995991  1
  O  O370  1  0.14508528  0.70155262  0.38355368  1
  O  O371  1  0.14115646  0.71523286  0.72279264  1
  O  O372  1  0.63458539  0.22536106  0.05850424  1
  O  O373  1  0.64022340  0.22630960  0.39221311  1
  O  O374  1  0.63917230  0.22637312  0.72159934  1
  O  O375  1  0.63037186  0.71697676  0.06300810  1
  O  O376  1  0.63860951  0.71852586  0.39671314  1
  O  O377  1  0.63495865  0.72129220  0.72416896  1
  O  O378  1  0.28901135  0.36554350  0.11693240  1
  O  O379  1  0.27810920  0.35631128  0.43801131  1
  O  O380  1  0.27603927  0.35911964  0.77326386  1
  O  O381  1  0.27424919  0.86155250  0.10943149  1
  O  O382  1  0.29667368  0.85777862  0.44989837  1
  O  O383  1  0.27497517  0.86092674  0.77752625  1
  O  O384  1  0.78172094  0.35826309  0.10718081  1
  O  O385  1  0.78273968  0.36866451  0.45034279  1
  O  O386  1  0.78291390  0.36216947  0.77275538  1
  O  O387  1  0.77148239  0.85815890  0.09632415  1
  O  O388  1  0.76348357  0.86737386  0.43053169  1
  O  O389  1  0.77247061  0.86319632  0.77810028  1
  O  O390  1  0.36497252  0.28770203  0.28401802  1
  O  O391  1  0.36119054  0.27420696  0.60602754  1
  O  O392  1  0.36375794  0.28434070  0.94098538  1
  O  O393  1  0.35476434  0.77954179  0.28176843  1
  O  O394  1  0.35796827  0.76958239  0.60674532  1
  O  O395  1  0.35885115  0.77442816  0.94474318  1
  O  O396  1  0.86085422  0.28663712  0.27527962  1
  O  O397  1  0.86337245  0.29281175  0.61235447  1
  O  O398  1  0.86361592  0.28509122  0.94240269  1
  O  O399  1  0.87318390  0.77035732  0.27019027  1
  O  O400  1  0.86678675  0.77906341  0.60461533  1
  O  O401  1  0.85553024  0.77044818  0.93979625  1
  O  O402  1  0.22591505  0.13824780  0.22676395  1
  O  O403  1  0.23010561  0.13710243  0.56530537  1
  O  O404  1  0.22407815  0.13752257  0.88946688  1
  O  O405  1  0.22278814  0.63603689  0.22680911  1
  O  O406  1  0.21987069  0.63269449  0.55744216  1
  O  O407  1  0.21899728  0.63862843  0.88965622  1
  O  O408  1  0.70841581  0.13449107  0.21756606  1
  O  O409  1  0.72313541  0.14353493  0.56150562  1
  O  O410  1  0.73961957  0.13484098  0.89640806  1
  O  O411  1  0.71183320  0.63549834  0.22340053  1
  O  O412  1  0.72614938  0.64074572  0.56140960  1
  O  O413  1  0.71913322  0.63953567  0.88565542  1
  O  O414  1  0.49409643  0.33557104  0.03048121  1
  O  O415  1  0.49884505  0.33894289  0.36531115  1
  O  O416  1  0.49146529  0.32648138  0.69558949  1
  O  O417  1  0.48881660  0.83374277  0.03248145  1
  O  O418  1  0.48698575  0.83309467  0.36541064  1
  O  O419  1  0.48685355  0.82406545  0.69886771  1
  O  O420  1  0.99373375  0.34017859  0.03085021  1
  O  O421  1  0.99139472  0.33883286  0.36342728  1
  O  O422  1  0.99586214  0.34078958  0.69860894  1
  O  O423  1  0.98296871  0.82784943  0.03389158  1
  O  O424  1  1.00535255  0.82833220  0.35514286  1
  O  O425  1  0.99598063  0.83144524  0.69634086  1
  O  O426  1  0.16619296  0.01191442  0.13432324  1
  O  O427  1  0.16843309  0.00874598  0.47486915  1
  O  O428  1  0.16662395  0.00793380  0.80197502  1
  O  O429  1  0.17320190  0.50470454  0.13763846  1
  O  O430  1  0.16898470  0.50186198  0.46872626  1
  O  O431  1  0.16809193  0.50700663  0.80258333  1
  O  O432  1  0.65373806  0.00180763  0.13541063  1
  O  O433  1  0.67581147  0.01510567  0.46800391  1
  O  O434  1  0.67159081  0.01036489  0.80537966  1
  O  O435  1  0.65580576  0.50022145  0.14378518  1
  O  O436  1  0.67039159  0.50974829  0.47208788  1
  O  O437  1  0.67200688  0.50727379  0.79857671  1
  O  O438  1  0.00711074  0.17265323  0.30405398  1
  O  O439  1  0.01039239  0.17401508  0.63876716  1
  O  O440  1  0.00733569  0.17215190  0.97127130  1
  O  O441  1  0.01098538  0.65499285  0.29981808  1
  O  O442  1  0.01126568  0.66316229  0.63307549  1
  O  O443  1  0.01071854  0.66346391  0.96661377  1
  O  O444  1  0.50954768  0.16909429  0.30511935  1
  O  O445  1  0.51252683  0.16120095  0.63025062  1
  O  O446  1  0.50370583  0.16057585  0.97283292  1
  O  O447  1  0.50679329  0.66742486  0.30830314  1
  O  O448  1  0.50624956  0.66362910  0.63351047  1
  O  O449  1  0.49804070  0.66271753  0.97996338  1
  O  O450  1  0.34202479  0.49808666  0.19901787  1
  O  O451  1  0.33136490  0.48595893  0.52732250  1
  O  O452  1  0.33281321  0.48863337  0.86077032  1
  O  O453  1  0.33008796  0.99139472  0.20015840  1
  O  O454  1  0.33865202  0.99149852  0.53618069  1
  O  O455  1  0.33319241  0.99076422  0.86721128  1
  O  O456  1  0.83073397  0.49080990  0.19164901  1
  O  O457  1  0.83921907  0.50062919  0.53053662  1
  O  O458  1  0.83539777  0.49377553  0.86011645  1
  O  O459  1  0.81640659  0.98929570  0.18691058  1
  O  O460  1  0.84302280  0.98851822  0.51917214  1
  O  O461  1  0.83098476  0.98833647  0.87388405  1
