# generated using pymatgen
data_Na31Fe20(SO4)36
_symmetry_space_group_name_H-M   'P 1'
_cell_length_a   18.07227236
_cell_length_b   18.06936272
_cell_length_c   19.70320004
_cell_angle_alpha   107.59726612
_cell_angle_beta   107.61773669
_cell_angle_gamma   90.69427664
_symmetry_Int_Tables_number   1
_chemical_formula_structural   Na31Fe20(SO4)36
_chemical_formula_sum   'Na62 Fe40 S72 O288'
_cell_volume   5807.27571306
_cell_formula_units_Z   2
loop_
 _symmetry_equiv_pos_site_id
 _symmetry_equiv_pos_as_xyz
  1  'x, y, z'
loop_
 _atom_site_type_symbol
 _atom_site_label
 _atom_site_symmetry_multiplicity
 _atom_site_fract_x
 _atom_site_fract_y
 _atom_site_fract_z
 _atom_site_occupancy
  Na  Na0  1  0.12802053  0.35886531  0.07857838  1
  Na  Na1  1  0.13136213  0.36162184  0.41121791  1
  Na  Na2  1  0.13398199  0.36371125  0.75537041  1
  Na  Na3  1  0.12912021  0.86011838  0.07862359  1
  Na  Na4  1  0.14801420  0.87682592  0.43629084  1
  Na  Na5  1  0.13782035  0.87708215  0.75316432  1
  Na  Na6  1  0.63496707  0.36012902  0.06400072  1
  Na  Na7  1  0.63765853  0.36491353  0.41787605  1
  Na  Na8  1  0.64611550  0.35791157  0.75813061  1
  Na  Na9  1  0.63090759  0.86182203  0.07907101  1
  Na  Na10  1  0.63342854  0.86334427  0.41416955  1
  Na  Na11  1  0.62799297  0.86670855  0.75882609  1
  Na  Na12  1  0.35820197  0.13503400  0.24717257  1
  Na  Na13  1  0.35287839  0.13577469  0.58905047  1
  Na  Na14  1  0.35852354  0.13100837  0.89330053  1
  Na  Na15  1  0.36107392  0.63144423  0.24480434  1
  Na  Na16  1  0.37220355  0.64571144  0.59903634  1
  Na  Na17  1  0.36614046  0.63575272  0.91617570  1
  Na  Na18  1  0.87219241  0.13554184  0.25033589  1
  Na  Na19  1  0.86598711  0.13837920  0.59428878  1
  Na  Na20  1  0.85257029  0.12612849  0.90694915  1
  Na  Na21  1  0.85555677  0.62854680  0.23473585  1
  Na  Na22  1  0.87101648  0.63615162  0.58697599  1
  Na  Na23  1  0.87061912  0.64157360  0.92550372  1
  Na  Na24  1  0.96078424  0.01660975  0.05933264  1
  Na  Na25  1  0.98186739  0.51574817  0.07663242  1
  Na  Na26  1  0.45829231  0.00215309  0.76038373  1
  Na  Na27  1  0.52010206  0.49275455  0.06943037  1
  Na  Na28  1  0.99202656  0.51370391  0.42283203  1
  Na  Na29  1  0.48905444  0.01314699  0.41959407  1
  Na  Na30  1  0.48876444  0.50914457  0.42260755  1
  Na  Na31  1  0.98744518  0.00349535  0.42735545  1
  Na  Na32  1  0.51504710  -0.01939258  -0.07020816  1
  Na  Na33  1  0.01334608  0.97005531  0.23305458  1
  Na  Na34  1  0.00879574  0.49986376  0.89690900  1
  Na  Na35  1  0.53874265  0.50842199  0.90856215  1
  Na  Na36  1  0.51406409  0.99467113  0.22886478  1
  Na  Na37  1  0.46756858  1.01634503  0.60872038  1
  Na  Na38  1  0.01347589  0.48454604  0.24820830  1
  Na  Na39  1  0.50396863  0.48543292  0.60389130  1
  Na  Na40  1  0.01063542  0.49035526  0.60104521  1
  Na  Na41  1  0.50712337  0.48695446  0.24444857  1
  Na  Na42  1  0.78032282  0.77536086  -0.00069680  1
  Na  Na43  1  0.75657630  0.75206336  0.32428254  1
  Na  Na44  1  0.23780370  0.21789478  0.69644727  1
  Na  Na45  1  0.75445441  0.25390098  0.33325166  1
  Na  Na46  1  0.25403936  0.25197165  -0.01334332  1
  Na  Na47  1  0.27791775  0.79204779  0.67188211  1
  Na  Na48  1  0.75475470  0.75423367  0.66906808  1
  Na  Na49  1  0.25638655  0.75791562  0.32717069  1
  Na  Na50  1  0.23215792  0.23702759  0.33899299  1
  Na  Na51  1  0.74578525  0.24973730  -0.02016480  1
  Na  Na52  1  0.25608280  0.75569455  0.14910428  1
  Na  Na53  1  0.23524506  0.24086275  0.17034603  1
  Na  Na54  1  0.23692960  0.24104180  0.50884022  1
  Na  Na55  1  0.75988133  0.75480220  0.15275885  1
  Na  Na56  1  0.25680909  0.75278334  0.83751133  1
  Na  Na57  1  0.73943769  0.24149612  0.51560082  1
  Na  Na58  1  0.25546577  0.75522161  0.49863762  1
  Na  Na59  1  0.75766963  0.76314486  0.83361603  1
  Na  Na60  1  0.75407546  0.25743201  0.15757052  1
  Na  Na61  1  0.75136541  0.75381221  0.49865954  1
  Fe  Fe62  1  0.45801971  0.80338498  0.11339571  1
  Fe  Fe63  1  0.46992213  0.29930596  0.79007467  1
  Fe  Fe64  1  0.96357211  0.30161825  0.11933748  1
  Fe  Fe65  1  0.96749144  0.30412223  0.45197619  1
  Fe  Fe66  1  0.95639550  0.30660241  0.78506125  1
  Fe  Fe67  1  0.46648308  0.30516862  0.45307364  1
  Fe  Fe68  1  0.96886998  0.81738158  0.79489117  1
  Fe  Fe69  1  0.96729917  0.81140695  0.46140611  1
  Fe  Fe70  1  0.46486116  0.81315601  0.45568306  1
  Fe  Fe71  1  0.46716149  0.29721485  0.10911958  1
  Fe  Fe72  1  0.18154542  0.03614615  0.04287234  1
  Fe  Fe73  1  0.19980700  0.53373759  0.71941792  1
  Fe  Fe74  1  0.19464766  0.53703151  0.38356618  1
  Fe  Fe75  1  0.19084435  0.03534039  0.37996765  1
  Fe  Fe76  1  0.69365230  0.53680259  0.38284787  1
  Fe  Fe77  1  0.69713695  0.03322237  0.04056465  1
  Fe  Fe78  1  0.69072057  0.03480009  0.72137039  1
  Fe  Fe79  1  0.69269935  0.03510513  0.38380465  1
  Fe  Fe80  1  0.69869051  0.53792611  0.71736198  1
  Fe  Fe81  1  0.19274123  0.53016490  0.04665020  1
  Fe  Fe82  1  0.54278620  0.19743523  0.56222003  1
  Fe  Fe83  1  0.53155168  0.70427757  0.87857569  1
  Fe  Fe84  1  0.03056529  0.69994227  0.21181956  1
  Fe  Fe85  1  0.53451271  0.68939686  0.21190407  1
  Fe  Fe86  1  0.03997589  0.69408308  0.55267226  1
  Fe  Fe87  1  0.53552304  0.18934483  0.21004919  1
  Fe  Fe88  1  0.04013468  0.69204685  0.88291518  1
  Fe  Fe89  1  0.53678246  0.69707084  0.55190585  1
  Fe  Fe90  1  0.03229487  0.18235789  0.87281614  1
  Fe  Fe91  1  0.03538804  0.19337901  0.55451214  1
  Fe  Fe92  1  0.81294644  0.96689136  0.62890633  1
  Fe  Fe93  1  0.81297811  0.46659741  0.62391484  1
  Fe  Fe94  1  0.31127921  0.46282073  0.62320108  1
  Fe  Fe95  1  0.30573307  0.96385419  0.28234224  1
  Fe  Fe96  1  0.80439843  0.46763916  0.28369994  1
  Fe  Fe97  1  0.80633635  0.96461186  0.28556055  1
  Fe  Fe98  1  0.30659073  0.96695266  0.95485052  1
  Fe  Fe99  1  0.30514384  0.46166509  0.94888583  1
  Fe  Fe100  1  0.30680687  0.46451772  0.28358658  1
  Fe  Fe101  1  0.79836212  0.47343847  0.95233209  1
  S  S102  1  0.35805554  0.13916861  0.08637893  1
  S  S103  1  0.36077127  0.14137744  0.41595847  1
  S  S104  1  0.37306316  0.13868127  0.74981357  1
  S  S105  1  0.35892792  0.63542317  0.08573848  1
  S  S106  1  0.36198180  0.63874884  0.41531809  1
  S  S107  1  0.36134060  0.63873787  0.74816807  1
  S  S108  1  0.85297194  0.14474457  0.08222004  1
  S  S109  1  0.85837870  0.14065241  0.41892512  1
  S  S110  1  0.85199025  0.14293328  0.75077818  1
  S  S111  1  0.86073450  0.63999856  0.08601838  1
  S  S112  1  0.86203984  0.64146571  0.41820191  1
  S  S113  1  0.86509951  0.64149462  0.75017276  1
  S  S114  1  0.14111966  0.36222652  0.25051581  1
  S  S115  1  0.14030125  0.36229790  0.58421181  1
  S  S116  1  0.13551954  0.35894879  0.91608686  1
  S  S117  1  0.14349575  0.85743889  0.25203447  1
  S  S118  1  0.14212513  0.85495314  0.58236742  1
  S  S119  1  0.14498996  0.85758032  0.91929270  1
  S  S120  1  0.63776849  0.36068078  0.25075793  1
  S  S121  1  0.64041432  0.36440102  0.57993477  1
  S  S122  1  0.63429901  0.37249356  0.91698837  1
  S  S123  1  0.63863437  0.85976798  0.25026930  1
  S  S124  1  0.64173054  0.86131472  0.58153972  1
  S  S125  1  0.64380080  0.85795587  0.92653555  1
  S  S126  1  0.06203482  0.17255079  0.04092942  1
  S  S127  1  0.06228693  0.16943043  0.37582520  1
  S  S128  1  0.06116281  0.17267466  0.71345332  1
  S  S129  1  0.06886077  0.65726204  0.03985828  1
  S  S130  1  0.06650468  0.66762904  0.37483881  1
  S  S131  1  0.07277375  0.66867079  0.71152399  1
  S  S132  1  0.56832781  0.16871011  0.04188115  1
  S  S133  1  0.56623187  0.16931013  0.37471933  1
  S  S134  1  0.56451723  0.17094505  0.70195229  1
  S  S135  1  0.56168902  0.67091954  0.04490203  1
  S  S136  1  0.56479520  0.66671610  0.37548041  1
  S  S137  1  0.57309430  0.66776345  0.70706263  1
  S  S138  1  0.33172229  0.42748125  0.12185569  1
  S  S139  1  0.33253877  0.43200760  0.45828178  1
  S  S140  1  0.33036861  0.42343731  0.78946759  1
  S  S141  1  0.32834715  0.93299717  0.12600214  1
  S  S142  1  0.33354931  0.93863535  0.45489437  1
  S  S143  1  0.33884979  0.92951059  0.80388774  1
  S  S144  1  0.83038879  0.42970438  0.12367786  1
  S  S145  1  0.83278804  0.43600643  0.45883249  1
  S  S146  1  0.83026198  0.43609502  0.79169063  1
  S  S147  1  0.83139639  0.94208858  0.12778516  1
  S  S148  1  0.82549496  0.93128654  0.45750254  1
  S  S149  1  0.82467181  0.93128122  0.79036486  1
  S  S150  1  0.43319558  0.33080432  0.29020922  1
  S  S151  1  0.43159836  0.32467335  0.62197727  1
  S  S152  1  0.43024514  0.33190400  0.95638686  1
  S  S153  1  0.43302001  0.82799482  0.28924242  1
  S  S154  1  0.43966859  0.82990986  0.62212565  1
  S  S155  1  0.42993518  0.83017878  0.96237875  1
  S  S156  1  0.93219304  0.33955483  0.29454470  1
  S  S157  1  0.93298250  0.33131733  0.62264406  1
  S  S158  1  0.92530511  0.33202622  0.95813545  1
  S  S159  1  0.93247487  0.83012981  0.29493633  1
  S  S160  1  0.93042180  0.82508935  0.62446047  1
  S  S161  1  0.94279707  0.82769220  0.95567815  1
  S  S162  1  0.16478539  0.05994648  0.20769720  1
  S  S163  1  0.16567888  0.07146508  0.54203664  1
  S  S164  1  0.17377966  0.06662925  0.88137476  1
  S  S165  1  0.16968467  0.56664316  0.21050938  1
  S  S166  1  0.17308756  0.56632743  0.54303585  1
  S  S167  1  0.17368126  0.56578023  0.87576403  1
  S  S168  1  0.67495602  0.06928742  0.21081585  1
  S  S169  1  0.66667075  0.06601275  0.54061713  1
  S  S170  1  0.65620983  0.05665493  0.87470373  1
  S  S171  1  0.66528553  0.56228488  0.21067532  1
  S  S172  1  0.67148664  0.56945698  0.54254492  1
  S  S173  1  0.67611887  0.58295349  0.87687180  1
  O  O174  1  0.36815688  0.21785011  0.07713042  1
  O  O175  1  0.36958314  0.22023635  0.40646493  1
  O  O176  1  0.38191706  0.21960360  0.73513919  1
  O  O177  1  0.36291177  0.71706921  0.08437840  1
  O  O178  1  0.37059653  0.71683880  0.40565123  1
  O  O179  1  0.36419167  0.71112923  0.73059808  1
  O  O180  1  0.85867366  0.22873209  0.08332416  1
  O  O181  1  0.86880987  0.21894888  0.40925823  1
  O  O182  1  0.86042784  0.21970986  0.73920037  1
  O  O183  1  0.86915004  0.71626104  0.07566040  1
  O  O184  1  0.87038623  0.72219870  0.41399627  1
  O  O185  1  0.87582081  0.71957751  0.74090733  1
  O  O186  1  0.28024471  0.13156478  0.09744048  1
  O  O187  1  0.27987005  0.13313586  0.42049837  1
  O  O188  1  0.29542247  0.13481211  0.75762959  1
  O  O189  1  0.28273334  0.62147206  0.09848496  1
  O  O190  1  0.28330169  0.63062010  0.42442034  1
  O  O191  1  0.28406134  0.62579005  0.76067934  1
  O  O192  1  0.76895680  0.13282102  0.08422107  1
  O  O193  1  0.77684173  0.13257585  0.42221780  1
  O  O194  1  0.77468328  0.13111335  0.76016225  1
  O  O195  1  0.78841341  0.62777787  0.10195739  1
  O  O196  1  0.78423934  0.63204120  0.42895393  1
  O  O197  1  0.78471710  0.63488703  0.75606612  1
  O  O198  1  0.13542654  0.28633355  0.26112577  1
  O  O199  1  0.13193249  0.28440700  0.59313400  1
  O  O200  1  0.12462777  0.28007118  0.92257170  1
  O  O201  1  0.13056074  0.77798564  0.25906155  1
  O  O202  1  0.13351196  0.77066487  0.58401876  1
  O  O203  1  0.13732871  0.77853148  0.92648826  1
  O  O204  1  0.63024077  0.28357362  0.26298059  1
  O  O205  1  0.63441795  0.28203708  0.57842000  1
  O  O206  1  0.63192408  0.29839827  0.93192404  1
  O  O207  1  0.62845285  0.78170877  0.26037069  1
  O  O208  1  0.63562864  0.78063917  0.58766511  1
  O  O209  1  0.62544738  0.78608314  0.94540141  1
  O  O210  1  0.21924826  0.37413506  0.23943282  1
  O  O211  1  0.21841750  0.37182494  0.57420415  1
  O  O212  1  0.21333325  0.36863385  0.90665222  1
  O  O213  1  0.22595971  0.86165799  0.24905039  1
  O  O214  1  0.21628426  0.86267740  0.56719551  1
  O  O215  1  0.22599744  0.87031049  0.91555925  1
  O  O216  1  0.71715795  0.37017205  0.24387755  1
  O  O217  1  0.71709622  0.37827598  0.56860959  1
  O  O218  1  0.70848132  0.38592009  0.90087016  1
  O  O219  1  0.71818287  0.86620490  0.24242830  1
  O  O220  1  0.72094371  0.87218694  0.57389449  1
  O  O221  1  0.72466966  0.85807984  0.92602099  1
  O  O222  1  0.41829736  0.13413480  0.15557338  1
  O  O223  1  0.41862760  0.13424581  0.48441053  1
  O  O224  1  0.43451147  0.13760316  0.81777386  1
  O  O225  1  0.42138392  0.62454436  0.15093556  1
  O  O226  1  0.42174062  0.62872646  0.48188894  1
  O  O227  1  0.42193278  0.63781985  0.81859945  1
  O  O228  1  0.90724178  0.13342874  0.14911586  1
  O  O229  1  0.91384551  0.13431141  0.48917903  1
  O  O230  1  0.91295031  0.13663372  0.81851859  1
  O  O231  1  0.92672167  0.63032320  0.15172287  1
  O  O232  1  0.92318742  0.62882061  0.48304413  1
  O  O233  1  0.92204479  0.63140197  0.81780950  1
  O  O234  1  0.36519686  0.07889782  0.01959791  1
  O  O235  1  0.37096789  0.08179145  0.34880068  1
  O  O236  1  0.38208388  0.07955687  0.68294887  1
  O  O237  1  0.36436892  0.58078550  0.01465296  1
  O  O238  1  0.36884988  0.57836058  0.34664073  1
  O  O239  1  0.37032592  0.57310825  0.68382334  1
  O  O240  1  0.86244830  0.09310167  0.01312088  1
  O  O241  1  0.86954126  0.07975241  0.35373651  1
  O  O242  1  0.85934645  0.08209137  0.68247657  1
  O  O243  1  0.86970356  0.57809937  0.01806153  1
  O  O244  1  0.86680951  0.58495326  0.34732716  1
  O  O245  1  0.87120305  0.58143146  0.68117356  1
  O  O246  1  0.08026537  0.37077246  0.18338229  1
  O  O247  1  0.08026678  0.37071892  0.51621867  1
  O  O248  1  0.07416724  0.37271849  0.85208607  1
  O  O249  1  0.08895762  0.86858807  0.18536844  1
  O  O250  1  0.07811815  0.86272858  0.51502382  1
  O  O251  1  0.08898339  0.86371016  0.84873574  1
  O  O252  1  0.57820808  0.36681599  0.18217586  1
  O  O253  1  0.57710939  0.37684458  0.51546304  1
  O  O254  1  0.57028580  0.37182297  0.84428372  1
  O  O255  1  0.57949468  0.86920859  0.18329890  1
  O  O256  1  0.58350354  0.86607473  0.51129706  1
  O  O257  1  0.58828650  0.86329705  0.85779171  1
  O  O258  1  0.13392954  0.42464662  0.31836536  1
  O  O259  1  0.13192803  0.42304389  0.65145969  1
  O  O260  1  0.13178827  0.41741405  0.98741940  1
  O  O261  1  0.13651602  0.91600958  0.32164229  1
  O  O262  1  0.13671250  0.90775153  0.65142752  1
  O  O263  1  0.13417876  0.91613424  0.98584030  1
  O  O264  1  0.62842332  0.42180697  0.31773922  1
  O  O265  1  0.63372783  0.41830007  0.65103923  1
  O  O266  1  0.62199010  0.43672367  0.97796314  1
  O  O267  1  0.63170466  0.92054897  0.31821856  1
  O  O268  1  0.63050469  0.91844170  0.64801280  1
  O  O269  1  0.63501054  0.92507660  0.99288616  1
  O  O270  1  0.02449497  0.20396315  0.09938566  1
  O  O271  1  0.03131083  0.20045289  0.44232848  1
  O  O272  1  0.02094578  0.20934946  0.77271667  1
  O  O273  1  0.03656196  0.68385373  0.10179000  1
  O  O274  1  0.02967955  0.69500916  0.43523453  1
  O  O275  1  0.03575557  0.69573558  0.77142080  1
  O  O276  1  0.53802240  0.19904653  0.10988051  1
  O  O277  1  0.52903999  0.19867337  0.43457503  1
  O  O278  1  0.54308350  0.21351682  0.76913029  1
  O  O279  1  0.52242069  0.70417905  0.10537480  1
  O  O280  1  0.53170989  0.69881922  0.43787424  1
  O  O281  1  0.54130172  0.69296736  0.76902447  1
  O  O282  1  0.30145323  0.46314426  0.06067505  1
  O  O283  1  0.30385598  0.46940524  0.39786152  1
  O  O284  1  0.30231246  0.46157150  0.72903608  1
  O  O285  1  0.30143154  0.96822746  0.06467775  1
  O  O286  1  0.30020126  0.97089619  0.39043633  1
  O  O287  1  0.31131680  0.95306564  0.73709269  1
  O  O288  1  0.80704338  0.46115289  0.06124572  1
  O  O289  1  0.80234362  0.47170094  0.39716863  1
  O  O290  1  0.80099570  0.47268226  0.72925688  1
  O  O291  1  0.79411068  0.98174284  0.07164643  1
  O  O292  1  0.79555192  0.96965556  0.39718551  1
  O  O293  1  0.79035285  0.96596143  0.72630117  1
  O  O294  1  0.46850875  0.30113729  0.22917582  1
  O  O295  1  0.47509177  0.29772493  0.56515095  1
  O  O296  1  0.46046281  0.30819825  0.89202616  1
  O  O297  1  0.46953669  0.79805805  0.22872051  1
  O  O298  1  0.47172932  0.79482400  0.55525379  1
  O  O299  1  0.46458691  0.80279203  0.90197727  1
  O  O300  1  0.96736213  0.31586783  0.23472648  1
  O  O301  1  0.97202290  0.30031928  0.56311431  1
  O  O302  1  0.96144325  0.30345469  0.89712095  1
  O  O303  1  0.96910123  0.80352846  0.23577929  1
  O  O304  1  0.96867314  0.79319738  0.56445586  1
  O  O305  1  0.97706558  0.79078001  0.89064430  1
  O  O306  1  0.20314591  0.02497490  0.27019481  1
  O  O307  1  0.18919827  0.03958812  0.60192187  1
  O  O308  1  0.20607358  0.02996127  0.94623744  1
  O  O309  1  0.20296161  0.53358406  0.27397969  1
  O  O310  1  0.20375739  0.53145782  0.60464699  1
  O  O311  1  0.20362371  0.53042087  0.93835093  1
  O  O312  1  0.70242206  0.02908371  0.26984406  1
  O  O313  1  0.69419843  0.03208175  0.60232884  1
  O  O314  1  0.69483656  0.02403324  0.93761363  1
  O  O315  1  0.70121657  0.53329825  0.27768218  1
  O  O316  1  0.70176705  0.53576148  0.60471201  1
  O  O317  1  0.70712652  0.55012066  0.93853656  1
  O  O318  1  0.08047051  0.09179632  0.04102707  1
  O  O319  1  0.08105283  0.08714090  0.36959328  1
  O  O320  1  0.07992907  0.09690235  0.71692319  1
  O  O321  1  0.08236479  0.57159037  0.02896738  1
  O  O322  1  0.08211307  0.58362606  0.36828854  1
  O  O323  1  0.09451606  0.58768529  0.70610071  1
  O  O324  1  0.59848886  0.09105408  0.04289444  1
  O  O325  1  0.58139527  0.08584998  0.36757594  1
  O  O326  1  0.58850233  0.09370539  0.70720938  1
  O  O327  1  0.57110117  0.58902868  0.03957935  1
  O  O328  1  0.57947360  0.58328302  0.37017563  1
  O  O329  1  0.59331268  0.58519357  0.69480404  1
  O  O330  1  0.41313847  0.40791953  0.12664234  1
  O  O331  1  0.41562056  0.41550761  0.46402824  1
  O  O332  1  0.41056573  0.40121307  0.79305353  1
  O  O333  1  0.40885602  0.91003036  0.13234947  1
  O  O334  1  0.41582232  0.92086026  0.45635402  1
  O  O335  1  0.42278304  0.91998614  0.82126370  1
  O  O336  1  0.91400467  0.41193233  0.13750653  1
  O  O337  1  0.91582831  0.42082261  0.46609787  1
  O  O338  1  0.91110044  0.41591000  0.79401910  1
  O  O339  1  0.91022402  0.92910993  0.12448785  1
  O  O340  1  0.90656002  0.91432733  0.46071193  1
  O  O341  1  0.90014436  0.90480813  0.78227425  1
  O  O342  1  0.41865096  0.41485551  0.29765710  1
  O  O343  1  0.41656642  0.40688558  0.62667417  1
  O  O344  1  0.41204621  0.41533567  0.96930430  1
  O  O345  1  0.41646860  0.91041018  0.29549193  1
  O  O346  1  0.42308486  0.90941144  0.62393448  1
  O  O347  1  0.40675926  0.91096260  0.96783477  1
  O  O348  1  0.91531231  0.42410283  0.30622827  1
  O  O349  1  0.91654749  0.41276322  0.62322556  1
  O  O350  1  0.90646647  0.41395566  0.96290849  1
  O  O351  1  0.91382407  0.91306294  0.30233566  1
  O  O352  1  0.90885871  0.90313207  0.62340149  1
  O  O353  1  0.92700743  0.90635209  0.95473850  1
  O  O354  1  0.08280347  0.06487855  0.20223211  1
  O  O355  1  0.08126042  0.09032101  0.52627772  1
  O  O356  1  0.09756469  0.09251852  0.88755645  1
  O  O357  1  0.08721377  0.58065821  0.20516968  1
  O  O358  1  0.09064185  0.58314166  0.53853516  1
  O  O359  1  0.09301534  0.58516370  0.87282424  1
  O  O360  1  0.59337824  0.08631377  0.20784881  1
  O  O361  1  0.58523270  0.08833350  0.53431114  1
  O  O362  1  0.57302365  0.05765108  0.86690194  1
  O  O363  1  0.58389765  0.58122867  0.21123035  1
  O  O364  1  0.58918751  0.58684967  0.53518147  1
  O  O365  1  0.59539087  0.60253486  0.87413506  1
  O  O366  1  0.13569278  0.22291302  0.05778093  1
  O  O367  1  0.13597302  0.22104547  0.39431967  1
  O  O368  1  0.12802451  0.22967179  0.72740892  1
  O  O369  1  0.14135525  0.70504050  0.05328206  1
  O  O370  1  0.13993377  0.71677021  0.39202345  1
  O  O371  1  0.14094906  0.72298571  0.72513542  1
  O  O372  1  0.63410752  0.22606781  0.05474021  1
  O  O373  1  0.63935906  0.21983387  0.39292611  1
  O  O374  1  0.62406621  0.21865404  0.69067922  1
  O  O375  1  0.63563505  0.72055279  0.06704087  1
  O  O376  1  0.63803757  0.71469953  0.38899681  1
  O  O377  1  0.64251842  0.72050103  0.71855980  1
  O  O378  1  0.27863241  0.35812264  0.10814880  1
  O  O379  1  0.28111262  0.36026363  0.44107731  1
  O  O380  1  0.27482439  0.35619427  0.77437757  1
  O  O381  1  0.27372197  0.86630309  0.11486042  1
  O  O382  1  0.28498890  0.86490847  0.43967412  1
  O  O383  1  0.29055574  0.85765343  0.79619212  1
  O  O384  1  0.77694911  0.35980473  0.10934978  1
  O  O385  1  0.78234219  0.36341075  0.44163024  1
  O  O386  1  0.77752247  0.36792426  0.77704990  1
  O  O387  1  0.78186895  0.86876800  0.11299288  1
  O  O388  1  0.77358901  0.85798669  0.43701073  1
  O  O389  1  0.76940041  0.86149861  0.77510617  1
  O  O390  1  0.36016936  0.28205763  0.27504623  1
  O  O391  1  0.35859020  0.27371008  0.59808049  1
  O  O392  1  0.36238270  0.27966162  0.94596333  1
  O  O393  1  0.36110750  0.77602826  0.27182831  1
  O  O394  1  0.36669819  0.77762327  0.60324388  1
  O  O395  1  0.36257563  0.77602168  0.95219137  1
  O  O396  1  0.85986249  0.28884002  0.27886788  1
  O  O397  1  0.86062071  0.28100752  0.60449298  1
  O  O398  1  0.85626392  0.27948278  0.94509897  1
  O  O399  1  0.85955685  0.77823025  0.27695209  1
  O  O400  1  0.85951232  0.77054049  0.60654518  1
  O  O401  1  0.86958748  0.77523981  0.93596682  1
  O  O402  1  0.21137391  0.13644487  0.22704224  1
  O  O403  1  0.21608707  0.14497376  0.55642288  1
  O  O404  1  0.23023249  0.13450860  0.89857914  1
  O  O405  1  0.21936030  0.63888574  0.22485892  1
  O  O406  1  0.22415940  0.63614785  0.55498735  1
  O  O407  1  0.22610722  0.63406639  0.88766613  1
  O  O408  1  0.72675009  0.14187760  0.23113956  1
  O  O409  1  0.72051080  0.13304357  0.55074562  1
  O  O410  1  0.69954613  0.13235568  0.88957291  1
  O  O411  1  0.71422097  0.63375083  0.22212175  1
  O  O412  1  0.72280487  0.64015320  0.55572982  1
  O  O413  1  0.72732793  0.65277029  0.88642516  1
  O  O414  1  0.49561504  0.33400637  0.02665881  1
  O  O415  1  0.49224504  0.33229613  0.36310183  1
  O  O416  1  0.48602213  0.32319063  0.69519016  1
  O  O417  1  0.49201289  0.83796492  0.03647322  1
  O  O418  1  0.49146786  0.82893621  0.36191337  1
  O  O419  1  0.49882811  0.82785108  0.69021328  1
  O  O420  1  0.98678725  0.33718484  0.03153746  1
  O  O421  1  0.99126190  0.33983478  0.36746067  1
  O  O422  1  0.98923290  0.33481981  0.69633717  1
  O  O423  1  1.00011285  0.82500515  0.02490219  1
  O  O424  1  0.98957952  0.83294305  0.36895903  1
  O  O425  1  0.98894702  0.82762921  0.69676219  1
  O  O426  1  0.17245274  0.00593187  0.13635007  1
  O  O427  1  0.16671694  0.01324237  0.46789003  1
  O  O428  1  0.16557673  0.00598037  0.81179270  1
  O  O429  1  0.17014083  0.50594077  0.13976221  1
  O  O430  1  0.16756064  0.50496170  0.46964353  1
  O  O431  1  0.16896873  0.50271946  0.80431163  1
  O  O432  1  0.67433416  0.01368930  0.13760694  1
  O  O433  1  0.65835400  0.00374046  0.46663627  1
  O  O434  1  0.66396787  0.00047141  0.80335135  1
  O  O435  1  0.65762260  0.49872716  0.14175061  1
  O  O436  1  0.66888230  0.50809114  0.47021628  1
  O  O437  1  0.67042340  0.51961201  0.80429762  1
  O  O438  1  0.00293078  0.17115298  0.30801246  1
  O  O439  1  0.00188986  0.16921806  0.63858765  1
  O  O440  1  0.00605858  0.16936123  0.96668693  1
  O  O441  1  0.00877040  0.66690695  0.30229458  1
  O  O442  1  0.01140035  0.66131826  0.63730707  1
  O  O443  1  0.00938642  0.65580454  0.96696196  1
  O  O444  1  0.50908314  0.16821208  0.30139685  1
  O  O445  1  0.49395503  0.15331469  0.63155477  1
  O  O446  1  0.50224330  0.15845960  0.97512224  1
  O  O447  1  0.50524756  0.66532329  0.30339216  1
  O  O448  1  0.51032704  0.66430774  0.63456904  1
  O  O449  1  0.50672033  0.67388092  0.97211307  1
  O  O450  1  0.33732393  0.48892016  0.19504996  1
  O  O451  1  0.33556583  0.49033116  0.53149094  1
  O  O452  1  0.33601654  0.48574390  0.86188889  1
  O  O453  1  0.33622058  0.99582733  0.19941280  1
  O  O454  1  0.33751790  0.99878114  0.52471125  1
  O  O455  1  0.33021990  0.99407905  0.87266434  1
  O  O456  1  0.82937269  0.49121689  0.19513171  1
  O  O457  1  0.83252018  0.49480419  0.53065272  1
  O  O458  1  0.83728791  0.49851694  0.86402804  1
  O  O459  1  0.83698205  0.99645848  0.20497903  1
  O  O460  1  0.82483886  0.98760440  0.52957677  1
  O  O461  1  0.83414189  0.99132662  0.86095659  1
