# generated using pymatgen
data_Na31Fe20(SO4)36
_symmetry_space_group_name_H-M   'P 1'
_cell_length_a   18.06668058
_cell_length_b   18.05936322
_cell_length_c   19.69384378
_cell_angle_alpha   107.59364737
_cell_angle_beta   107.59900566
_cell_angle_gamma   90.69631187
_symmetry_Int_Tables_number   1
_chemical_formula_structural   Na31Fe20(SO4)36
_chemical_formula_sum   'Na62 Fe40 S72 O288'
_cell_volume   5800.29498377
_cell_formula_units_Z   2
loop_
 _symmetry_equiv_pos_site_id
 _symmetry_equiv_pos_as_xyz
  1  'x, y, z'
loop_
 _atom_site_type_symbol
 _atom_site_label
 _atom_site_symmetry_multiplicity
 _atom_site_fract_x
 _atom_site_fract_y
 _atom_site_fract_z
 _atom_site_occupancy
  Na  Na0  1  0.13835838  0.36046387  0.08561750  1
  Na  Na1  1  0.13639675  0.36998590  0.42341370  1
  Na  Na2  1  0.13371183  0.35402628  0.73994095  1
  Na  Na3  1  0.13723674  0.85538120  0.07508006  1
  Na  Na4  1  0.13168090  0.86922973  0.41739656  1
  Na  Na5  1  0.13091555  0.87121306  0.75048951  1
  Na  Na6  1  0.63839142  0.36851973  0.09273032  1
  Na  Na7  1  0.64553495  0.36579757  0.42653881  1
  Na  Na8  1  0.62780093  0.35667076  0.73205199  1
  Na  Na9  1  0.63594557  0.85985343  0.07753637  1
  Na  Na10  1  0.63933839  0.87741930  0.43021657  1
  Na  Na11  1  0.62947686  0.86712775  0.74516067  1
  Na  Na12  1  0.36104348  0.14011203  0.24764553  1
  Na  Na13  1  0.37274548  0.14320003  0.59376610  1
  Na  Na14  1  0.35808473  0.12850540  0.90417377  1
  Na  Na15  1  0.36617964  0.63518762  0.24973677  1
  Na  Na16  1  0.36492413  0.63218088  0.58592989  1
  Na  Na17  1  0.35675414  0.62767246  0.90791316  1
  Na  Na18  1  0.86449565  0.14284131  0.25407120  1
  Na  Na19  1  0.87038980  0.14716861  0.59183651  1
  Na  Na20  1  0.86488231  0.13279912  0.91506135  1
  Na  Na21  1  0.86886526  0.62394718  0.24867700  1
  Na  Na22  1  0.88307345  0.63367212  0.59448836  1
  Na  Na23  1  0.86028742  0.63516081  0.91455203  1
  Na  Na24  1  0.96460248  0.00191993  0.71942901  1
  Na  Na25  1  0.48629952  0.00582612  0.08073235  1
  Na  Na26  1  0.98969420  0.50506844  0.08449404  1
  Na  Na27  1  0.47943370  0.51249830  0.08249551  1
  Na  Na28  1  0.48427973  0.04218016  0.50573991  1
  Na  Na29  1  0.95899685  0.50753348  0.40964103  1
  Na  Na30  1  0.47717606  0.50707544  0.75526068  1
  Na  Na31  1  0.99284803  0.00968204  0.08396621  1
  Na  Na32  1  0.49594926  0.50585779  0.41927162  1
  Na  Na33  1  0.51325061  0.99693571  0.90099480  1
  Na  Na34  1  0.01206222  0.46372601  0.77795472  1
  Na  Na35  1  -0.01142219  1.00455056  0.27888828  1
  Na  Na36  1  0.52201337  0.48893866  0.25230141  1
  Na  Na37  1  0.50351218  0.47924612  0.58795545  1
  Na  Na38  1  -0.00253781  1.03300763  0.56306414  1
  Na  Na39  1  0.00251405  0.94696154  0.89193331  1
  Na  Na40  1  0.51206825  0.48217637  0.92023202  1
  Na  Na41  1  0.50861786  0.99245670  0.26492214  1
  Na  Na42  1  0.77652027  0.77356524  0.66277597  1
  Na  Na43  1  0.74431827  0.24237104  0.34774267  1
  Na  Na44  1  0.23903333  0.73645916  0.67650841  1
  Na  Na45  1  0.75914470  0.25998009  0.65255190  1
  Na  Na46  1  0.75911368  0.25836566  -0.00565364  1
  Na  Na47  1  0.23969120  0.23954513  0.01096345  1
  Na  Na48  1  0.25105293  0.25117556  0.33106542  1
  Na  Na49  1  0.75623371  0.75678848  0.33056674  1
  Na  Na50  1  0.24637876  0.74691304  0.33538264  1
  Na  Na51  1  0.21841151  0.21531330  0.66582695  1
  Na  Na52  1  0.23600030  0.23470035  0.83793130  1
  Na  Na53  1  0.23540100  0.23945912  0.50694306  1
  Na  Na54  1  0.75863863  0.26347676  0.16679138  1
  Na  Na55  1  0.23265336  0.73033074  0.84448828  1
  Na  Na56  1  0.75818060  0.75734006  0.83146377  1
  Na  Na57  1  0.25768152  0.75661178  0.15601771  1
  Na  Na58  1  0.75780366  0.75775407  0.15420528  1
  Na  Na59  1  0.24131814  0.74130094  0.50456797  1
  Na  Na60  1  0.76823087  0.76819833  0.49940509  1
  Na  Na61  1  0.76191815  0.25966579  0.82105548  1
  Fe  Fe62  1  0.46565301  0.80523559  0.78466626  1
  Fe  Fe63  1  0.46431367  0.81031669  0.45589690  1
  Fe  Fe64  1  0.46842690  0.30077430  0.78075266  1
  Fe  Fe65  1  0.96751229  0.81328319  0.45847876  1
  Fe  Fe66  1  0.46266406  0.80698203  0.11713499  1
  Fe  Fe67  1  0.47024204  0.30097437  0.45304781  1
  Fe  Fe68  1  0.96333816  0.80769372  0.11837528  1
  Fe  Fe69  1  0.97046359  0.30648037  0.46175014  1
  Fe  Fe70  1  0.96528234  0.31430828  0.12887050  1
  Fe  Fe71  1  0.46367343  0.30481225  0.11787087  1
  Fe  Fe72  1  0.70532460  0.53161769  0.38331905  1
  Fe  Fe73  1  0.69516312  0.03377096  0.70683365  1
  Fe  Fe74  1  0.69994590  0.04474649  0.39521099  1
  Fe  Fe75  1  0.69258705  0.53771196  0.71922776  1
  Fe  Fe76  1  0.69467948  0.03545492  0.04778673  1
  Fe  Fe77  1  0.18238053  0.53521690  0.03991124  1
  Fe  Fe78  1  0.19180847  0.03690132  0.38173931  1
  Fe  Fe79  1  0.69402746  0.53351274  0.05138327  1
  Fe  Fe80  1  0.19018048  0.53277679  0.37493086  1
  Fe  Fe81  1  0.18911913  0.03633430  0.04645596  1
  Fe  Fe82  1  0.53313303  0.69440457  0.55010406  1
  Fe  Fe83  1  0.53360511  0.69545844  0.21699704  1
  Fe  Fe84  1  0.03927609  0.69229189  0.55119525  1
  Fe  Fe85  1  0.53470772  0.19158182  0.21653385  1
  Fe  Fe86  1  0.03802635  0.19328059  0.21501532  1
  Fe  Fe87  1  0.53738394  0.69243682  0.88419090  1
  Fe  Fe88  1  0.02849150  0.19631808  0.87632195  1
  Fe  Fe89  1  0.03471173  0.69354162  0.87283872  1
  Fe  Fe90  1  0.53758058  0.18821928  0.87616969  1
  Fe  Fe91  1  0.03498073  0.69313234  0.21260277  1
  Fe  Fe92  1  0.30406069  0.96655475  0.62285955  1
  Fe  Fe93  1  0.80599002  0.46397411  0.95131214  1
  Fe  Fe94  1  0.80654813  0.96957518  0.28976943  1
  Fe  Fe95  1  0.30838933  0.96669377  0.28768972  1
  Fe  Fe96  1  0.30208688  0.96541047  0.94731684  1
  Fe  Fe97  1  0.29603226  0.46772775  0.62030459  1
  Fe  Fe98  1  0.80813405  0.96409090  0.95084107  1
  Fe  Fe99  1  0.30120638  0.46210472  0.94804567  1
  Fe  Fe100  1  0.30991490  0.46162770  0.28297164  1
  Fe  Fe101  1  0.81379688  0.46807724  0.62550175  1
  S  S102  1  0.36086928  0.13677736  0.08115213  1
  S  S103  1  0.35425886  0.14242934  0.41383426  1
  S  S104  1  0.36349728  0.13852080  0.74907716  1
  S  S105  1  0.35871642  0.63915103  0.08342355  1
  S  S106  1  0.36154053  0.63825146  0.41322356  1
  S  S107  1  0.36227617  0.63907375  0.75176843  1
  S  S108  1  0.86067949  0.14038423  0.08583252  1
  S  S109  1  0.86248900  0.14184971  0.41488180  1
  S  S110  1  0.85509444  0.14308524  0.75332396  1
  S  S111  1  0.85907687  0.63955076  0.08434679  1
  S  S112  1  0.86068247  0.64511793  0.41875784  1
  S  S113  1  0.85562385  0.64451068  0.75570028  1
  S  S114  1  0.14465780  0.35792787  0.24794456  1
  S  S115  1  0.14513863  0.35616131  0.58129619  1
  S  S116  1  0.14070629  0.35753481  0.91829906  1
  S  S117  1  0.14064753  0.85940866  0.24881227  1
  S  S118  1  0.14501209  0.85595512  0.58101549  1
  S  S119  1  0.14541730  0.85840320  0.91894948  1
  S  S120  1  0.63819099  0.35964035  0.25096368  1
  S  S121  1  0.63889161  0.37004009  0.58268255  1
  S  S122  1  0.63866609  0.35872583  0.91779801  1
  S  S123  1  0.63867745  0.86149420  0.25099485  1
  S  S124  1  0.63686902  0.85867257  0.58634006  1
  S  S125  1  0.64025410  0.86012940  0.91719589  1
  S  S126  1  0.06511206  0.16911403  0.04206607  1
  S  S127  1  0.06647764  0.17427298  0.37432995  1
  S  S128  1  0.05737239  0.16010306  0.71124911  1
  S  S129  1  0.06387375  0.67090158  0.04338436  1
  S  S130  1  0.06805579  0.67135420  0.37400219  1
  S  S131  1  0.07370430  0.67027638  0.71448577  1
  S  S132  1  0.56799134  0.16775912  0.04183248  1
  S  S133  1  0.56595281  0.16975456  0.37309694  1
  S  S134  1  0.57298149  0.16902597  0.70864389  1
  S  S135  1  0.56391486  0.66795529  0.04396704  1
  S  S136  1  0.56998941  0.66993664  0.37861070  1
  S  S137  1  0.56660920  0.66795778  0.71116226  1
  S  S138  1  0.33572028  0.43389163  0.12351347  1
  S  S139  1  0.33483160  0.43499565  0.45574780  1
  S  S140  1  0.33450418  0.42463775  0.79099465  1
  S  S141  1  0.33389863  0.93572132  0.12732917  1
  S  S142  1  0.32790145  0.93219719  0.45645850  1
  S  S143  1  0.33278564  0.92787831  0.79003278  1
  S  S144  1  0.82777261  0.43505949  0.12356102  1
  S  S145  1  0.83274826  0.43102792  0.45888755  1
  S  S146  1  0.82415139  0.43328172  0.79046875  1
  S  S147  1  0.83167285  0.93557554  0.12691692  1
  S  S148  1  0.83209609  0.93917056  0.45718231  1
  S  S149  1  0.82471847  0.93622325  0.78928911  1
  S  S150  1  0.43303797  0.32935850  0.29130942  1
  S  S151  1  0.42839175  0.33606918  0.62173067  1
  S  S152  1  0.43434244  0.32830052  0.95761070  1
  S  S153  1  0.43265226  0.83057603  0.29102395  1
  S  S154  1  0.42487616  0.82529269  0.62128718  1
  S  S155  1  0.43211660  0.82883090  0.95665844  1
  S  S156  1  0.93608792  0.32867544  0.29293051  1
  S  S157  1  0.93429556  0.33698279  0.62739192  1
  S  S158  1  0.93337224  0.32936201  0.96253755  1
  S  S159  1  0.93035403  0.82675474  0.28847391  1
  S  S160  1  0.94049373  0.83006800  0.61997667  1
  S  S161  1  0.93680856  0.83301500  0.96046859  1
  S  S162  1  0.16947940  0.06414914  0.20854394  1
  S  S163  1  0.17576528  0.06303680  0.54011825  1
  S  S164  1  0.16774567  0.06898052  0.87855998  1
  S  S165  1  0.17246458  0.56833187  0.20785451  1
  S  S166  1  0.17178626  0.56785016  0.53658849  1
  S  S167  1  0.16689536  0.56034671  0.87453094  1
  S  S168  1  0.66737658  0.06438432  0.20703134  1
  S  S169  1  0.67601439  0.07401914  0.54860976  1
  S  S170  1  0.67345556  0.06748064  0.87705124  1
  S  S171  1  0.66181286  0.56849928  0.20943744  1
  S  S172  1  0.67106064  0.57652371  0.54503088  1
  S  S173  1  0.66260003  0.56327640  0.87617075  1
  O  O174  1  0.37100639  0.21550040  0.07257377  1
  O  O175  1  0.36937990  0.22009220  0.40458633  1
  O  O176  1  0.37790997  0.21396003  0.73438401  1
  O  O177  1  0.36863148  0.71961564  0.07981046  1
  O  O178  1  0.37293070  0.71615960  0.40327419  1
  O  O179  1  0.37493788  0.71580960  0.73946893  1
  O  O180  1  0.86886129  0.22107451  0.08160418  1
  O  O181  1  0.87655818  0.22101623  0.40510091  1
  O  O182  1  0.85243111  0.22212608  0.74833410  1
  O  O183  1  0.86710051  0.72057738  0.08180137  1
  O  O184  1  0.86787146  0.72797591  0.41686299  1
  O  O185  1  0.85678258  0.72257646  0.74875967  1
  O  O186  1  0.28364054  0.12874543  0.09128385  1
  O  O187  1  0.27025884  0.13731554  0.41143700  1
  O  O188  1  0.28767090  0.13681086  0.76111162  1
  O  O189  1  0.28074978  0.62803822  0.09206723  1
  O  O190  1  0.28109829  0.63133954  0.41797140  1
  O  O191  1  0.28747700  0.63416089  0.76427034  1
  O  O192  1  0.78229400  0.13044483  0.09569397  1
  O  O193  1  0.77760673  0.13706467  0.40938797  1
  O  O194  1  0.77737460  0.12402012  0.76545243  1
  O  O195  1  0.78140875  0.62869775  0.09519041  1
  O  O196  1  0.78069616  0.63496230  0.42568508  1
  O  O197  1  0.78007719  0.62828219  0.77072550  1
  O  O198  1  0.13623051  0.27711630  0.25196537  1
  O  O199  1  0.14633968  0.27526692  0.58278418  1
  O  O200  1  0.12868637  0.27722448  0.92609910  1
  O  O201  1  0.13213886  0.78050532  0.25781466  1
  O  O202  1  0.14083910  0.77176153  0.57979163  1
  O  O203  1  0.13481531  0.77942051  0.92623944  1
  O  O204  1  0.62627471  0.28034140  0.25855459  1
  O  O205  1  0.63418001  0.29595347  0.59655633  1
  O  O206  1  0.62893077  0.28124371  0.92872410  1
  O  O207  1  0.62943065  0.78289953  0.26063422  1
  O  O208  1  0.62047738  0.78562457  0.60360775  1
  O  O209  1  0.62858241  0.78327084  0.92749128  1
  O  O210  1  0.22197612  0.36986510  0.23775874  1
  O  O211  1  0.21625852  0.37325132  0.55902900  1
  O  O212  1  0.22362652  0.36230270  0.91579557  1
  O  O213  1  0.22125718  0.86883881  0.24360662  1
  O  O214  1  0.22330744  0.86827185  0.56978789  1
  O  O215  1  0.22764781  0.86719528  0.91670085  1
  O  O216  1  0.71101479  0.36732653  0.23544112  1
  O  O217  1  0.71517474  0.38643705  0.57275737  1
  O  O218  1  0.71827631  0.36604252  0.91115770  1
  O  O219  1  0.71791874  0.86849070  0.24244591  1
  O  O220  1  0.71383992  0.85839671  0.57663247  1
  O  O221  1  0.71960545  0.86815530  0.91034889  1
  O  O222  1  0.42219344  0.12735635  0.14771479  1
  O  O223  1  0.40476013  0.13500153  0.48426157  1
  O  O224  1  0.42501349  0.13207494  0.81736318  1
  O  O225  1  0.41915232  0.62897192  0.15094487  1
  O  O226  1  0.41867069  0.63018884  0.48259190  1
  O  O227  1  0.42606810  0.62974992  0.81790529  1
  O  O228  1  0.92118066  0.12829875  0.15100524  1
  O  O229  1  0.91277177  0.13338675  0.48390908  1
  O  O230  1  0.91575456  0.13952314  0.82475226  1
  O  O231  1  0.92055398  0.62663305  0.14897373  1
  O  O232  1  0.91927357  0.63400599  0.48604144  1
  O  O233  1  0.91880276  0.63735904  0.82201477  1
  O  O234  1  0.36888289  0.07727379  0.01263922  1
  O  O235  1  0.36480863  0.08146234  0.34742890  1
  O  O236  1  0.36831939  0.07545030  0.68184946  1
  O  O237  1  0.36861844  0.58146791  0.01504889  1
  O  O238  1  0.37200454  0.57744121  0.34694271  1
  O  O239  1  0.36836400  0.57697617  0.68348110  1
  O  O240  1  0.86669089  0.08305057  0.01586152  1
  O  O241  1  0.87287454  0.08225210  0.34657329  1
  O  O242  1  0.86719099  0.08540027  0.68887842  1
  O  O243  1  0.86446703  0.58313869  0.01375004  1
  O  O244  1  0.86914345  0.59022787  0.35070332  1
  O  O245  1  0.86061802  0.58586470  0.68584838  1
  O  O246  1  0.08341136  0.36833589  0.18255230  1
  O  O247  1  0.07779463  0.36213223  0.51438185  1
  O  O248  1  0.08636842  0.36791261  0.85186750  1
  O  O249  1  0.08324899  0.86468126  0.17897356  1
  O  O250  1  0.08500879  0.86445038  0.51276991  1
  O  O251  1  0.09071032  0.86988082  0.85240330  1
  O  O252  1  0.57202437  0.37065934  0.18712445  1
  O  O253  1  0.57704456  0.37419815  0.51288667  1
  O  O254  1  0.58033324  0.36686958  0.84925752  1
  O  O255  1  0.57956931  0.86695510  0.18117750  1
  O  O256  1  0.57709731  0.86431913  0.51689891  1
  O  O257  1  0.58197276  0.86853315  0.84816381  1
  O  O258  1  0.13990048  0.41362985  0.31907178  1
  O  O259  1  0.14354412  0.41211134  0.65065658  1
  O  O260  1  0.13659018  0.41492327  0.98979134  1
  O  O261  1  0.12958720  0.91885629  0.31499880  1
  O  O262  1  0.13892208  0.90839940  0.65009492  1
  O  O263  1  0.13652133  0.91749594  0.98810793  1
  O  O264  1  0.63434856  0.41898850  0.32178316  1
  O  O265  1  0.62450549  0.43333800  0.64700655  1
  O  O266  1  0.62882463  0.41970534  0.98474159  1
  O  O267  1  0.62923761  0.92218050  0.31710154  1
  O  O268  1  0.63097124  0.92453784  0.65197733  1
  O  O269  1  0.63125233  0.92208493  0.98374409  1
  O  O270  1  0.02846937  0.19949974  0.10307891  1
  O  O271  1  0.02919536  0.20541728  0.43253852  1
  O  O272  1  0.02660313  0.19593988  0.77646558  1
  O  O273  1  0.02516034  0.70228305  0.10378205  1
  O  O274  1  0.02956520  0.69960158  0.43299481  1
  O  O275  1  0.03149741  0.70072512  0.77033990  1
  O  O276  1  0.53214521  0.19843149  0.10311693  1
  O  O277  1  0.53034647  0.19950549  0.43258965  1
  O  O278  1  0.54162735  0.20161481  0.77475154  1
  O  O279  1  0.52806207  0.69971032  0.10529912  1
  O  O280  1  0.53407595  0.69990367  0.43994261  1
  O  O281  1  0.53320503  0.70168880  0.77396419  1
  O  O282  1  0.30833858  0.47053102  0.06321542  1
  O  O283  1  0.30414231  0.47197160  0.39462316  1
  O  O284  1  0.31289252  0.46021876  0.73107465  1
  O  O285  1  0.30450519  0.97018853  0.06555621  1
  O  O286  1  0.29818301  0.97191543  0.39732239  1
  O  O287  1  0.31047853  0.96098720  0.72826672  1
  O  O288  1  0.79595426  0.46717992  0.05741528  1
  O  O289  1  0.80736325  0.47176630  0.40170516  1
  O  O290  1  0.79079012  0.47037127  0.72938432  1
  O  O291  1  0.80178975  0.96976806  0.06405398  1
  O  O292  1  0.79565662  0.97162729  0.39182317  1
  O  O293  1  0.78558333  0.97129500  0.73024529  1
  O  O294  1  0.46357111  0.29422321  0.22664202  1
  O  O295  1  0.46399973  0.31706671  0.56135947  1
  O  O296  1  0.46967199  0.29906761  0.89612404  1
  O  O297  1  0.46886673  0.79940031  0.22946622  1
  O  O298  1  0.46005221  0.79432297  0.55874418  1
  O  O299  1  0.47081729  0.79992033  0.89713406  1
  O  O300  1  0.97664975  0.29538830  0.23365322  1
  O  O301  1  0.95544003  0.31247030  0.55580181  1
  O  O302  1  0.97181561  0.29938250  0.90515355  1
  O  O303  1  0.96894729  0.79875912  0.22832795  1
  O  O304  1  0.97982960  0.79237776  0.55967370  1
  O  O305  1  0.97600043  0.80674457  0.90349480  1
  O  O306  1  0.19729607  0.02515370  0.26777223  1
  O  O307  1  0.20869407  0.02542654  0.59901474  1
  O  O308  1  0.19858832  0.03468576  0.94364366  1
  O  O309  1  0.20132569  0.53068347  0.26814869  1
  O  O310  1  0.19943715  0.53480159  0.59807614  1
  O  O311  1  0.20194449  0.53023197  0.94247365  1
  O  O312  1  0.69769631  0.02830244  0.26746805  1
  O  O313  1  0.69739138  0.03312001  0.60725015  1
  O  O314  1  0.70342727  0.02883038  0.93730669  1
  O  O315  1  0.68377115  0.53498196  0.27093947  1
  O  O316  1  0.69963346  0.54553592  0.60905065  1
  O  O317  1  0.69564062  0.52912327  0.93877181  1
  O  O318  1  0.07833527  0.08545827  0.03647795  1
  O  O319  1  0.08909422  0.09462607  0.37398260  1
  O  O320  1  0.06653965  0.07720701  0.70436110  1
  O  O321  1  0.07750731  0.58861110  0.04077927  1
  O  O322  1  0.08942534  0.59137025  0.36953138  1
  O  O323  1  0.09810793  0.59444259  0.71441980  1
  O  O324  1  0.58333948  0.08450429  0.03641420  1
  O  O325  1  0.59038121  0.09006209  0.37073238  1
  O  O326  1  0.60278178  0.09262210  0.71321836  1
  O  O327  1  0.57900437  0.58498121  0.03894200  1
  O  O328  1  0.58664643  0.58751686  0.37277145  1
  O  O329  1  0.57918816  0.58479571  0.70668158  1
  O  O330  1  0.41983607  0.41870467  0.13140301  1
  O  O331  1  0.41776148  0.41967086  0.45995211  1
  O  O332  1  0.41980270  0.40941461  0.80461425  1
  O  O333  1  0.41767479  0.91977820  0.13369583  1
  O  O334  1  0.40919653  0.91463569  0.45835516  1
  O  O335  1  0.41624317  0.90915739  0.80363678  1
  O  O336  1  0.90886133  0.41640378  0.12536613  1
  O  O337  1  0.91248193  0.40640377  0.45813622  1
  O  O338  1  0.90316202  0.41671777  0.79487389  1
  O  O339  1  0.91475980  0.91992412  0.13399218  1
  O  O340  1  0.90890995  0.91313411  0.45120196  1
  O  O341  1  0.90263195  0.92099501  0.78416104  1
  O  O342  1  0.42193154  0.41360601  0.29594344  1
  O  O343  1  0.40989041  0.41980474  0.63545798  1
  O  O344  1  0.41752896  0.41131525  0.96409773  1
  O  O345  1  0.41558345  0.91194630  0.29378866  1
  O  O346  1  0.40096643  0.90297415  0.62155357  1
  O  O347  1  0.41285779  0.91033762  0.96115976  1
  O  O348  1  0.92449413  0.40895963  0.29715824  1
  O  O349  1  0.91508373  0.42033792  0.64215841  1
  O  O350  1  0.91273212  0.41035343  0.96612310  1
  O  O351  1  0.90880059  0.90663850  0.29000257  1
  O  O352  1  0.91295526  0.90177525  0.60584165  1
  O  O353  1  0.91811099  0.91637756  0.96548454  1
  O  O354  1  0.08719644  0.08179550  0.20236609  1
  O  O355  1  0.09974347  0.08646248  0.54206377  1
  O  O356  1  0.08972698  0.09586230  0.87982691  1
  O  O357  1  0.09097568  0.58687485  0.20123159  1
  O  O358  1  0.08977893  0.58695851  0.52580889  1
  O  O359  1  0.09137507  0.59011931  0.87994733  1
  O  O360  1  0.58382945  0.07877689  0.20010349  1
  O  O361  1  0.60036886  0.10232449  0.54260315  1
  O  O362  1  0.59174000  0.08314845  0.87443641  1
  O  O363  1  0.57696614  0.58506205  0.19675278  1
  O  O364  1  0.58557067  0.58818308  0.53431605  1
  O  O365  1  0.57940239  0.57811901  0.87401263  1
  O  O366  1  0.13844611  0.21760857  0.05937781  1
  O  O367  1  0.13542975  0.22727432  0.38522226  1
  O  O368  1  0.13326296  0.20822900  0.72968750  1
  O  O369  1  0.13798692  0.72009408  0.06426068  1
  O  O370  1  0.13856618  0.72583165  0.39050072  1
  O  O371  1  0.14117851  0.73019950  0.73142395  1
  O  O372  1  0.64056758  0.21772455  0.05813049  1
  O  O373  1  0.63215969  0.22362197  0.38122751  1
  O  O374  1  0.63880310  0.22528960  0.71942636  1
  O  O375  1  0.63601217  0.71753651  0.05942116  1
  O  O376  1  0.64027116  0.72199585  0.39272779  1
  O  O377  1  0.63904766  0.71595886  0.72502936  1
  O  O378  1  0.28623391  0.36176413  0.10755206  1
  O  O379  1  0.28485847  0.36247546  0.43821933  1
  O  O380  1  0.28429288  0.35272670  0.77570240  1
  O  O381  1  0.28464816  0.86453005  0.11468994  1
  O  O382  1  0.27638014  0.85974728  0.43714643  1
  O  O383  1  0.28036149  0.85803853  0.77602424  1
  O  O384  1  0.77651931  0.36154219  0.10535845  1
  O  O385  1  0.77762686  0.36202239  0.44127777  1
  O  O386  1  0.76931490  0.36308974  0.77338525  1
  O  O387  1  0.78055641  0.86519749  0.11291161  1
  O  O388  1  0.77701180  0.87037370  0.44403228  1
  O  O389  1  0.77498066  0.86459512  0.77865400  1
  O  O390  1  0.36005136  0.28429234  0.28017795  1
  O  O391  1  0.35873129  0.28213124  0.60437467  1
  O  O392  1  0.36346213  0.27723929  0.94344726  1
  O  O393  1  0.36040065  0.77922781  0.27388398  1
  O  O394  1  0.35797812  0.76909283  0.60860362  1
  O  O395  1  0.36408027  0.77454602  0.94192718  1
  O  O396  1  0.86289084  0.27673356  0.27134645  1
  O  O397  1  0.86562178  0.28497498  0.61640650  1
  O  O398  1  0.86146768  0.27687473  0.94619771  1
  O  O399  1  0.85973541  0.77218473  0.27000049  1
  O  O400  1  0.87324706  0.77195594  0.60584866  1
  O  O401  1  0.86540531  0.78227880  0.94522406  1
  O  O402  1  0.22184340  0.13490495  0.22637798  1
  O  O403  1  0.23230693  0.13093392  0.55270322  1
  O  O404  1  0.22472156  0.13816901  0.89629184  1
  O  O405  1  0.22564084  0.63961456  0.22591972  1
  O  O406  1  0.22538810  0.63862957  0.55170305  1
  O  O407  1  0.22409734  0.62358201  0.88308379  1
  O  O408  1  0.71602539  0.13779105  0.22273187  1
  O  O409  1  0.73753213  0.13680667  0.56465673  1
  O  O410  1  0.72375010  0.14051449  0.89657885  1
  O  O411  1  0.71267904  0.63998369  0.22430897  1
  O  O412  1  0.71780534  0.64972123  0.55796908  1
  O  O413  1  0.70970918  0.63531245  0.88828064  1
  O  O414  1  0.49472085  0.33110064  0.03049388  1
  O  O415  1  0.49486138  0.33087254  0.36207208  1
  O  O416  1  0.48936661  0.33453393  0.69305055  1
  O  O417  1  0.49281398  0.83512603  0.03095682  1
  O  O418  1  0.49110541  0.83184141  0.36314125  1
  O  O419  1  0.48757742  0.83129454  0.69323514  1
  O  O420  1  0.99064961  0.33522042  0.03810352  1
  O  O421  1  0.99084209  0.32413307  0.36631357  1
  O  O422  1  1.00251216  0.33757043  0.69042295  1
  O  O423  1  0.99383755  0.84025500  0.03688348  1
  O  O424  1  0.98879021  0.82958710  0.36090245  1
  O  O425  1  0.99844483  0.84509904  0.69384753  1
  O  O426  1  0.16704234  0.00577849  0.13503523  1
  O  O427  1  0.16893328  0.00375865  0.46455566  1
  O  O428  1  0.16253841  0.00731997  0.80999777  1
  O  O429  1  0.17154440  0.50962119  0.13547255  1
  O  O430  1  0.17171007  0.50777080  0.46413933  1
  O  O431  1  0.15270799  0.49260148  0.80732339  1
  O  O432  1  0.66634110  0.00570558  0.13399299  1
  O  O433  1  0.67236958  0.01093640  0.47550849  1
  O  O434  1  0.67260220  0.01076428  0.80416941  1
  O  O435  1  0.66209817  0.50804726  0.13758661  1
  O  O436  1  0.67257177  0.51488937  0.47440237  1
  O  O437  1  0.65688722  0.50255492  0.80325813  1
  O  O438  1  0.00703351  0.16180711  0.29778073  1
  O  O439  1  0.00096952  0.16500340  0.64188849  1
  O  O440  1  0.00703464  0.17014031  0.96986413  1
  O  O441  1  0.00978222  0.66836219  0.30016565  1
  O  O442  1  0.01679047  0.66714637  0.63864668  1
  O  O443  1  0.00851656  0.67306024  0.97144657  1
  O  O444  1  0.50322313  0.15759382  0.29747639  1
  O  O445  1  0.50810861  0.15596960  0.63941624  1
  O  O446  1  0.50949742  0.16500375  0.96876563  1
  O  O447  1  0.50896676  0.66728966  0.30589852  1
  O  O448  1  0.50630275  0.66568322  0.63885898  1
  O  O449  1  0.50467563  0.66647151  0.97165482  1
  O  O450  1  0.33715209  0.49274519  0.19653524  1
  O  O451  1  0.33725047  0.49276410  0.52893348  1
  O  O452  1  0.33335285  0.48521146  0.86301046  1
  O  O453  1  0.33713006  0.99647495  0.20000334  1
  O  O454  1  0.33187675  0.98877645  0.53031558  1
  O  O455  1  0.33274205  0.99035550  0.86099294  1
  O  O456  1  0.82726142  0.49415099  0.19176145  1
  O  O457  1  0.83989991  0.48882662  0.53373928  1
  O  O458  1  0.82229650  0.49246339  0.86302572  1
  O  O459  1  0.83438406  0.99689430  0.19914674  1
  O  O460  1  0.84396692  1.00239138  0.52688398  1
  O  O461  1  0.83336307  0.99384084  0.86605133  1
