# generated using pymatgen
data_Na31Fe20(SO4)36
_symmetry_space_group_name_H-M   'P 1'
_cell_length_a   18.07839208
_cell_length_b   18.08243402
_cell_length_c   19.71981923
_cell_angle_alpha   107.59190159
_cell_angle_beta   107.55071856
_cell_angle_gamma   90.73183431
_symmetry_Int_Tables_number   1
_chemical_formula_structural   Na31Fe20(SO4)36
_chemical_formula_sum   'Na62 Fe40 S72 O288'
_cell_volume   5820.49291412
_cell_formula_units_Z   2
loop_
 _symmetry_equiv_pos_site_id
 _symmetry_equiv_pos_as_xyz
  1  'x, y, z'
loop_
 _atom_site_type_symbol
 _atom_site_label
 _atom_site_symmetry_multiplicity
 _atom_site_fract_x
 _atom_site_fract_y
 _atom_site_fract_z
 _atom_site_occupancy
  Na  Na0  1  0.12577344  0.37138074  0.07816131  1
  Na  Na1  1  0.13505192  0.38532308  0.42323649  1
  Na  Na2  1  0.13187505  0.36308451  0.74869311  1
  Na  Na3  1  0.13750282  0.86852300  0.08168147  1
  Na  Na4  1  0.13734049  0.86729513  0.42123959  1
  Na  Na5  1  0.12894431  0.83322967  0.71894940  1
  Na  Na6  1  0.63305997  0.36056644  0.08772192  1
  Na  Na7  1  0.63507899  0.37098230  0.41630329  1
  Na  Na8  1  0.63349038  0.36393463  0.75011438  1
  Na  Na9  1  0.63620593  0.86141897  0.07782140  1
  Na  Na10  1  0.64827945  0.86075502  0.42554592  1
  Na  Na11  1  0.63215883  0.85873222  0.74884921  1
  Na  Na12  1  0.37211741  0.13300771  0.25008563  1
  Na  Na13  1  0.36440697  0.13469597  0.58200400  1
  Na  Na14  1  0.37065308  0.14357067  0.92914090  1
  Na  Na15  1  0.36646896  0.63265425  0.25329121  1
  Na  Na16  1  0.33995600  0.62855418  0.57576458  1
  Na  Na17  1  0.36018970  0.63516779  0.91391033  1
  Na  Na18  1  0.86498909  0.13436882  0.24604633  1
  Na  Na19  1  0.85535491  0.12660420  0.56758426  1
  Na  Na20  1  0.88119324  0.12766796  0.91395388  1
  Na  Na21  1  0.86965216  0.62126014  0.24648115  1
  Na  Na22  1  0.88337824  0.64211632  0.59281907  1
  Na  Na23  1  0.83766354  0.65619076  0.91186640  1
  Na  Na24  1  0.99928273  0.01637594  0.06821204  1
  Na  Na25  1  0.49946839  0.48704575  0.08520549  1
  Na  Na26  1  0.49262691  0.01416148  0.09225645  1
  Na  Na27  1  1.01762566  -0.03989445  0.80458635  1
  Na  Na28  1  0.99716058  0.52390703  0.73231835  1
  Na  Na29  1  0.54461232  -0.01650658  0.35887864  1
  Na  Na30  1  0.47973797  0.51013853  0.41637272  1
  Na  Na31  1  0.46077557  0.50741754  0.74201180  1
  Na  Na32  1  0.97663078  0.00278792  0.42459945  1
  Na  Na33  1  0.48346362  0.50678073  0.58864054  1
  Na  Na34  1  0.51134040  0.45546192  0.24369754  1
  Na  Na35  1  0.00414483  0.98314376  0.60467958  1
  Na  Na36  1  0.00229010  0.48659161  0.92443041  1
  Na  Na37  1  0.50832533  0.48966969  0.91604218  1
  Na  Na38  1  0.50760344  0.98770903  0.58579242  1
  Na  Na39  1  -0.01238579  0.52971269  0.40637561  1
  Na  Na40  1  0.00791475  0.98842812  0.24933482  1
  Na  Na41  1  0.51335014  0.99426146  0.89775657  1
  Na  Na42  1  0.76047676  0.25595169  -0.00444714  1
  Na  Na43  1  0.25646790  0.26157552  0.33092007  1
  Na  Na44  1  0.75101976  0.24288826  0.66082451  1
  Na  Na45  1  0.24115488  0.24708270  0.00355537  1
  Na  Na46  1  0.74319748  0.73530095  0.33922795  1
  Na  Na47  1  0.23802794  0.73227368  0.34435915  1
  Na  Na48  1  0.24833738  0.75357737  -0.00411887  1
  Na  Na49  1  0.25572833  0.26039585  0.66157090  1
  Na  Na50  1  0.76852869  0.76156855  0.66151827  1
  Na  Na51  1  0.76120577  0.26271287  0.32678703  1
  Na  Na52  1  0.76200633  0.26349701  0.16336653  1
  Na  Na53  1  0.75205823  0.25318649  0.49203377  1
  Na  Na54  1  0.75412830  0.25211151  0.82989347  1
  Na  Na55  1  0.24587264  0.74535899  0.17287040  1
  Na  Na56  1  0.26138206  0.75813980  0.82369014  1
  Na  Na57  1  0.21563229  0.72536266  0.51205642  1
  Na  Na58  1  0.75435433  0.75564084  0.15905830  1
  Na  Na59  1  0.25939901  0.26504743  0.49392829  1
  Na  Na60  1  0.23982489  0.24401048  0.83924756  1
  Na  Na61  1  0.25808122  0.25807473  0.16403609  1
  Fe  Fe62  1  0.46742209  0.80272856  0.45065837  1
  Fe  Fe63  1  0.96900716  0.29678916  0.78984417  1
  Fe  Fe64  1  0.46289679  0.30614894  0.78328766  1
  Fe  Fe65  1  0.96172843  0.80838266  0.11292041  1
  Fe  Fe66  1  0.46820688  0.80934108  0.12149218  1
  Fe  Fe67  1  0.96589557  0.80286797  0.45857851  1
  Fe  Fe68  1  0.96735270  0.31097118  0.12406463  1
  Fe  Fe69  1  0.46190356  0.80300026  0.78119997  1
  Fe  Fe70  1  0.46654763  0.30912856  0.45467385  1
  Fe  Fe71  1  0.96738805  0.31518108  0.45682052  1
  Fe  Fe72  1  0.69408745  0.53413029  0.05085554  1
  Fe  Fe73  1  0.19641897  0.52946976  0.70230999  1
  Fe  Fe74  1  0.19171104  0.53959714  0.04358529  1
  Fe  Fe75  1  0.69361670  0.03408268  0.04650987  1
  Fe  Fe76  1  0.19231094  0.03652563  0.04407079  1
  Fe  Fe77  1  0.70110624  0.53422090  0.37985458  1
  Fe  Fe78  1  0.69100958  0.03563784  0.71359254  1
  Fe  Fe79  1  0.19674797  0.03385646  0.38282030  1
  Fe  Fe80  1  0.68839169  0.53263893  0.71546773  1
  Fe  Fe81  1  0.19579442  0.03672162  0.71686887  1
  Fe  Fe82  1  0.53680681  0.18706452  0.54330622  1
  Fe  Fe83  1  0.03494200  0.19242289  0.54723642  1
  Fe  Fe84  1  0.53456117  0.69071303  0.21475453  1
  Fe  Fe85  1  0.53679282  0.68926223  0.88055573  1
  Fe  Fe86  1  0.02326519  0.70711626  0.87473233  1
  Fe  Fe87  1  0.53417180  0.19404882  0.88088217  1
  Fe  Fe88  1  0.03922403  0.19306401  0.21530241  1
  Fe  Fe89  1  0.53602625  0.69131967  0.55079793  1
  Fe  Fe90  1  0.03182999  0.69281294  0.20946706  1
  Fe  Fe91  1  0.53358558  0.20203904  0.21429058  1
  Fe  Fe92  1  0.31171567  0.96341231  0.62051639  1
  Fe  Fe93  1  0.79801031  0.97159441  0.28638902  1
  Fe  Fe94  1  0.80637791  0.46475243  0.62223716  1
  Fe  Fe95  1  0.29656410  0.47093089  0.28629782  1
  Fe  Fe96  1  0.30834662  0.46626288  0.95348532  1
  Fe  Fe97  1  0.80389760  0.96124902  0.94656768  1
  Fe  Fe98  1  0.80926733  0.46730579  0.95762288  1
  Fe  Fe99  1  0.80530961  0.96553574  0.61909867  1
  Fe  Fe100  1  0.31176671  0.96494248  0.28711910  1
  Fe  Fe101  1  0.30895709  0.96371051  0.94985136  1
  S  S102  1  0.36136359  0.13862942  0.08352397  1
  S  S103  1  0.35934853  0.14058739  0.41738866  1
  S  S104  1  0.36001140  0.14027351  0.74963652  1
  S  S105  1  0.35980058  0.64374940  0.08213946  1
  S  S106  1  0.36086943  0.64168164  0.41868362  1
  S  S107  1  0.36048047  0.64043174  0.75126233  1
  S  S108  1  0.86268026  0.13689915  0.08301445  1
  S  S109  1  0.86306432  0.14302527  0.41480467  1
  S  S110  1  0.85429778  0.13907453  0.74437929  1
  S  S111  1  0.85732230  0.64259095  0.08159799  1
  S  S112  1  0.85905049  0.64441690  0.41546890  1
  S  S113  1  0.85412501  0.63741371  0.75279276  1
  S  S114  1  0.14139707  0.35737940  0.24849236  1
  S  S115  1  0.14160671  0.35571976  0.58648181  1
  S  S116  1  0.13995844  0.36270668  0.91593867  1
  S  S117  1  0.14146620  0.86114228  0.25026494  1
  S  S118  1  0.13931937  0.86754113  0.58036366  1
  S  S119  1  0.14456904  0.86209136  0.91617000  1
  S  S120  1  0.64495281  0.35900102  0.25293387  1
  S  S121  1  0.64195568  0.35814391  0.58449094  1
  S  S122  1  0.63808074  0.36042656  0.91630107  1
  S  S123  1  0.64106056  0.85429702  0.24914208  1
  S  S124  1  0.63774473  0.85867213  0.58468657  1
  S  S125  1  0.63607992  0.85951878  0.91382827  1
  S  S126  1  0.06935073  0.17248799  0.04548624  1
  S  S127  1  0.07187131  0.16511245  0.37417954  1
  S  S128  1  0.06702124  0.16762867  0.70741045  1
  S  S129  1  0.06870298  0.67859672  0.04023931  1
  S  S130  1  0.06280501  0.67742815  0.37380021  1
  S  S131  1  0.07278601  0.66126900  0.71387918  1
  S  S132  1  0.56983592  0.16531682  0.04046364  1
  S  S133  1  0.56786863  0.17968012  0.37941399  1
  S  S134  1  0.56536659  0.16982051  0.70826716  1
  S  S135  1  0.56403453  0.66695954  0.04203494  1
  S  S136  1  0.56677114  0.66526994  0.37313741  1
  S  S137  1  0.56331906  0.66546743  0.70783793  1
  S  S138  1  0.32957145  0.43931040  0.12371689  1
  S  S139  1  0.33799707  0.43571546  0.45953159  1
  S  S140  1  0.33004649  0.43498879  0.79184796  1
  S  S141  1  0.33372119  0.93267825  0.12519889  1
  S  S142  1  0.33366871  0.93105027  0.45626054  1
  S  S143  1  0.33182039  0.93359684  0.79198557  1
  S  S144  1  0.82467492  0.43007897  0.12118452  1
  S  S145  1  0.83082707  0.43494848  0.46193386  1
  S  S146  1  0.82750133  0.42523028  0.79170551  1
  S  S147  1  0.82666895  0.93234800  0.12465962  1
  S  S148  1  0.83368416  0.93040676  0.45487211  1
  S  S149  1  0.82116991  0.93381455  0.78521426  1
  S  S150  1  0.43192410  0.33332261  0.29228268  1
  S  S151  1  0.43897872  0.32872561  0.62325994  1
  S  S152  1  0.43533362  0.33347946  0.95632532  1
  S  S153  1  0.43419737  0.82798315  0.29007446  1
  S  S154  1  0.42928632  0.82582273  0.61901968  1
  S  S155  1  0.43479757  0.83036960  0.95823467  1
  S  S156  1  0.93843704  0.32775562  0.29125926  1
  S  S157  1  0.92910583  0.32513794  0.62578959  1
  S  S158  1  0.93098855  0.33286140  0.95858014  1
  S  S159  1  0.93160463  0.83300044  0.29111030  1
  S  S160  1  0.93567640  0.83778985  0.62672026  1
  S  S161  1  0.93554154  0.84004588  0.96533692  1
  S  S162  1  0.17316290  0.06582042  0.21054918  1
  S  S163  1  0.17191779  0.07096151  0.54281841  1
  S  S164  1  0.17567754  0.06746530  0.87846869  1
  S  S165  1  0.17107043  0.57288327  0.20524169  1
  S  S166  1  0.16403523  0.56252280  0.54268320  1
  S  S167  1  0.17054650  0.56606075  0.87354668  1
  S  S168  1  0.66894170  0.07080492  0.20775651  1
  S  S169  1  0.66240082  0.05954957  0.53926601  1
  S  S170  1  0.67120914  0.07021504  0.87630557  1
  S  S171  1  0.66268249  0.56366699  0.20549601  1
  S  S172  1  0.66920912  0.56676626  0.54415704  1
  S  S173  1  0.65864217  0.56165332  0.87320143  1
  O  O174  1  0.36524813  0.21275073  0.06893551  1
  O  O175  1  0.36553484  0.22087335  0.41162161  1
  O  O176  1  0.36783278  0.21772689  0.73737767  1
  O  O177  1  0.37090674  0.72182582  0.07237028  1
  O  O178  1  0.37442828  0.71849951  0.40589121  1
  O  O179  1  0.36504061  0.72303222  0.75163964  1
  O  O180  1  0.87067388  0.21700113  0.07731146  1
  O  O181  1  0.87743698  0.22229985  0.40820113  1
  O  O182  1  0.86714865  0.22071893  0.74166558  1
  O  O183  1  0.86709171  0.72439351  0.08112599  1
  O  O184  1  0.87009738  0.72878867  0.41254653  1
  O  O185  1  0.86006731  0.71023999  0.73717789  1
  O  O186  1  0.28369870  0.12663824  0.09514068  1
  O  O187  1  0.28134487  0.12988402  0.42769806  1
  O  O188  1  0.28168150  0.13317269  0.75956315  1
  O  O189  1  0.27868468  0.63675696  0.08574642  1
  O  O190  1  0.28509786  0.63845620  0.42996111  1
  O  O191  1  0.28140822  0.62470808  0.75877158  1
  O  O192  1  0.78527274  0.12779293  0.09451826  1
  O  O193  1  0.78886443  0.13682833  0.42853865  1
  O  O194  1  0.77155128  0.13515887  0.74784459  1
  O  O195  1  0.77907413  0.63106609  0.09127036  1
  O  O196  1  0.77348764  0.63512413  0.40710303  1
  O  O197  1  0.77521481  0.62082133  0.75903253  1
  O  O198  1  0.13687971  0.27444970  0.25131066  1
  O  O199  1  0.12413165  0.27999949  0.59950735  1
  O  O200  1  0.13539803  0.28838773  0.92976138  1
  O  O201  1  0.13359711  0.78093347  0.25484870  1
  O  O202  1  0.13567681  0.79144545  0.59011651  1
  O  O203  1  0.12885367  0.78460351  0.92543682  1
  O  O204  1  0.62913948  0.28223917  0.26551764  1
  O  O205  1  0.63253153  0.27861072  0.59145863  1
  O  O206  1  0.63004496  0.28120836  0.92448463  1
  O  O207  1  0.63347244  0.77121571  0.24931160  1
  O  O208  1  0.62849158  0.78104849  0.59541704  1
  O  O209  1  0.62508647  0.78220930  0.92317770  1
  O  O210  1  0.22091614  0.36820941  0.23942536  1
  O  O211  1  0.21943691  0.35664922  0.57938811  1
  O  O212  1  0.21836739  0.37489606  0.90587207  1
  O  O213  1  0.21915872  0.87170628  0.23966289  1
  O  O214  1  0.21453153  0.88272481  0.56617990  1
  O  O215  1  0.22892490  0.86562955  0.91779092  1
  O  O216  1  0.72439148  0.36147598  0.24903854  1
  O  O217  1  0.72179363  0.36661812  0.57788990  1
  O  O218  1  0.71642543  0.36956071  0.90758598  1
  O  O219  1  0.72071336  0.86811954  0.24356472  1
  O  O220  1  0.71674584  0.86849043  0.57868010  1
  O  O221  1  0.71332350  0.86984578  0.90452975  1
  O  O222  1  0.42209822  0.13503362  0.15329391  1
  O  O223  1  0.41908252  0.13133353  0.48384288  1
  O  O224  1  0.41919805  0.13548063  0.81857667  1
  O  O225  1  0.41473717  0.63761004  0.15275756  1
  O  O226  1  0.42356227  0.63182450  0.48432224  1
  O  O227  1  0.41955637  0.63172318  0.82048332  1
  O  O228  1  0.92429544  0.12562992  0.14810297  1
  O  O229  1  0.92658471  0.12940796  0.47873104  1
  O  O230  1  0.90869195  0.12485926  0.80855604  1
  O  O231  1  0.91787301  0.63012578  0.14591303  1
  O  O232  1  0.90791790  0.63765675  0.48614868  1
  O  O233  1  0.91163144  0.63770952  0.82584619  1
  O  O234  1  0.37292820  0.07439805  0.01968573  1
  O  O235  1  0.36512254  0.08390774  0.34734361  1
  O  O236  1  0.36690188  0.07965088  0.68210110  1
  O  O237  1  0.37082531  0.58283867  0.01679590  1
  O  O238  1  0.36705988  0.58036386  0.35019663  1
  O  O239  1  0.37310711  0.58655764  0.68486988  1
  O  O240  1  0.86756056  0.07859026  0.01308370  1
  O  O241  1  0.86696204  0.08428535  0.34422278  1
  O  O242  1  0.85750821  0.08468009  0.67157137  1
  O  O243  1  0.85987700  0.58821462  0.00888561  1
  O  O244  1  0.87648902  0.59133861  0.35108342  1
  O  O245  1  0.86975683  0.57239646  0.69117748  1
  O  O246  1  0.08340051  0.36345176  0.17876317  1
  O  O247  1  0.08270021  0.36314078  0.51835868  1
  O  O248  1  0.07990797  0.36584003  0.84571424  1
  O  O249  1  0.07975276  0.87329505  0.18596406  1
  O  O250  1  0.07519937  0.87480272  0.51318627  1
  O  O251  1  0.09407036  0.87077155  0.84689591  1
  O  O252  1  0.58667407  0.36674255  0.18560823  1
  O  O253  1  0.58455553  0.36819376  0.51730303  1
  O  O254  1  0.57821922  0.36813400  0.84829695  1
  O  O255  1  0.58351616  0.86284134  0.17983218  1
  O  O256  1  0.57932545  0.86365019  0.51430845  1
  O  O257  1  0.57488671  0.86822189  0.84609127  1
  O  O258  1  0.13379566  0.41157820  0.31595738  1
  O  O259  1  0.13655901  0.41791244  0.65536766  1
  O  O260  1  0.12803209  0.42717293  0.97942766  1
  O  O261  1  0.13631447  0.91836029  0.32105669  1
  O  O262  1  0.13099293  0.92896634  0.64773185  1
  O  O263  1  0.13649881  0.92259841  0.98434177  1
  O  O264  1  0.63589992  0.42093991  0.32063650  1
  O  O265  1  0.63394647  0.41617571  0.65321635  1
  O  O266  1  0.62811114  0.41928251  0.98336989  1
  O  O267  1  0.63106584  0.90677836  0.31733990  1
  O  O268  1  0.62443429  0.91961685  0.64928279  1
  O  O269  1  0.62795815  0.92089018  0.98124720  1
  O  O270  1  0.03308059  0.20230196  0.10787950  1
  O  O271  1  0.03947276  0.19709130  0.43688572  1
  O  O272  1  0.03031579  0.19611210  0.76606693  1
  O  O273  1  0.03020434  0.70594801  0.10048785  1
  O  O274  1  0.02580265  0.71445371  0.43352532  1
  O  O275  1  0.03611579  0.66556597  0.77391846  1
  O  O276  1  0.53731157  0.18759249  0.10238884  1
  O  O277  1  0.52618082  0.20850009  0.43866679  1
  O  O278  1  0.52990141  0.19967721  0.77006107  1
  O  O279  1  0.52642975  0.69665160  0.10198262  1
  O  O280  1  0.53377858  0.69689393  0.43674750  1
  O  O281  1  0.52780404  0.69820761  0.76971068  1
  O  O282  1  0.29404544  0.47462773  0.06166964  1
  O  O283  1  0.31423170  0.46280387  0.39352896  1
  O  O284  1  0.29922809  0.47053919  0.73195420  1
  O  O285  1  0.30171658  0.96856107  0.06490462  1
  O  O286  1  0.30571241  0.96967321  0.39617951  1
  O  O287  1  0.30092348  0.96844645  0.72966469  1
  O  O288  1  0.79405298  0.46567698  0.05683077  1
  O  O289  1  0.80200236  0.47489578  0.40574417  1
  O  O290  1  0.79752894  0.46035675  0.73028699  1
  O  O291  1  0.79751872  0.96603493  0.06145608  1
  O  O292  1  0.82361382  0.96910445  0.39711820  1
  O  O293  1  0.79165875  0.97666180  0.72750706  1
  O  O294  1  0.46667486  0.30359292  0.23186962  1
  O  O295  1  0.47513406  0.29195455  0.56297196  1
  O  O296  1  0.46640578  0.29990980  0.89074388  1
  O  O297  1  0.47070773  0.79810931  0.22894050  1
  O  O298  1  0.46861203  0.79522732  0.55994410  1
  O  O299  1  0.46905409  0.80044031  0.89633970  1
  O  O300  1  0.97531873  0.29285466  0.22953021  1
  O  O301  1  0.96438855  0.29861539  0.56359712  1
  O  O302  1  0.96550057  0.30717490  0.89778004  1
  O  O303  1  0.97333736  0.80417890  0.23405039  1
  O  O304  1  0.96770271  0.81340052  0.56190056  1
  O  O305  1  0.96763973  0.80948668  0.90343219  1
  O  O306  1  0.20199156  0.02940718  0.27178736  1
  O  O307  1  0.20336220  0.04122363  0.60750731  1
  O  O308  1  0.21288857  0.03113440  0.93983216  1
  O  O309  1  0.19883650  0.53467048  0.26302237  1
  O  O310  1  0.19612504  0.52510121  0.60568628  1
  O  O311  1  0.20730841  0.53239397  0.93614930  1
  O  O312  1  0.69742477  0.03214925  0.26526660  1
  O  O313  1  0.69658393  0.02671492  0.60295783  1
  O  O314  1  0.70220424  0.03356545  0.93728803  1
  O  O315  1  0.68420317  0.52813068  0.26502970  1
  O  O316  1  0.69676384  0.52718957  0.60343993  1
  O  O317  1  0.69120362  0.52929347  0.93663674  1
  O  O318  1  0.09341922  0.09332267  0.04882403  1
  O  O319  1  0.08729842  0.08179050  0.36877086  1
  O  O320  1  0.08877917  0.08682242  0.70327441  1
  O  O321  1  0.08504281  0.59620396  0.03074448  1
  O  O322  1  0.07771731  0.59932743  0.37469963  1
  O  O323  1  0.09837733  0.57884807  0.69733632  1
  O  O324  1  0.58387040  0.08016888  0.02380184  1
  O  O325  1  0.59059984  0.10329937  0.37972346  1
  O  O326  1  0.58426874  0.08871390  0.70318202  1
  O  O327  1  0.58075026  0.58436636  0.03648710  1
  O  O328  1  0.58355245  0.58348165  0.36854980  1
  O  O329  1  0.57929749  0.58327515  0.70596272  1
  O  O330  1  0.41199732  0.43213317  0.12912747  1
  O  O331  1  0.42148793  0.41304589  0.46781128  1
  O  O332  1  0.41243615  0.41710354  0.79394473  1
  O  O333  1  0.41514699  0.91583012  0.12748889  1
  O  O334  1  0.41482594  0.91138439  0.46196912  1
  O  O335  1  0.41095697  0.91019772  0.79232525  1
  O  O336  1  0.90166628  0.40391791  0.11932846  1
  O  O337  1  0.91032059  0.41321786  0.46283441  1
  O  O338  1  0.90915545  0.40720467  0.79876347  1
  O  O339  1  0.90967720  0.91619773  0.13245606  1
  O  O340  1  0.91800199  0.91049714  0.47355448  1
  O  O341  1  0.89748579  0.91102464  0.78491541  1
  O  O342  1  0.41154247  0.41439502  0.29441306  1
  O  O343  1  0.42890023  0.40991614  0.62674183  1
  O  O344  1  0.41666646  0.41554213  0.95741520  1
  O  O345  1  0.41714474  0.90977663  0.29517447  1
  O  O346  1  0.41583711  0.90852372  0.62319170  1
  O  O347  1  0.41829683  0.91293472  0.96486262  1
  O  O348  1  0.92354400  0.40693543  0.29503870  1
  O  O349  1  0.91197867  0.40745533  0.63662950  1
  O  O350  1  0.91368484  0.41589771  0.96733540  1
  O  O351  1  0.91637842  0.91564411  0.29454984  1
  O  O352  1  0.90730145  0.91707242  0.62883406  1
  O  O353  1  0.91283886  0.92044429  0.96719304  1
  O  O354  1  0.08999329  0.08090858  0.20355511  1
  O  O355  1  0.08818492  0.08387212  0.53269603  1
  O  O356  1  0.09618826  0.07956484  0.87692991  1
  O  O357  1  0.09304836  0.59773606  0.20297605  1
  O  O358  1  0.08078253  0.56856529  0.52998838  1
  O  O359  1  0.08770103  0.57298315  0.86900898  1
  O  O360  1  0.58889512  0.09318346  0.20437117  1
  O  O361  1  0.58289262  0.08179920  0.54296099  1
  O  O362  1  0.59103807  0.09008441  0.87537651  1
  O  O363  1  0.57935381  0.58376324  0.19414295  1
  O  O364  1  0.58481379  0.58034610  0.53658840  1
  O  O365  1  0.57347386  0.57206283  0.86562187  1
  O  O366  1  0.14060435  0.22600424  0.06264519  1
  O  O367  1  0.14336633  0.21393245  0.38554210  1
  O  O368  1  0.13817096  0.22041353  0.72254750  1
  O  O369  1  0.14207527  0.73052376  0.06233576  1
  O  O370  1  0.13570665  0.72960882  0.39114662  1
  O  O371  1  0.14211871  0.71895129  0.74286967  1
  O  O372  1  0.64262508  0.21516700  0.05617497  1
  O  O373  1  0.63584164  0.23727810  0.39864635  1
  O  O374  1  0.63582234  0.22285840  0.72400846  1
  O  O375  1  0.63506197  0.71808612  0.05814392  1
  O  O376  1  0.63537483  0.71730648  0.38422783  1
  O  O377  1  0.63266150  0.71523220  0.71879235  1
  O  O378  1  0.28276975  0.36409145  0.10598003  1
  O  O379  1  0.28529221  0.36550440  0.44668119  1
  O  O380  1  0.28110331  0.36270811  0.77866466  1
  O  O381  1  0.28346421  0.86060924  0.11099586  1
  O  O382  1  0.27934073  0.86164117  0.43835165  1
  O  O383  1  0.27732042  0.86761457  0.78221799  1
  O  O384  1  0.76806856  0.35999708  0.10232544  1
  O  O385  1  0.77736055  0.36301896  0.44459984  1
  O  O386  1  0.77443133  0.35399420  0.77519519  1
  O  O387  1  0.77562681  0.86228371  0.11115531  1
  O  O388  1  0.77836375  0.86059653  0.43078964  1
  O  O389  1  0.76318988  0.86656498  0.76610899  1
  O  O390  1  0.36146656  0.28073752  0.27952161  1
  O  O391  1  0.36508430  0.28006870  0.60703895  1
  O  O392  1  0.36344680  0.28394850  0.94301103  1
  O  O393  1  0.36289013  0.77689619  0.27428613  1
  O  O394  1  0.35646519  0.77694813  0.60141612  1
  O  O395  1  0.36318632  0.77922286  0.94314478  1
  O  O396  1  0.86676161  0.27348750  0.27254679  1
  O  O397  1  0.85692960  0.27216795  0.60626908  1
  O  O398  1  0.85829635  0.28108250  0.94136835  1
  O  O399  1  0.85967583  0.78125450  0.27133941  1
  O  O400  1  0.87111108  0.78101835  0.61526607  1
  O  O401  1  0.86975980  0.78946708  0.96203258  1
  O  O402  1  0.22427502  0.13782278  0.22812978  1
  O  O403  1  0.22025008  0.14361055  0.55524580  1
  O  O404  1  0.22657331  0.14066006  0.89514038  1
  O  O405  1  0.22771549  0.64228769  0.22150638  1
  O  O406  1  0.21219628  0.63916579  0.57051217  1
  O  O407  1  0.21680578  0.64132311  0.89028325  1
  O  O408  1  0.72329476  0.14005581  0.22158382  1
  O  O409  1  0.71343212  0.13013608  0.55116373  1
  O  O410  1  0.72395445  0.14042639  0.89081267  1
  O  O411  1  0.71639923  0.63297170  0.21994702  1
  O  O412  1  0.71867582  0.63961058  0.56418931  1
  O  O413  1  0.70212097  0.63548952  0.88569431  1
  O  O414  1  0.49702375  0.34064672  0.02637113  1
  O  O415  1  0.49155298  0.34048747  0.36647653  1
  O  O416  1  0.49501512  0.32838551  0.69721825  1
  O  O417  1  0.49460482  0.83205297  0.03026796  1
  O  O418  1  0.49440993  0.83029888  0.36194014  1
  O  O419  1  0.48733589  0.82608961  0.69164553  1
  O  O420  1  0.98894187  0.33096530  0.02988723  1
  O  O421  1  0.99625614  0.32465307  0.36328223  1
  O  O422  1  0.98813429  0.32230554  0.69616865  1
  O  O423  1  1.00009343  0.85271110  0.03983959  1
  O  O424  1  0.98599749  0.83717974  0.36734201  1
  O  O425  1  1.00118112  0.85037899  0.69590341  1
  O  O426  1  0.17285391  0.00734595  0.13849564  1
  O  O427  1  0.17431849  0.00916895  0.47311511  1
  O  O428  1  0.17739828  0.00955199  0.80634472  1
  O  O429  1  0.16443874  0.51529475  0.12971048  1
  O  O430  1  0.17881095  0.51014549  0.47644559  1
  O  O431  1  0.17438485  0.50948556  0.80134346  1
  O  O432  1  0.66109905  0.01149681  0.13187021  1
  O  O433  1  0.65236894  -0.00200316  0.46818168  1
  O  O434  1  0.66508716  0.01055592  0.80332393  1
  O  O435  1  0.65919634  0.50321907  0.13197118  1
  O  O436  1  0.66981926  0.51051243  0.47129542  1
  O  O437  1  0.65980606  0.50104352  0.80236602  1
  O  O438  1  0.01099169  0.16019748  0.30126188  1
  O  O439  1  0.00857158  0.16051754  0.63205640  1
  O  O440  1  0.01103058  0.16495983  0.97436018  1
  O  O441  1  0.00655569  0.67705591  0.29972780  1
  O  O442  1  0.01483816  0.66860774  0.64824985  1
  O  O443  1  0.01203173  0.68239279  0.96956903  1
  O  O444  1  0.50936484  0.17716125  0.30626624  1
  O  O445  1  0.50551379  0.16677765  0.63605904  1
  O  O446  1  0.50953299  0.17047651  0.97046239  1
  O  O447  1  0.50418654  0.66241776  0.30155912  1
  O  O448  1  0.50138260  0.65775081  0.63451822  1
  O  O449  1  0.50523443  0.66415333  0.96876609  1
  O  O450  1  0.32541278  0.49496272  0.19574064  1
  O  O451  1  0.34581159  0.49831258  0.52916794  1
  O  O452  1  0.33741303  0.49398456  0.86633950  1
  O  O453  1  0.33692019  0.99111352  0.19871621  1
  O  O454  1  0.33725202  0.99102867  0.52927862  1
  O  O455  1  0.34339714  0.99662323  0.86552606  1
  O  O456  1  0.82838913  0.48988257  0.19020870  1
  O  O457  1  0.83622867  0.49012570  0.53788864  1
  O  O458  1  0.82784527  0.48540391  0.86330830  1
  O  O459  1  0.82857204  0.99431930  0.19586009  1
  O  O460  1  0.82740094  0.98871453  0.52439787  1
  O  O461  1  0.82512853  0.99205448  0.85971546  1
