# generated using pymatgen
data_Na31Fe20(SO4)36
_symmetry_space_group_name_H-M   'P 1'
_cell_length_a   18.06748753
_cell_length_b   18.06228918
_cell_length_c   19.67870126
_cell_angle_alpha   107.59668367
_cell_angle_beta   107.61361283
_cell_angle_gamma   90.68974536
_symmetry_Int_Tables_number   1
_chemical_formula_structural   Na31Fe20(SO4)36
_chemical_formula_sum   'Na62 Fe40 S72 O288'
_cell_volume   5796.47830998
_cell_formula_units_Z   2
loop_
 _symmetry_equiv_pos_site_id
 _symmetry_equiv_pos_as_xyz
  1  'x, y, z'
loop_
 _atom_site_type_symbol
 _atom_site_label
 _atom_site_symmetry_multiplicity
 _atom_site_fract_x
 _atom_site_fract_y
 _atom_site_fract_z
 _atom_site_occupancy
  Na  Na0  1  0.13219631  0.35852842  0.08255746  1
  Na  Na1  1  0.13474998  0.36730969  0.41789101  1
  Na  Na2  1  0.12894185  0.34726300  0.74206484  1
  Na  Na3  1  0.14284319  0.86662864  0.08186615  1
  Na  Na4  1  0.12930392  0.87197732  0.41508960  1
  Na  Na5  1  0.13626621  0.87063894  0.75364287  1
  Na  Na6  1  0.63851489  0.36163091  0.08829247  1
  Na  Na7  1  0.64839504  0.35867734  0.42191350  1
  Na  Na8  1  0.63004921  0.36108973  0.74479153  1
  Na  Na9  1  0.63132946  0.87314240  0.08718732  1
  Na  Na10  1  0.63514486  0.87066887  0.42002432  1
  Na  Na11  1  0.63631665  0.86030679  0.74543956  1
  Na  Na12  1  0.35392726  0.13222635  0.23192045  1
  Na  Na13  1  0.37409764  0.13308789  0.58831755  1
  Na  Na14  1  0.37229941  0.15578745  0.92860647  1
  Na  Na15  1  0.36908659  0.61723955  0.24627575  1
  Na  Na16  1  0.36352102  0.63415488  0.58083252  1
  Na  Na17  1  0.36468222  0.63642276  0.92279244  1
  Na  Na18  1  0.87285255  0.13429145  0.25336211  1
  Na  Na19  1  0.86262626  0.14904080  0.58895188  1
  Na  Na20  1  0.86283357  0.13426052  0.91449906  1
  Na  Na21  1  0.85983533  0.63098923  0.25158391  1
  Na  Na22  1  0.85758400  0.63026804  0.57553170  1
  Na  Na23  1  0.86654613  0.62966502  0.91277019  1
  Na  Na24  1  1.00062089  0.00398928  0.09267733  1
  Na  Na25  1  0.99410539  0.02481088  0.74005656  1
  Na  Na26  1  0.49114508  0.50638312  0.75436066  1
  Na  Na27  1  1.00136280  0.50099481  0.07034395  1
  Na  Na28  1  0.49472450  0.04241102  0.75505574  1
  Na  Na29  1  0.94834465  0.50738971  0.40700335  1
  Na  Na30  1  0.51721316  0.45409327  0.14913941  1
  Na  Na31  1  0.54167906  0.48076987  0.35976046  1
  Na  Na32  1  0.48721199  0.00666820  0.42038931  1
  Na  Na33  1  0.50036220  1.01475211  0.22442647  1
  Na  Na34  1  0.51090061  0.49271492  0.57209549  1
  Na  Na35  1  0.01906944  0.45604914  0.85011756  1
  Na  Na36  1  -0.01439473  1.04733137  0.53088381  1
  Na  Na37  1  0.00541666  0.47945497  0.60448326  1
  Na  Na38  1  0.00687711  0.48772915  0.25359417  1
  Na  Na39  1  0.48183764  1.01811777  0.92946444  1
  Na  Na40  1  0.50895245  0.47826848  0.93278526  1
  Na  Na41  1  0.05174768  0.99674779  0.92853962  1
  Na  Na42  1  0.27217343  0.26745073  -0.00846005  1
  Na  Na43  1  0.25120257  0.74737514  0.32730481  1
  Na  Na44  1  0.25655492  0.25912917  0.32687386  1
  Na  Na45  1  0.23476034  0.23266596  0.68090502  1
  Na  Na46  1  0.73623155  0.73053265  0.34284096  1
  Na  Na47  1  0.73987848  0.24515070  -0.00253991  1
  Na  Na48  1  0.24797271  0.74874657  0.67117807  1
  Na  Na49  1  0.75395368  0.75285789  -0.00294086  1
  Na  Na50  1  0.76413353  0.26519152  0.65540460  1
  Na  Na51  1  0.75626435  0.25989557  0.33557260  1
  Na  Na52  1  0.25605622  0.75545410  0.15765808  1
  Na  Na53  1  0.75191658  0.25473454  0.16886801  1
  Na  Na54  1  0.75846076  0.75695752  0.82128833  1
  Na  Na55  1  0.75792374  0.25780365  0.82576515  1
  Na  Na56  1  0.74423821  0.74664319  0.17122077  1
  Na  Na57  1  0.24062483  0.73971801  0.84865945  1
  Na  Na58  1  0.23888095  0.24081987  0.50802436  1
  Na  Na59  1  0.25529812  0.75369321  0.49659890  1
  Na  Na60  1  0.26514329  0.26013995  0.15524009  1
  Na  Na61  1  0.73562876  0.73356997  0.51294232  1
  Fe  Fe62  1  0.96408080  0.80625661  0.78353934  1
  Fe  Fe63  1  0.46553930  0.81264710  0.79008022  1
  Fe  Fe64  1  0.96666443  0.81634204  0.45570306  1
  Fe  Fe65  1  0.96950251  0.30069066  0.46273772  1
  Fe  Fe66  1  0.46379225  0.30429977  0.44747691  1
  Fe  Fe67  1  0.96252803  0.30750376  0.12162152  1
  Fe  Fe68  1  0.46314199  0.81164322  0.45596043  1
  Fe  Fe69  1  0.46943314  0.30121250  0.78974022  1
  Fe  Fe70  1  0.46283719  0.80574907  0.11717782  1
  Fe  Fe71  1  0.96587530  0.80987242  0.12169182  1
  Fe  Fe72  1  0.69020068  0.04099168  0.38096319  1
  Fe  Fe73  1  0.20200698  0.53013952  0.37759846  1
  Fe  Fe74  1  0.69235074  0.03369851  0.04534956  1
  Fe  Fe75  1  0.69055122  0.53750998  0.71448893  1
  Fe  Fe76  1  0.19618770  0.53336639  0.71625866  1
  Fe  Fe77  1  0.18552299  0.03759585  0.37719353  1
  Fe  Fe78  1  0.18939298  0.03724038  0.71028482  1
  Fe  Fe79  1  0.68878521  0.03209999  0.71334318  1
  Fe  Fe80  1  0.18974928  0.53256754  0.04726589  1
  Fe  Fe81  1  0.69650032  0.53374955  0.05128491  1
  Fe  Fe82  1  0.53368347  0.69572328  0.88269986  1
  Fe  Fe83  1  0.03774228  0.19118720  0.21580860  1
  Fe  Fe84  1  0.03280605  0.69401667  0.21420384  1
  Fe  Fe85  1  0.53551393  0.19359680  0.54592357  1
  Fe  Fe86  1  0.03750961  0.68590390  0.87795112  1
  Fe  Fe87  1  0.03201638  0.19761018  0.88072160  1
  Fe  Fe88  1  0.53664270  0.68904739  0.54492015  1
  Fe  Fe89  1  0.53204515  0.69086603  0.21215688  1
  Fe  Fe90  1  0.03585437  0.69367509  0.54546061  1
  Fe  Fe91  1  0.53191295  0.19838210  0.20585234  1
  Fe  Fe92  1  0.80761250  0.46504278  0.95253844  1
  Fe  Fe93  1  0.80443491  0.96278696  0.61736121  1
  Fe  Fe94  1  0.80847655  0.96886963  0.28765871  1
  Fe  Fe95  1  0.30907690  0.46189462  0.95765770  1
  Fe  Fe96  1  0.30937423  0.96673041  0.62062514  1
  Fe  Fe97  1  0.29942132  0.96800824  0.95690413  1
  Fe  Fe98  1  0.30849359  0.46644664  0.61904664  1
  Fe  Fe99  1  0.80902675  0.96417034  0.95026964  1
  Fe  Fe100  1  0.30325700  0.96726122  0.28150447  1
  Fe  Fe101  1  0.80938293  0.46451331  0.62141866  1
  S  S102  1  0.36411760  0.13616056  0.08112285  1
  S  S103  1  0.35809375  0.14013375  0.41604241  1
  S  S104  1  0.35894650  0.13987557  0.75107923  1
  S  S105  1  0.35675174  0.64099823  0.08238729  1
  S  S106  1  0.36050600  0.64526697  0.41975114  1
  S  S107  1  0.36077097  0.64185208  0.75214681  1
  S  S108  1  0.85990640  0.13857073  0.08391723  1
  S  S109  1  0.85499709  0.14139128  0.41589803  1
  S  S110  1  0.85421450  0.13696517  0.75059361  1
  S  S111  1  0.85976850  0.64175328  0.08239475  1
  S  S112  1  0.86248066  0.65057493  0.41874717  1
  S  S113  1  0.86099328  0.64118467  0.75168585  1
  S  S114  1  0.14013485  0.35889599  0.25019971  1
  S  S115  1  0.14391359  0.36027399  0.58440250  1
  S  S116  1  0.14231121  0.35561628  0.91905901  1
  S  S117  1  0.13977572  0.85930783  0.24947192  1
  S  S118  1  0.14320341  0.85855603  0.58330246  1
  S  S119  1  0.13832212  0.85393141  0.91307456  1
  S  S120  1  0.64356433  0.35526777  0.25701844  1
  S  S121  1  0.63692478  0.36136894  0.58373849  1
  S  S122  1  0.64168687  0.36128905  0.91415937  1
  S  S123  1  0.63835061  0.86288688  0.25065128  1
  S  S124  1  0.63888725  0.85915947  0.58135108  1
  S  S125  1  0.64347474  0.85634010  0.91718781  1
  S  S126  1  0.06014691  0.16792925  0.04519953  1
  S  S127  1  0.06718380  0.17471065  0.37925307  1
  S  S128  1  0.05974454  0.15758239  0.70304890  1
  S  S129  1  0.06579524  0.67079641  0.04280452  1
  S  S130  1  0.07182035  0.66988423  0.37559462  1
  S  S131  1  0.06965117  0.67006463  0.70868349  1
  S  S132  1  0.57294608  0.16825578  0.04228249  1
  S  S133  1  0.56332378  0.16618697  0.37112066  1
  S  S134  1  0.56886766  0.17036369  0.70802999  1
  S  S135  1  0.56867772  0.67315182  0.04288237  1
  S  S136  1  0.56598782  0.67797328  0.38062934  1
  S  S137  1  0.56317547  0.66904720  0.71036599  1
  S  S138  1  0.31946024  0.43316034  0.12190107  1
  S  S139  1  0.33273696  0.43330053  0.45966196  1
  S  S140  1  0.33242784  0.43365146  0.79032218  1
  S  S141  1  0.33140940  0.92788604  0.12570739  1
  S  S142  1  0.32735033  0.93375292  0.45448837  1
  S  S143  1  0.32842083  0.93423098  0.79172586  1
  S  S144  1  0.83309563  0.43635602  0.12639303  1
  S  S145  1  0.84041220  0.43138835  0.46357507  1
  S  S146  1  0.82120981  0.43249244  0.78712848  1
  S  S147  1  0.82975028  0.93288846  0.12228800  1
  S  S148  1  0.82678700  0.93448266  0.45511649  1
  S  S149  1  0.83262067  0.93124776  0.79200015  1
  S  S150  1  0.43408375  0.32481949  0.28925438  1
  S  S151  1  0.43217388  0.33002780  0.62417183  1
  S  S152  1  0.44179111  0.34437192  0.96413090  1
  S  S153  1  0.43093369  0.83051484  0.29162439  1
  S  S154  1  0.43328867  0.83241034  0.62843507  1
  S  S155  1  0.43173038  0.83125040  0.95552686  1
  S  S156  1  0.93694277  0.32734915  0.29392960  1
  S  S157  1  0.93566971  0.33451095  0.62948873  1
  S  S158  1  0.93145735  0.32916245  0.95820828  1
  S  S159  1  0.92913457  0.82835955  0.28782803  1
  S  S160  1  0.93348073  0.83158024  0.62369997  1
  S  S161  1  0.93426050  0.82973345  0.95776762  1
  S  S162  1  0.16846895  0.06471042  0.20924978  1
  S  S163  1  0.17913826  0.06834447  0.54432618  1
  S  S164  1  0.17017697  0.06895399  0.87608026  1
  S  S165  1  0.15905836  0.56598132  0.20544657  1
  S  S166  1  0.17212091  0.56996919  0.54208906  1
  S  S167  1  0.17147689  0.56207354  0.87411404  1
  S  S168  1  0.67329593  0.07235941  0.21079976  1
  S  S169  1  0.66881474  0.06856842  0.54264392  1
  S  S170  1  0.66633006  0.05760523  0.87575548  1
  S  S171  1  0.66486376  0.57143482  0.20588314  1
  S  S172  1  0.66676301  0.56148380  0.54395067  1
  S  S173  1  0.66806175  0.56890287  0.87591278  1
  O  O174  1  0.37191212  0.21122334  0.06825212  1
  O  O175  1  0.36711691  0.21934409  0.40875917  1
  O  O176  1  0.37059656  0.21790684  0.74121401  1
  O  O177  1  0.36831069  0.71959791  0.07420066  1
  O  O178  1  0.36357929  0.72940522  0.41995163  1
  O  O179  1  0.37009758  0.72100212  0.74504245  1
  O  O180  1  0.86649771  0.21913561  0.07817227  1
  O  O181  1  0.87199783  0.22209192  0.41062995  1
  O  O182  1  0.85566714  0.21355999  0.74042760  1
  O  O183  1  0.86926216  0.72008390  0.07285284  1
  O  O184  1  0.87800616  0.73037342  0.41165406  1
  O  O185  1  0.87032967  0.72181796  0.74758269  1
  O  O186  1  0.29380273  0.12649905  0.10141694  1
  O  O187  1  0.28017467  0.13155317  0.42543259  1
  O  O188  1  0.27547271  0.13096575  0.74768597  1
  O  O189  1  0.27711904  0.63278323  0.08921792  1
  O  O190  1  0.28184891  0.63142647  0.42887846  1
  O  O191  1  0.28107913  0.63254669  0.75864930  1
  O  O192  1  0.78204898  0.12863700  0.09382373  1
  O  O193  1  0.77231384  0.13678848  0.41519984  1
  O  O194  1  0.77767394  0.12141935  0.76328638  1
  O  O195  1  0.77901679  0.63323154  0.08676141  1
  O  O196  1  0.78545151  0.64774398  0.42825528  1
  O  O197  1  0.78351792  0.63221183  0.76326612  1
  O  O198  1  0.12895649  0.28132125  0.26168724  1
  O  O199  1  0.14312823  0.28469499  0.59637561  1
  O  O200  1  0.13088673  0.28055588  0.93479893  1
  O  O201  1  0.12992585  0.77993357  0.25732035  1
  O  O202  1  0.13294218  0.77912267  0.59106524  1
  O  O203  1  0.13101593  0.77140831  0.91346919  1
  O  O204  1  0.62508541  0.27241779  0.26305798  1
  O  O205  1  0.62814645  0.28339253  0.59458177  1
  O  O206  1  0.63390230  0.28506212  0.92287076  1
  O  O207  1  0.62946949  0.78364298  0.25825335  1
  O  O208  1  0.62930202  0.77875012  0.58583496  1
  O  O209  1  0.63253586  0.77690164  0.92449414  1
  O  O210  1  0.21455091  0.36453680  0.23706349  1
  O  O211  1  0.21915493  0.37642309  0.57088776  1
  O  O212  1  0.22558135  0.36384878  0.92154059  1
  O  O213  1  0.22031079  0.86742848  0.24398575  1
  O  O214  1  0.22235227  0.86571106  0.57491630  1
  O  O215  1  0.21632914  0.86669514  0.90383142  1
  O  O216  1  0.72422731  0.35503176  0.25558223  1
  O  O217  1  0.71660657  0.37157646  0.57960159  1
  O  O218  1  0.72056927  0.37358782  0.90485372  1
  O  O219  1  0.71597040  0.87185254  0.23928904  1
  O  O220  1  0.71691870  0.86803018  0.57042053  1
  O  O221  1  0.72397019  0.86296977  0.91139448  1
  O  O222  1  0.43266025  0.12709373  0.14621441  1
  O  O223  1  0.41892549  0.13110893  0.48333512  1
  O  O224  1  0.41193565  0.13142252  0.82022513  1
  O  O225  1  0.41478764  0.63525518  0.15225515  1
  O  O226  1  0.41998029  0.63902896  0.48936228  1
  O  O227  1  0.41896944  0.63220793  0.82023064  1
  O  O228  1  0.92075846  0.12736940  0.14931226  1
  O  O229  1  0.90734538  0.13063618  0.48368923  1
  O  O230  1  0.91673870  0.13092729  0.81807207  1
  O  O231  1  0.91594619  0.63565888  0.15261098  1
  O  O232  1  0.92224009  0.64120415  0.48818307  1
  O  O233  1  0.92158958  0.63150380  0.81864443  1
  O  O234  1  0.36800901  0.07301293  0.01225171  1
  O  O235  1  0.36654893  0.08103535  0.34785812  1
  O  O236  1  0.37309537  0.07980834  0.68475836  1
  O  O237  1  0.36516396  0.58147501  0.01518761  1
  O  O238  1  0.36940153  0.59286036  0.35188062  1
  O  O239  1  0.37050829  0.58299224  0.68447612  1
  O  O240  1  0.86627095  0.08188082  0.01374154  1
  O  O241  1  0.86359235  0.08405088  0.34645610  1
  O  O242  1  0.86258614  0.07573681  0.68284377  1
  O  O243  1  0.87080951  0.58136705  0.01630553  1
  O  O244  1  0.87103202  0.59131256  0.35283344  1
  O  O245  1  0.86620572  0.58436356  0.68191217  1
  O  O246  1  0.07522607  0.36960799  0.18592149  1
  O  O247  1  0.08022608  0.36360608  0.51538576  1
  O  O248  1  0.09073649  0.35513729  0.84564262  1
  O  O249  1  0.08297017  0.86549143  0.17950546  1
  O  O250  1  0.08471395  0.86614920  0.51455415  1
  O  O251  1  0.07846844  0.86445570  0.84497557  1
  O  O252  1  0.58978719  0.36365565  0.18755523  1
  O  O253  1  0.57864049  0.36553304  0.51338807  1
  O  O254  1  0.58263559  0.37057387  0.84558450  1
  O  O255  1  0.57687446  0.87152979  0.18376386  1
  O  O256  1  0.57885127  0.87163923  0.51632919  1
  O  O257  1  0.58670754  0.86386499  0.84794826  1
  O  O258  1  0.13499268  0.41965594  0.32010953  1
  O  O259  1  0.13327859  0.42272771  0.64986379  1
  O  O260  1  0.12506697  0.41973907  0.98000462  1
  O  O261  1  0.13082780  0.91800222  0.31658784  1
  O  O262  1  0.13668059  0.91684588  0.65169360  1
  O  O263  1  0.12834196  0.90864866  0.98052768  1
  O  O264  1  0.63416882  0.41083117  0.32473608  1
  O  O265  1  0.62285334  0.42204852  0.64851290  1
  O  O266  1  0.63341713  0.42400779  0.98115042  1
  O  O267  1  0.63300057  0.92218833  0.31973981  1
  O  O268  1  0.63539758  0.91573226  0.65253808  1
  O  O269  1  0.63518827  0.91467197  0.98509473  1
  O  O270  1  0.02501246  0.20698901  0.10691379  1
  O  O271  1  0.02805018  0.20536862  0.43747933  1
  O  O272  1  0.03457514  0.17478402  0.77089087  1
  O  O273  1  0.02701346  0.69974650  0.10263409  1
  O  O274  1  0.03857279  0.70041996  0.43847065  1
  O  O275  1  0.03050457  0.69719651  0.76780145  1
  O  O276  1  0.55058899  0.19594542  0.11199672  1
  O  O277  1  0.52538260  0.19616963  0.43165152  1
  O  O278  1  0.53067510  0.19901311  0.76622037  1
  O  O279  1  0.53200483  0.70219619  0.10389594  1
  O  O280  1  0.52361970  0.71025539  0.43811526  1
  O  O281  1  0.52726977  0.69967498  0.77180538  1
  O  O282  1  0.28767906  0.47355919  0.06068714  1
  O  O283  1  0.30427056  0.47034328  0.40120955  1
  O  O284  1  0.30234839  0.47224352  0.72947601  1
  O  O285  1  0.30220442  0.95417840  0.06026687  1
  O  O286  1  0.29698531  0.97176847  0.39497999  1
  O  O287  1  0.29951810  0.97006508  0.73016410  1
  O  O288  1  0.80101910  0.46870717  0.06091189  1
  O  O289  1  0.82702866  0.46785859  0.40572796  1
  O  O290  1  0.78980690  0.47269388  0.72818491  1
  O  O291  1  0.79853585  0.96818470  0.06026081  1
  O  O292  1  0.79645468  0.97334761  0.39568634  1
  O  O293  1  0.79959191  0.96233220  0.72774666  1
  O  O294  1  0.46683490  0.28526671  0.22751126  1
  O  O295  1  0.46777174  0.30048937  0.56235538  1
  O  O296  1  0.46958949  0.32450370  0.89742672  1
  O  O297  1  0.46717884  0.79978202  0.23068867  1
  O  O298  1  0.47043627  0.80512705  0.56827736  1
  O  O299  1  0.47265952  0.80209533  0.89632440  1
  O  O300  1  0.97273759  0.29053753  0.23288453  1
  O  O301  1  0.96901101  0.30881108  0.56485461  1
  O  O302  1  0.96686356  0.29866740  0.89865814  1
  O  O303  1  0.96903631  0.79958137  0.22827967  1
  O  O304  1  0.97339804  0.80627202  0.56472691  1
  O  O305  1  0.97096606  0.80071089  0.89748169  1
  O  O306  1  0.20102111  0.03161465  0.27449742  1
  O  O307  1  0.20732716  0.02493540  0.60148297  1
  O  O308  1  0.19506146  0.02681733  0.93195913  1
  O  O309  1  0.18630496  0.53494967  0.26825434  1
  O  O310  1  0.20241570  0.53606928  0.60529954  1
  O  O311  1  0.20238706  0.52604107  0.93510342  1
  O  O312  1  0.69873699  0.03235735  0.26981839  1
  O  O313  1  0.69543918  0.02922168  0.60190445  1
  O  O314  1  0.70587247  0.02199124  0.93702602  1
  O  O315  1  0.68747807  0.54507274  0.27011807  1
  O  O316  1  0.70333892  0.53266737  0.61098385  1
  O  O317  1  0.70042518  0.53471974  0.93768687  1
  O  O318  1  0.06305554  0.08547063  0.04199972  1
  O  O319  1  0.08917885  0.09638119  0.38069174  1
  O  O320  1  0.08059618  0.07327364  0.68653473  1
  O  O321  1  0.08402166  0.58933056  0.03896994  1
  O  O322  1  0.09123032  0.58866230  0.36987862  1
  O  O323  1  0.09046142  0.58926251  0.70361530  1
  O  O324  1  0.59286871  0.08516377  0.03302879  1
  O  O325  1  0.57651568  0.08225725  0.36584606  1
  O  O326  1  0.58621092  0.08849823  0.70465732  1
  O  O327  1  0.58953345  0.59259539  0.03567849  1
  O  O328  1  0.58965667  0.60318773  0.38580719  1
  O  O329  1  0.57727596  0.58549153  0.70467609  1
  O  O330  1  0.39455127  0.40864856  0.11655534  1
  O  O331  1  0.41380326  0.41187115  0.46474913  1
  O  O332  1  0.41535612  0.41973269  0.79489473  1
  O  O333  1  0.41462676  0.90954329  0.13597957  1
  O  O334  1  0.40769627  0.91418297  0.45485333  1
  O  O335  1  0.41166926  0.91838947  0.79944188  1
  O  O336  1  0.91475026  0.41645639  0.12778194  1
  O  O337  1  0.92417494  0.40620149  0.47819685  1
  O  O338  1  0.89763486  0.41005216  0.78669562  1
  O  O339  1  0.91083278  0.91496539  0.12470870  1
  O  O340  1  0.90905170  0.91918314  0.45987333  1
  O  O341  1  0.91479887  0.91491836  0.79720736  1
  O  O342  1  0.42263616  0.40459482  0.29091132  1
  O  O343  1  0.41898480  0.41415554  0.63246721  1
  O  O344  1  0.41682000  0.42647463  0.97307726  1
  O  O345  1  0.41103317  0.91167031  0.29540343  1
  O  O346  1  0.41429028  0.91398549  0.63601753  1
  O  O347  1  0.40944721  0.90972691  0.95561560  1
  O  O348  1  0.93075422  0.40915191  0.29655549  1
  O  O349  1  0.91350273  0.41629496  0.63512904  1
  O  O350  1  0.91221100  0.41102513  0.96182473  1
  O  O351  1  0.90550960  0.90627140  0.28832334  1
  O  O352  1  0.91320665  0.91309340  0.63080308  1
  O  O353  1  0.91626438  0.91201762  0.96406575  1
  O  O354  1  0.08822912  0.08610508  0.20901375  1
  O  O355  1  0.10413107  0.09448787  0.54557405  1
  O  O356  1  0.08800084  0.08782365  0.87312564  1
  O  O357  1  0.07497910  0.58375281  0.19635688  1
  O  O358  1  0.08956710  0.58557658  0.53420000  1
  O  O359  1  0.09034023  0.58057531  0.87237267  1
  O  O360  1  0.59376957  0.09621222  0.20868482  1
  O  O361  1  0.58644839  0.08630042  0.53400500  1
  O  O362  1  0.58494063  0.06440074  0.87314729  1
  O  O363  1  0.58006536  0.58849288  0.18743959  1
  O  O364  1  0.58884770  0.58723688  0.55022145  1
  O  O365  1  0.58624378  0.58679399  0.87260712  1
  O  O366  1  0.13641041  0.21138266  0.06252499  1
  O  O367  1  0.13766749  0.22843878  0.39484442  1
  O  O368  1  0.12848003  0.21113484  0.71685313  1
  O  O369  1  0.13608886  0.72356771  0.06003706  1
  O  O370  1  0.14150514  0.72318329  0.38863871  1
  O  O371  1  0.14052887  0.72446553  0.72773135  1
  O  O372  1  0.64355378  0.21948338  0.05318799  1
  O  O373  1  0.63539483  0.21520009  0.38872300  1
  O  O374  1  0.64094621  0.22104381  0.72347212  1
  O  O375  1  0.63805247  0.72807540  0.05890559  1
  O  O376  1  0.63434847  0.73559267  0.39835059  1
  O  O377  1  0.63602017  0.71799028  0.72706320  1
  O  O378  1  0.26266149  0.36246243  0.10033883  1
  O  O379  1  0.27997286  0.36324993  0.44636203  1
  O  O380  1  0.28158071  0.36175472  0.77148806  1
  O  O381  1  0.28117902  0.86009960  0.12004008  1
  O  O382  1  0.27417427  0.86284089  0.43806102  1
  O  O383  1  0.27771673  0.86139099  0.77370778  1
  O  O384  1  0.78195068  0.36436115  0.11078293  1
  O  O385  1  0.78494725  0.36295992  0.44697511  1
  O  O386  1  0.76469651  0.36358373  0.76969453  1
  O  O387  1  0.77830521  0.86109899  0.10674936  1
  O  O388  1  0.77560243  0.86258001  0.43724208  1
  O  O389  1  0.78230317  0.86145800  0.78185559  1
  O  O390  1  0.36081747  0.27605183  0.27698171  1
  O  O391  1  0.35925571  0.28096915  0.60720475  1
  O  O392  1  0.37466871  0.28898950  0.95017163  1
  O  O393  1  0.36081133  0.77725181  0.27694879  1
  O  O394  1  0.36232855  0.77899301  0.61154093  1
  O  O395  1  0.36389326  0.77462442  0.93755329  1
  O  O396  1  0.86246705  0.27971826  0.27612681  1
  O  O397  1  0.86511502  0.28167852  0.61196701  1
  O  O398  1  0.85935974  0.27848411  0.94468422  1
  O  O399  1  0.86118627  0.77165338  0.27083150  1
  O  O400  1  0.86421956  0.77695601  0.60561624  1
  O  O401  1  0.86262640  0.77735217  0.94076695  1
  O  O402  1  0.22059599  0.13544108  0.22456259  1
  O  O403  1  0.23876085  0.13535326  0.56357565  1
  O  O404  1  0.22353898  0.13876998  0.89353049  1
  O  O405  1  0.20965126  0.63677166  0.21696812  1
  O  O406  1  0.22312559  0.64284728  0.55939353  1
  O  O407  1  0.22283927  0.63205476  0.88708096  1
  O  O408  1  0.72952746  0.14038245  0.22775305  1
  O  O409  1  0.72163170  0.13923493  0.56126781  1
  O  O410  1  0.71301763  0.13226409  0.89173862  1
  O  O411  1  0.71524059  0.64342794  0.21598205  1
  O  O412  1  0.71875544  0.62826495  0.55100757  1
  O  O413  1  0.71917174  0.63963963  0.88858799  1
  O  O414  1  0.50714407  0.35050141  0.03191066  1
  O  O415  1  0.49385204  0.32554617  0.36282135  1
  O  O416  1  0.49060769  0.32919200  0.69618352  1
  O  O417  1  0.49071268  0.83547433  0.02902982  1
  O  O418  1  0.49103400  0.83645159  0.36504106  1
  O  O419  1  0.49254516  0.83311114  0.70096701  1
  O  O420  1  0.99001437  0.33596213  0.03335639  1
  O  O421  1  0.99087205  0.32578715  0.36895174  1
  O  O422  1  0.99725562  0.33853501  0.69860582  1
  O  O423  1  0.99271864  0.83271996  0.03120533  1
  O  O424  1  0.98917415  0.83392346  0.36112617  1
  O  O425  1  0.99316477  0.83368822  0.69652215  1
  O  O426  1  0.16161866  0.00254861  0.13951817  1
  O  O427  1  0.17406704  0.00982537  0.46978818  1
  O  O428  1  0.16277853  0.01206331  0.79942220  1
  O  O429  1  0.15417708  0.50445549  0.13264526  1
  O  O430  1  0.17465408  0.51075186  0.47157322  1
  O  O431  1  0.16558483  0.50171625  0.80065704  1
  O  O432  1  0.66807888  0.01202214  0.13794553  1
  O  O433  1  0.66735974  0.01008247  0.46934058  1
  O  O434  1  0.66809362  0.00093817  0.80254722  1
  O  O435  1  0.66742868  0.50831847  0.13512578  1
  O  O436  1  0.65243737  0.49573057  0.47502785  1
  O  O437  1  0.66185122  0.50887118  0.80220605  1
  O  O438  1  0.00982267  0.16704291  0.30398386  1
  O  O439  1  -0.00612928  0.15679756  0.63730149  1
  O  O440  1  0.00516475  0.17142913  0.97193743  1
  O  O441  1  0.00955940  0.66723242  0.30412811  1
  O  O442  1  0.01153136  0.66754242  0.63562459  1
  O  O443  1  0.00734377  0.66784422  0.96936519  1
  O  O444  1  0.50519726  0.16208425  0.29640407  1
  O  O445  1  0.51154691  0.16709017  0.63330589  1
  O  O446  1  0.50717789  0.16512249  0.97634789  1
  O  O447  1  0.50931003  0.67129843  0.30484345  1
  O  O448  1  0.50491051  0.66860685  0.63808880  1
  O  O449  1  0.50750167  0.67098207  0.97094763  1
  O  O450  1  0.32256773  0.49022706  0.19316477  1
  O  O451  1  0.34043923  0.49312726  0.53545528  1
  O  O452  1  0.33322597  0.49164293  0.86296279  1
  O  O453  1  0.33604227  0.99398152  0.19655295  1
  O  O454  1  0.33402750  0.99064836  0.52931569  1
  O  O455  1  0.32862404  0.99236456  0.86373844  1
  O  O456  1  0.83921830  0.49737221  0.19631809  1
  O  O457  1  0.84195709  0.49149220  0.53701960  1
  O  O458  1  0.82492321  0.49153388  0.86127241  1
  O  O459  1  0.83146456  0.99196965  0.19430106  1
  O  O460  1  0.82926869  0.99231699  0.52881890  1
  O  O461  1  0.83576350  0.99398217  0.86342401  1
