# generated using pymatgen
data_Na31Fe20(SO4)36
_symmetry_space_group_name_H-M   'P 1'
_cell_length_a   18.07599999
_cell_length_b   18.07584166
_cell_length_c   19.71454531
_cell_angle_alpha   107.55976736
_cell_angle_beta   107.59813545
_cell_angle_gamma   90.75830846
_symmetry_Int_Tables_number   1
_chemical_formula_structural   Na31Fe20(SO4)36
_chemical_formula_sum   'Na62 Fe40 S72 O288'
_cell_volume   5815.14690168
_cell_formula_units_Z   2
loop_
 _symmetry_equiv_pos_site_id
 _symmetry_equiv_pos_as_xyz
  1  'x, y, z'
loop_
 _atom_site_type_symbol
 _atom_site_label
 _atom_site_symmetry_multiplicity
 _atom_site_fract_x
 _atom_site_fract_y
 _atom_site_fract_z
 _atom_site_occupancy
  Na  Na0  1  0.13967568  0.37046418  0.09444426  1
  Na  Na1  1  0.13720184  0.36550259  0.41517738  1
  Na  Na2  1  0.12540948  0.37382770  0.74539741  1
  Na  Na3  1  0.14334707  0.87185314  0.08747338  1
  Na  Na4  1  0.13460138  0.86709262  0.41984713  1
  Na  Na5  1  0.13744776  0.86175528  0.74512823  1
  Na  Na6  1  0.63311942  0.35796722  0.07327720  1
  Na  Na7  1  0.63537086  0.35039386  0.43699456  1
  Na  Na8  1  0.62495683  0.34812542  0.73322978  1
  Na  Na9  1  0.63425278  0.87357917  0.08699618  1
  Na  Na10  1  0.64385467  0.86855024  0.42844383  1
  Na  Na11  1  0.62546552  0.84625355  0.73182824  1
  Na  Na12  1  0.36406661  0.13602237  0.25510581  1
  Na  Na13  1  0.36276188  0.14495463  0.58142704  1
  Na  Na14  1  0.36491803  0.13118288  0.91799842  1
  Na  Na15  1  0.36389187  0.62526560  0.25114024  1
  Na  Na16  1  0.38094801  0.65229206  0.60318428  1
  Na  Na17  1  0.37050739  0.63067640  0.91591984  1
  Na  Na18  1  0.86698694  0.14212619  0.25300686  1
  Na  Na19  1  0.85164609  0.13356645  0.56024403  1
  Na  Na20  1  0.86217820  0.14207757  0.92095955  1
  Na  Na21  1  0.87070356  0.63105915  0.25379198  1
  Na  Na22  1  0.85558042  0.62431491  0.57768436  1
  Na  Na23  1  0.86492380  0.63219426  0.91445727  1
  Na  Na24  1  0.50507324  -0.01039743  0.74837926  1
  Na  Na25  1  0.98576647  0.50329735  0.09001283  1
  Na  Na26  1  0.47834210  0.01726705  0.09333862  1
  Na  Na27  1  0.98197285  0.01278892  0.41663908  1
  Na  Na28  1  0.97931595  0.00886554  0.75426210  1
  Na  Na29  1  0.99465886  0.50429636  0.41804770  1
  Na  Na30  1  1.00150303  0.01464647  0.08409742  1
  Na  Na31  1  0.48604434  0.50792695  0.77248003  1
  Na  Na32  1  0.46788853  0.51826490  0.41538043  1
  Na  Na33  1  0.51066895  0.47054991  0.57206485  1
  Na  Na34  1  0.01025179  0.99669841  0.25137538  1
  Na  Na35  1  0.48141801  1.03854824  0.52361117  1
  Na  Na36  1  0.50592647  0.48916777  0.24286822  1
  Na  Na37  1  0.50686495  0.95077698  0.90627328  1
  Na  Na38  1  0.00419152  0.99077234  0.58772824  1
  Na  Na39  1  0.00756334  0.49266029  0.90192574  1
  Na  Na40  1  0.52596838  0.98348757  0.29488400  1
  Na  Na41  1  0.04499322  0.98887343  0.93005236  1
  Na  Na42  1  0.74429998  0.74832693  0.00626811  1
  Na  Na43  1  0.24824082  0.24591175  -0.00086947  1
  Na  Na44  1  0.27705917  0.27741965  0.32976323  1
  Na  Na45  1  0.24480476  0.74023145  0.34043559  1
  Na  Na46  1  0.74106451  0.73611465  0.65230103  1
  Na  Na47  1  0.74000850  0.73914321  0.34912008  1
  Na  Na48  1  0.25967017  0.75663070  -0.00698138  1
  Na  Na49  1  0.74743908  0.25841506  0.63271391  1
  Na  Na50  1  0.74269128  0.23608812  0.35213701  1
  Na  Na51  1  0.25116459  0.25641767  0.66167383  1
  Na  Na52  1  0.74661579  0.24860581  0.16165045  1
  Na  Na53  1  0.74296498  0.74182727  0.17631552  1
  Na  Na54  1  0.25116984  0.74582620  0.51446911  1
  Na  Na55  1  0.25888126  0.25915039  0.16500801  1
  Na  Na56  1  0.27702729  0.26738467  0.48938409  1
  Na  Na57  1  0.25032124  0.74891745  0.16615434  1
  Na  Na58  1  0.75519598  0.74985031  0.83115449  1
  Na  Na59  1  0.26923017  0.76329552  0.81476079  1
  Na  Na60  1  0.25064120  0.25818402  0.82847495  1
  Na  Na61  1  0.74481179  0.24736612  0.83130467  1
  Fe  Fe62  1  0.47148195  0.80008612  0.46074687  1
  Fe  Fe63  1  0.96497168  0.80686242  0.11678822  1
  Fe  Fe64  1  0.96280719  0.80381120  0.44977519  1
  Fe  Fe65  1  0.96166837  0.31766545  0.45781734  1
  Fe  Fe66  1  0.96328889  0.80529866  0.78417428  1
  Fe  Fe67  1  0.96053808  0.30615258  0.77654861  1
  Fe  Fe68  1  0.96479593  0.31152310  0.12069674  1
  Fe  Fe69  1  0.46748424  0.80757721  0.12593120  1
  Fe  Fe70  1  0.46510047  0.30659797  0.78742690  1
  Fe  Fe71  1  0.46668335  0.30040422  0.11871714  1
  Fe  Fe72  1  0.19332712  0.03579466  0.38360932  1
  Fe  Fe73  1  0.19029622  0.54040932  0.71547111  1
  Fe  Fe74  1  0.68836680  0.53353135  0.04078935  1
  Fe  Fe75  1  0.19578483  0.53284369  0.04882584  1
  Fe  Fe76  1  0.69955005  0.52473787  0.70198362  1
  Fe  Fe77  1  0.19419883  0.53684738  0.37779268  1
  Fe  Fe78  1  0.69374014  0.52872133  0.38589661  1
  Fe  Fe79  1  0.18872905  0.03709739  0.71608305  1
  Fe  Fe80  1  0.68593057  0.03640513  0.70905140  1
  Fe  Fe81  1  0.69120179  0.03865011  0.04226004  1
  Fe  Fe82  1  0.53665641  0.68853117  0.21340864  1
  Fe  Fe83  1  0.03345863  0.69515886  0.21477177  1
  Fe  Fe84  1  0.03486335  0.19761128  0.54980358  1
  Fe  Fe85  1  0.54219000  0.19656808  0.23800617  1
  Fe  Fe86  1  0.53504175  0.18852762  0.87885185  1
  Fe  Fe87  1  0.03508734  0.68663594  0.87539921  1
  Fe  Fe88  1  0.53404869  0.70002461  0.87539640  1
  Fe  Fe89  1  0.03772645  0.19584147  0.21844950  1
  Fe  Fe90  1  0.03464778  0.69339648  0.55083725  1
  Fe  Fe91  1  0.03290036  0.19634281  0.88425014  1
  Fe  Fe92  1  0.30939095  0.96459080  0.29072986  1
  Fe  Fe93  1  0.29813690  0.96925924  0.95545355  1
  Fe  Fe94  1  0.79998385  0.97203998  0.28666766  1
  Fe  Fe95  1  0.80526457  0.46261237  0.94976121  1
  Fe  Fe96  1  0.80810332  0.46367747  0.28242380  1
  Fe  Fe97  1  0.31209593  0.46366278  0.95736644  1
  Fe  Fe98  1  0.30323959  0.47139283  0.62099796  1
  Fe  Fe99  1  0.30535894  0.96700220  0.62137806  1
  Fe  Fe100  1  0.81118893  0.96701009  0.95188555  1
  Fe  Fe101  1  0.80520967  0.96396527  0.61417263  1
  S  S102  1  0.35810695  0.14034849  0.08611943  1
  S  S103  1  0.35670231  0.13828881  0.41844352  1
  S  S104  1  0.35285754  0.14254009  0.74966400  1
  S  S105  1  0.36080133  0.64038826  0.08349941  1
  S  S106  1  0.35645774  0.64668066  0.41840753  1
  S  S107  1  0.36161389  0.64082373  0.75622472  1
  S  S108  1  0.86369954  0.14108139  0.08433321  1
  S  S109  1  0.86669669  0.14142098  0.41187715  1
  S  S110  1  0.86093528  0.13928380  0.75173588  1
  S  S111  1  0.85951863  0.64018638  0.08224273  1
  S  S112  1  0.86111060  0.63676995  0.41589704  1
  S  S113  1  0.86050331  0.64141291  0.75187871  1
  S  S114  1  0.13897766  0.36152753  0.25226428  1
  S  S115  1  0.13867350  0.36504109  0.58282718  1
  S  S116  1  0.13857140  0.36007607  0.91597598  1
  S  S117  1  0.13884154  0.86137094  0.25106752  1
  S  S118  1  0.13504430  0.86190174  0.58334961  1
  S  S119  1  0.14148748  0.85287627  0.91431633  1
  S  S120  1  0.64114225  0.35871662  0.24079142  1
  S  S121  1  0.63289339  0.35505805  0.58724985  1
  S  S122  1  0.63939500  0.35817645  0.91467757  1
  S  S123  1  0.64255851  0.85503390  0.25187242  1
  S  S124  1  0.64152790  0.85930216  0.58370950  1
  S  S125  1  0.64759308  0.86066712  0.91565919  1
  S  S126  1  0.06370262  0.17281366  0.04504854  1
  S  S127  1  0.07178067  0.17052587  0.37936474  1
  S  S128  1  0.06262252  0.16930511  0.70783946  1
  S  S129  1  0.06737595  0.67006945  0.04175062  1
  S  S130  1  0.06809640  0.67274230  0.37886537  1
  S  S131  1  0.06778443  0.67304009  0.71239287  1
  S  S132  1  0.56249980  0.16155405  0.03551354  1
  S  S133  1  0.56686602  0.15938629  0.36902203  1
  S  S134  1  0.55800487  0.16192648  0.71062873  1
  S  S135  1  0.57172067  0.67818052  0.04343008  1
  S  S136  1  0.56601983  0.66710559  0.37220593  1
  S  S137  1  0.57652475  0.66144306  0.70753638  1
  S  S138  1  0.33014031  0.43046754  0.12264735  1
  S  S139  1  0.32932205  0.44399664  0.45987668  1
  S  S140  1  0.32418285  0.43095100  0.79228544  1
  S  S141  1  0.33592850  0.93034915  0.13023503  1
  S  S142  1  0.32568630  0.92690014  0.45711638  1
  S  S143  1  0.32676780  0.94170207  0.79214160  1
  S  S144  1  0.82809252  0.43231653  0.12056477  1
  S  S145  1  0.83084221  0.43370013  0.45084017  1
  S  S146  1  0.82775508  0.43074208  0.79111464  1
  S  S147  1  0.83438222  0.93523163  0.12499779  1
  S  S148  1  0.84010340  0.93394236  0.45661198  1
  S  S149  1  0.83453262  0.93301102  0.79237152  1
  S  S150  1  0.44625774  0.33399364  0.29116701  1
  S  S151  1  0.42122550  0.33869906  0.63080370  1
  S  S152  1  0.42903733  0.32267262  0.95360860  1
  S  S153  1  0.43129006  0.82271311  0.29315672  1
  S  S154  1  0.43235785  0.83981650  0.62680826  1
  S  S155  1  0.43434944  0.83371510  0.96214340  1
  S  S156  1  0.93229545  0.33047436  0.28925334  1
  S  S157  1  0.93190637  0.32872886  0.62119943  1
  S  S158  1  0.93557944  0.33433177  0.95720306  1
  S  S159  1  0.93340409  0.83168783  0.28910371  1
  S  S160  1  0.93118471  0.82990043  0.62593416  1
  S  S161  1  0.93882078  0.83407855  0.95992148  1
  S  S162  1  0.16532814  0.06595061  0.21090706  1
  S  S163  1  0.16402162  0.06656647  0.54347610  1
  S  S164  1  0.16238375  0.06457494  0.87392078  1
  S  S165  1  0.16398669  0.57095200  0.20578895  1
  S  S166  1  0.16993774  0.57174842  0.54147346  1
  S  S167  1  0.17230329  0.56605040  0.88019982  1
  S  S168  1  0.67248300  0.06959514  0.20477796  1
  S  S169  1  0.67634275  0.06317902  0.54863191  1
  S  S170  1  0.67250233  0.06649734  0.87383736  1
  S  S171  1  0.67468064  0.56700035  0.20874064  1
  S  S172  1  0.66244433  0.55242146  0.53643098  1
  S  S173  1  0.67650080  0.57162355  0.87617302  1
  O  O174  1  0.36826263  0.21821283  0.07357033  1
  O  O175  1  0.35568637  0.21314293  0.40390919  1
  O  O176  1  0.36290217  0.22381996  0.74689803  1
  O  O177  1  0.36935889  0.72073838  0.07738511  1
  O  O178  1  0.37110853  0.72843138  0.41323826  1
  O  O179  1  0.37170688  0.71987525  0.75477268  1
  O  O180  1  0.87262797  0.21889808  0.07562434  1
  O  O181  1  0.88315105  0.21743404  0.39992311  1
  O  O182  1  0.86749097  0.21815443  0.74370455  1
  O  O183  1  0.87040510  0.71831307  0.07222671  1
  O  O184  1  0.86964921  0.71472732  0.40430811  1
  O  O185  1  0.86298112  0.72643476  0.75516484  1
  O  O186  1  0.28249198  0.13371056  0.09710227  1
  O  O187  1  0.27929876  0.12434331  0.43247342  1
  O  O188  1  0.27383324  0.13496063  0.75925856  1
  O  O189  1  0.28143478  0.63060969  0.09142876  1
  O  O190  1  0.27043948  0.64245049  0.41166702  1
  O  O191  1  0.28432558  0.62756578  0.76846487  1
  O  O192  1  0.78488420  0.13023849  0.09193292  1
  O  O193  1  0.79027476  0.13737052  0.42058563  1
  O  O194  1  0.78370602  0.12759807  0.76187809  1
  O  O195  1  0.77907197  0.63284823  0.08697043  1
  O  O196  1  0.78117709  0.62631961  0.41928545  1
  O  O197  1  0.78102550  0.62419708  0.75891452  1
  O  O198  1  0.12706137  0.28426199  0.26527299  1
  O  O199  1  0.13091430  0.28769181  0.59530269  1
  O  O200  1  0.12926776  0.28009493  0.92275222  1
  O  O201  1  0.13032614  0.78292396  0.26046260  1
  O  O202  1  0.12592423  0.78470151  0.59346557  1
  O  O203  1  0.13281065  0.77103150  0.91666054  1
  O  O204  1  0.63717385  0.27810524  0.24463927  1
  O  O205  1  0.61562094  0.28691796  0.60803869  1
  O  O206  1  0.62864218  0.28064499  0.92385188  1
  O  O207  1  0.63679191  0.77048086  0.24880430  1
  O  O208  1  0.63359316  0.78516802  0.59703343  1
  O  O209  1  0.63707653  0.78236260  0.92475947  1
  O  O210  1  0.21557595  0.36558404  0.24182327  1
  O  O211  1  0.21665851  0.37289664  0.57239659  1
  O  O212  1  0.21781503  0.36816531  0.90901882  1
  O  O213  1  0.21706224  0.86988449  0.24163973  1
  O  O214  1  0.21371254  0.87222535  0.57595383  1
  O  O215  1  0.22172957  0.86405985  0.90826978  1
  O  O216  1  0.71801239  0.37146768  0.22908768  1
  O  O217  1  0.70992774  0.35504287  0.57637831  1
  O  O218  1  0.71905769  0.36699242  0.90744641  1
  O  O219  1  0.72159176  0.86970789  0.24484787  1
  O  O220  1  0.71780511  0.87097950  0.57081020  1
  O  O221  1  0.73000954  0.86921776  0.91428344  1
  O  O222  1  0.42216818  0.13193224  0.15069190  1
  O  O223  1  0.41827189  0.13543864  0.48518696  1
  O  O224  1  0.41203820  0.12880462  0.81404265  1
  O  O225  1  0.41980467  0.63261390  0.15098692  1
  O  O226  1  0.40373246  0.63955136  0.48989634  1
  O  O227  1  0.42338377  0.62560544  0.82065782  1
  O  O228  1  0.92300791  0.13220403  0.15260879  1
  O  O229  1  0.92764044  0.12975515  0.47840007  1
  O  O230  1  0.92154865  0.13344606  0.82133759  1
  O  O231  1  0.91642658  0.63457377  0.15274090  1
  O  O232  1  0.91920090  0.63318799  0.48640034  1
  O  O233  1  0.91880967  0.63455373  0.82194258  1
  O  O234  1  0.36353838  0.07976440  0.01614322  1
  O  O235  1  0.36129833  0.07562306  0.34981773  1
  O  O236  1  0.35519596  0.08747470  0.67746024  1
  O  O237  1  0.36711323  0.58319063  0.01431224  1
  O  O238  1  0.37095577  0.58975008  0.35428949  1
  O  O239  1  0.36550695  0.58255329  0.68582072  1
  O  O240  1  0.87345637  0.08080378  0.01725091  1
  O  O241  1  0.87460854  0.07905062  0.34404168  1
  O  O242  1  0.87390296  0.07981817  0.68651255  1
  O  O243  1  0.87135344  0.57921213  0.01749511  1
  O  O244  1  0.87544571  0.57695272  0.35107750  1
  O  O245  1  0.87180283  0.59218671  0.68424946  1
  O  O246  1  0.07801769  0.36819805  0.18394306  1
  O  O247  1  0.07909229  0.36965573  0.51382387  1
  O  O248  1  0.07980828  0.36932942  0.84825362  1
  O  O249  1  0.07906957  0.86869988  0.18298905  1
  O  O250  1  0.07593021  0.86846130  0.51401686  1
  O  O251  1  0.08329572  0.86366604  0.84639499  1
  O  O252  1  0.57929783  0.36708325  0.17356337  1
  O  O253  1  0.57320805  0.36935739  0.52485407  1
  O  O254  1  0.58143935  0.36634878  0.84597628  1
  O  O255  1  0.58336085  0.86563336  0.18451901  1
  O  O256  1  0.57943340  0.86317009  0.51397444  1
  O  O257  1  0.59217309  0.86959334  0.84809534  1
  O  O258  1  0.13189177  0.42246929  0.31950376  1
  O  O259  1  0.13249405  0.42585350  0.65022960  1
  O  O260  1  0.12960437  0.41821607  0.98408327  1
  O  O261  1  0.12937486  0.92096548  0.31819218  1
  O  O262  1  0.12346489  0.92305275  0.64886514  1
  O  O263  1  0.13268737  0.90832723  0.98218114  1
  O  O264  1  0.63235352  0.41611715  0.30870369  1
  O  O265  1  0.63426413  0.42555905  0.65908791  1
  O  O266  1  0.63270678  0.41889666  0.98246507  1
  O  O267  1  0.63222307  0.90533113  0.32068699  1
  O  O268  1  0.63389011  0.92284580  0.64991832  1
  O  O269  1  0.63784080  0.91999091  0.98389464  1
  O  O270  1  0.03149751  0.20931686  0.10853529  1
  O  O271  1  0.04156670  0.20313836  0.44330281  1
  O  O272  1  0.02847496  0.20181807  0.76991284  1
  O  O273  1  0.03118356  0.70077008  0.10312630  1
  O  O274  1  0.02937070  0.70239196  0.43856769  1
  O  O275  1  0.02548587  0.70180764  0.76988782  1
  O  O276  1  0.52608865  0.19177431  0.09491699  1
  O  O277  1  0.54467766  0.20117649  0.43299185  1
  O  O278  1  0.52430809  0.19857876  0.77465490  1
  O  O279  1  0.53009750  0.70254607  0.10121404  1
  O  O280  1  0.52817880  0.69614042  0.43077019  1
  O  O281  1  0.54792560  0.67947290  0.77347273  1
  O  O282  1  0.29842302  0.46501946  0.05825290  1
  O  O283  1  0.29311845  0.48330233  0.40382275  1
  O  O284  1  0.29406169  0.46794395  0.73217129  1
  O  O285  1  0.31846963  0.96186390  0.06715015  1
  O  O286  1  0.29381020  0.96007810  0.39368531  1
  O  O287  1  0.29031453  0.97738886  0.73030539  1
  O  O288  1  0.79707736  0.47050980  0.06044587  1
  O  O289  1  0.79433515  0.46359866  0.38375655  1
  O  O290  1  0.79822022  0.46813837  0.73252469  1
  O  O291  1  0.80619009  0.97000046  0.06321634  1
  O  O292  1  0.81910361  0.97081376  0.39740092  1
  O  O293  1  0.80703149  0.96659217  0.73009638  1
  O  O294  1  0.47794792  0.29212265  0.22571982  1
  O  O295  1  0.44295199  0.32239547  0.56380571  1
  O  O296  1  0.46692339  0.29386012  0.89333939  1
  O  O297  1  0.47324267  0.79531693  0.23546877  1
  O  O298  1  0.46323188  0.81627271  0.56237043  1
  O  O299  1  0.47709119  0.80833476  0.90732980  1
  O  O300  1  0.96726597  0.29818705  0.22743765  1
  O  O301  1  0.96976135  0.29364646  0.55934521  1
  O  O302  1  0.97194690  0.30453527  0.89609877  1
  O  O303  1  0.96872204  0.79991121  0.22691554  1
  O  O304  1  0.96438776  0.79828254  0.56287241  1
  O  O305  1  0.97493471  0.80408935  0.89942176  1
  O  O306  1  0.19653517  0.03221032  0.27447233  1
  O  O307  1  0.19432230  0.03056156  0.60451261  1
  O  O308  1  0.19110653  0.02714788  0.93250746  1
  O  O309  1  0.18504158  0.53796609  0.26690749  1
  O  O310  1  0.19965760  0.53829349  0.60512047  1
  O  O311  1  0.20173896  0.52649550  0.93920000  1
  O  O312  1  0.69827421  0.02989985  0.26189432  1
  O  O313  1  0.71603697  0.03278648  0.61639897  1
  O  O314  1  0.70599460  0.03237113  0.93705891  1
  O  O315  1  0.70479499  0.53037460  0.26913713  1
  O  O316  1  0.70236916  0.52546593  0.60259880  1
  O  O317  1  0.70475405  0.53087247  0.93499550  1
  O  O318  1  0.07156467  0.09060782  0.03968963  1
  O  O319  1  0.08360421  0.08593801  0.37252990  1
  O  O320  1  0.07835394  0.08693372  0.70490920  1
  O  O321  1  0.08353248  0.58764487  0.03537091  1
  O  O322  1  0.08750322  0.59300345  0.37659490  1
  O  O323  1  0.08921107  0.59457719  0.71228265  1
  O  O324  1  0.57647481  0.07774889  0.02790848  1
  O  O325  1  0.60446721  0.08930303  0.37408798  1
  O  O326  1  0.57918017  0.08300712  0.71546657  1
  O  O327  1  0.59422688  0.59914574  0.03922102  1
  O  O328  1  0.58876602  0.58696019  0.37000526  1
  O  O329  1  0.60194868  0.57941982  0.69515732  1
  O  O330  1  0.40867464  0.40596856  0.12249125  1
  O  O331  1  0.40850585  0.43016658  0.45822026  1
  O  O332  1  0.40469180  0.41096792  0.79715948  1
  O  O333  1  0.42068661  0.91557489  0.15058190  1
  O  O334  1  0.40591449  0.90714001  0.46024579  1
  O  O335  1  0.40918751  0.93619122  0.79801878  1
  O  O336  1  0.90922871  0.41515215  0.12130142  1
  O  O337  1  0.91261297  0.41819206  0.44897460  1
  O  O338  1  0.90898095  0.41066833  0.79456191  1
  O  O339  1  0.91776592  0.91856644  0.13174712  1
  O  O340  1  0.92432964  0.91517110  0.46690643  1
  O  O341  1  0.91860653  0.91714039  0.80091840  1
  O  O342  1  0.43868945  0.41501834  0.29075503  1
  O  O343  1  0.40584180  0.42349770  0.65577276  1
  O  O344  1  0.40894908  0.40232257  0.95718330  1
  O  O345  1  0.41378281  0.90417629  0.29742616  1
  O  O346  1  0.40726140  0.92124001  0.63379113  1
  O  O347  1  0.41175716  0.91412655  0.96354130  1
  O  O348  1  0.91652016  0.41243311  0.29388950  1
  O  O349  1  0.91352036  0.40539309  0.62091646  1
  O  O350  1  0.91940006  0.41719658  0.96278046  1
  O  O351  1  0.91770629  0.91364335  0.29318243  1
  O  O352  1  0.91515100  0.91273697  0.62963768  1
  O  O353  1  0.92286996  0.91692557  0.96587594  1
  O  O354  1  0.08316062  0.08620916  0.21073584  1
  O  O355  1  0.08108647  0.08182911  0.53816747  1
  O  O356  1  0.08012565  0.08362923  0.87086533  1
  O  O357  1  0.08098459  0.59131046  0.19137629  1
  O  O358  1  0.08792588  0.59011222  0.53605763  1
  O  O359  1  0.09146982  0.58448460  0.87918677  1
  O  O360  1  0.59088175  0.08926352  0.19604855  1
  O  O361  1  0.60151416  0.08450253  0.55681095  1
  O  O362  1  0.59006620  0.08055225  0.87040079  1
  O  O363  1  0.59397892  0.58577447  0.20566596  1
  O  O364  1  0.57932469  0.55677640  0.52808725  1
  O  O365  1  0.59576734  0.58941650  0.87242572  1
  O  O366  1  0.13775988  0.21932041  0.05809846  1
  O  O367  1  0.14450458  0.21706447  0.39082772  1
  O  O368  1  0.13463001  0.21872688  0.72149564  1
  O  O369  1  0.13918404  0.72149805  0.05816551  1
  O  O370  1  0.13760073  0.72789076  0.39642744  1
  O  O371  1  0.13700579  0.72840799  0.73123044  1
  O  O372  1  0.63581755  0.20985462  0.05115181  1
  O  O373  1  0.61878810  0.21383944  0.35029178  1
  O  O374  1  0.62939970  0.21253572  0.72509109  1
  O  O375  1  0.64200305  0.73510431  0.06542890  1
  O  O376  1  0.63319787  0.72192241  0.38384035  1
  O  O377  1  0.64654446  0.71750172  0.72580593  1
  O  O378  1  0.27426720  0.36079438  0.10558539  1
  O  O379  1  0.27874154  0.36972269  0.44199377  1
  O  O380  1  0.26991737  0.36043486  0.77553250  1
  O  O381  1  0.28381356  0.85704216  0.11013273  1
  O  O382  1  0.27188745  0.85821548  0.44477974  1
  O  O383  1  0.28005373  0.86709107  0.77406231  1
  O  O384  1  0.77753166  0.36165451  0.10598860  1
  O  O385  1  0.78480890  0.36016102  0.43759983  1
  O  O386  1  0.77594618  0.36055434  0.77815807  1
  O  O387  1  0.78407016  0.86319312  0.10985327  1
  O  O388  1  0.78815158  0.86311169  0.43934763  1
  O  O389  1  0.78415543  0.86172125  0.77836143  1
  O  O390  1  0.36877072  0.28883644  0.27217017  1
  O  O391  1  0.34981807  0.28629420  0.61831296  1
  O  O392  1  0.35772704  0.26871038  0.93567297  1
  O  O393  1  0.35879981  0.76999513  0.27079638  1
  O  O394  1  0.36454920  0.78490046  0.61290592  1
  O  O395  1  0.36433473  0.77795197  0.94271062  1
  O  O396  1  0.85976819  0.28024449  0.27276181  1
  O  O397  1  0.86655763  0.27149047  0.60943800  1
  O  O398  1  0.86403975  0.28365362  0.94077693  1
  O  O399  1  0.86251601  0.78032038  0.27431576  1
  O  O400  1  0.86174481  0.78036862  0.61624984  1
  O  O401  1  0.86719554  0.78351721  0.94526120  1
  O  O402  1  0.21571834  0.13728945  0.22478850  1
  O  O403  1  0.21342074  0.13888388  0.55933546  1
  O  O404  1  0.21306037  0.13609800  0.88793461  1
  O  O405  1  0.21750987  0.64131897  0.22083304  1
  O  O406  1  0.22167689  0.64096420  0.55401116  1
  O  O407  1  0.22527296  0.63679381  0.89836532  1
  O  O408  1  0.72668717  0.14052920  0.22337481  1
  O  O409  1  0.72909251  0.13172702  0.55966398  1
  O  O410  1  0.72133240  0.13822512  0.88757030  1
  O  O411  1  0.72833603  0.63862321  0.22680027  1
  O  O412  1  0.70697711  0.62659132  0.54695159  1
  O  O413  1  0.73033183  0.64395950  0.89883224  1
  O  O414  1  0.48763925  0.32295471  0.02525788  1
  O  O415  1  0.50188299  0.32940496  0.35997372  1
  O  O416  1  0.48500022  0.32982635  0.69732208  1
  O  O417  1  0.48911105  0.84184033  0.03922306  1
  O  O418  1  0.48634642  0.82265189  0.36651348  1
  O  O419  1  0.49530200  0.84753027  0.69659282  1
  O  O420  1  0.99471316  0.33805973  0.03057688  1
  O  O421  1  0.99174224  0.33178049  0.36123380  1
  O  O422  1  0.99479276  0.33055105  0.69406019  1
  O  O423  1  0.99789751  0.83670441  0.03314874  1
  O  O424  1  0.99328759  0.83334719  0.36106666  1
  O  O425  1  0.99403428  0.83626965  0.69833092  1
  O  O426  1  0.15560174  0.00496689  0.13952453  1
  O  O427  1  0.16209637  0.00727314  0.47101768  1
  O  O428  1  0.15508272  0.00653224  0.79861972  1
  O  O429  1  0.16459496  0.50965971  0.13446331  1
  O  O430  1  0.16455445  0.50910194  0.46985087  1
  O  O431  1  0.16771147  0.50951507  0.80609648  1
  O  O432  1  0.67104858  0.01200183  0.13042932  1
  O  O433  1  0.67145992  -0.00100433  0.48095909  1
  O  O434  1  0.67015122  0.00508458  0.80263702  1
  O  O435  1  0.67187957  0.51010946  0.13517493  1
  O  O436  1  0.66861971  0.49206180  0.46653584  1
  O  O437  1  0.67781973  0.51635886  0.80364833  1
  O  O438  1  0.01015447  0.16888105  0.30804426  1
  O  O439  1  0.00344220  0.16458810  0.63482843  1
  O  O440  1  0.00451737  0.17592129  0.97369710  1
  O  O441  1  0.00977545  0.66989165  0.30538376  1
  O  O442  1  0.00960004  0.66901465  0.63885215  1
  O  O443  1  0.00798590  0.66920104  0.96978223  1
  O  O444  1  0.49636641  0.13487009  0.29530039  1
  O  O445  1  0.49649446  0.15290812  0.64005785  1
  O  O446  1  0.50457412  0.16085959  0.96192980  1
  O  O447  1  0.50591797  0.65669381  0.29626616  1
  O  O448  1  0.51413270  0.66181055  0.64119345  1
  O  O449  1  0.51583076  0.67809832  0.97029007  1
  O  O450  1  0.33580160  0.49167088  0.19210104  1
  O  O451  1  0.33360228  0.49646092  0.53701905  1
  O  O452  1  0.32723999  0.48966679  0.86532250  1
  O  O453  1  0.32579592  0.98937874  0.19744161  1
  O  O454  1  0.32895042  0.99035210  0.52770370  1
  O  O455  1  0.32157415  0.99719034  0.86440932  1
  O  O456  1  0.83394253  0.49204630  0.19418963  1
  O  O457  1  0.83482013  0.49543828  0.51865692  1
  O  O458  1  0.83665358  0.49070790  0.86653850  1
  O  O459  1  0.83609395  0.99428707  0.19712636  1
  O  O460  1  0.84354126  0.99269878  0.53029211  1
  O  O461  1  0.83627797  0.99400531  0.86423001  1
