# generated using pymatgen
data_Na31Fe20(SO4)36
_symmetry_space_group_name_H-M   'P 1'
_cell_length_a   18.07235400
_cell_length_b   18.07284904
_cell_length_c   19.70012373
_cell_angle_alpha   107.56525736
_cell_angle_beta   107.62962024
_cell_angle_gamma   90.73264687
_symmetry_Int_Tables_number   1
_chemical_formula_structural   Na31Fe20(SO4)36
_chemical_formula_sum   'Na62 Fe40 S72 O288'
_cell_volume   5807.74866801
_cell_formula_units_Z   2
loop_
 _symmetry_equiv_pos_site_id
 _symmetry_equiv_pos_as_xyz
  1  'x, y, z'
loop_
 _atom_site_type_symbol
 _atom_site_label
 _atom_site_symmetry_multiplicity
 _atom_site_fract_x
 _atom_site_fract_y
 _atom_site_fract_z
 _atom_site_occupancy
  Na  Na0  1  0.13034602  0.36438526  0.07881358  1
  Na  Na1  1  0.13421820  0.36745367  0.41846660  1
  Na  Na2  1  0.13602148  0.35262153  0.75354479  1
  Na  Na3  1  0.13333362  0.86397412  0.08378925  1
  Na  Na4  1  0.13371027  0.86716696  0.41520819  1
  Na  Na5  1  0.13416801  0.86943050  0.74811219  1
  Na  Na6  1  0.64190875  0.36483302  0.08939011  1
  Na  Na7  1  0.62809865  0.35787566  0.40407114  1
  Na  Na8  1  0.64456168  0.35273537  0.74840394  1
  Na  Na9  1  0.63438038  0.87269545  0.08579249  1
  Na  Na10  1  0.63837993  0.86104261  0.41783531  1
  Na  Na11  1  0.63489532  0.86892745  0.74557375  1
  Na  Na12  1  0.36046840  0.14301334  0.25170560  1
  Na  Na13  1  0.36901497  0.13419166  0.58777845  1
  Na  Na14  1  0.36219700  0.13340401  0.91773351  1
  Na  Na15  1  0.37525235  0.63540877  0.25498448  1
  Na  Na16  1  0.36771016  0.64345220  0.58341905  1
  Na  Na17  1  0.37193723  0.63179746  0.91902094  1
  Na  Na18  1  0.86624677  0.14289594  0.25127058  1
  Na  Na19  1  0.86885717  0.14072278  0.59243185  1
  Na  Na20  1  0.84691218  0.12227312  0.90095210  1
  Na  Na21  1  0.86261509  0.63367664  0.25006604  1
  Na  Na22  1  0.86246469  0.63416734  0.58395837  1
  Na  Na23  1  0.86623867  0.62798067  0.91433294  1
  Na  Na24  1  0.50134574  0.48276344  0.10093994  1
  Na  Na25  1  0.95382242  0.01854503  0.02020900  1
  Na  Na26  1  0.49680647  0.54666492  0.40991658  1
  Na  Na27  1  0.96097302  0.50952255  0.40328493  1
  Na  Na28  1  0.49469062  0.01366885  0.74974376  1
  Na  Na29  1  1.00869204  0.47956407  0.76147275  1
  Na  Na30  1  0.99416835  0.01446518  0.76130872  1
  Na  Na31  1  0.50720079  0.48539903  0.76750460  1
  Na  Na32  1  0.51128094  -0.01482034  0.41660300  1
  Na  Na33  1  0.00506841  0.48883300  0.58257111  1
  Na  Na34  1  0.51556167  0.99577014  0.92894729  1
  Na  Na35  1  -0.00308982  0.49844789  0.23470224  1
  Na  Na36  1  0.52167072  0.95830044  0.58160678  1
  Na  Na37  1  -0.00092488  0.99319985  0.25834053  1
  Na  Na38  1  0.00526816  0.46116923  0.92323541  1
  Na  Na39  1  0.49783199  0.52301308  0.57189014  1
  Na  Na40  1  0.48395709  1.04193434  0.19678644  1
  Na  Na41  1  0.03695634  0.99587901  0.58403477  1
  Na  Na42  1  0.25777949  0.75955221  0.66034260  1
  Na  Na43  1  0.27167653  0.76211032  0.32270367  1
  Na  Na44  1  0.76751477  0.25665200  0.65882865  1
  Na  Na45  1  0.72900967  0.23988302  0.33812169  1
  Na  Na46  1  0.24385962  0.74170257  0.01397985  1
  Na  Na47  1  0.73801973  0.74524757  0.66629684  1
  Na  Na48  1  0.75888101  0.76167248  -0.00490738  1
  Na  Na49  1  0.25124732  0.25383793  0.33121826  1
  Na  Na50  1  0.23981011  0.23311333  0.67585204  1
  Na  Na51  1  0.74551066  0.74729310  0.33540502  1
  Na  Na52  1  0.75843510  0.26688590  0.15848952  1
  Na  Na53  1  0.23333796  0.23140727  0.84795346  1
  Na  Na54  1  0.75724516  0.76517548  0.83202589  1
  Na  Na55  1  0.25988538  0.26137370  0.15050764  1
  Na  Na56  1  0.24819723  0.24788558  0.50503497  1
  Na  Na57  1  0.26953903  0.76460285  0.48849580  1
  Na  Na58  1  0.73385788  0.73903416  0.50577835  1
  Na  Na59  1  0.75189667  0.75234381  0.16486372  1
  Na  Na60  1  0.25149724  0.75277198  0.83380910  1
  Na  Na61  1  0.73808691  0.22747920  0.83980231  1
  Fe  Fe62  1  0.46993108  0.30568798  0.45433263  1
  Fe  Fe63  1  0.46531605  0.81221218  0.12086726  1
  Fe  Fe64  1  0.46776813  0.30660699  0.78727652  1
  Fe  Fe65  1  0.96021840  0.30884600  0.11694119  1
  Fe  Fe66  1  0.96200783  0.80935781  0.45449676  1
  Fe  Fe67  1  0.46728802  0.80790802  0.78785764  1
  Fe  Fe68  1  0.96154805  0.30867733  0.44722400  1
  Fe  Fe69  1  0.46778479  0.29895905  0.12482818  1
  Fe  Fe70  1  0.96489768  0.81001295  0.79048044  1
  Fe  Fe71  1  0.96618806  0.80454269  0.11830355  1
  Fe  Fe72  1  0.19545963  0.53443348  0.71656635  1
  Fe  Fe73  1  0.18970288  0.53291880  0.38141298  1
  Fe  Fe74  1  0.69348812  0.53253620  0.04505720  1
  Fe  Fe75  1  0.19170833  0.03626761  0.37876948  1
  Fe  Fe76  1  0.69099284  0.03988051  0.37995501  1
  Fe  Fe77  1  0.69324503  0.53373017  0.71180972  1
  Fe  Fe78  1  0.69837466  0.52812068  0.36820973  1
  Fe  Fe79  1  0.69868624  0.03483815  0.04755066  1
  Fe  Fe80  1  0.18165546  0.03805435  0.04259796  1
  Fe  Fe81  1  0.19742098  0.53693004  0.05321903  1
  Fe  Fe82  1  0.53755192  0.19410469  0.88679372  1
  Fe  Fe83  1  0.03016759  0.19412781  0.54756102  1
  Fe  Fe84  1  0.53503290  0.69487472  0.21153535  1
  Fe  Fe85  1  0.03714285  0.68966750  0.21346302  1
  Fe  Fe86  1  0.03333881  0.19024549  0.20957586  1
  Fe  Fe87  1  0.03520064  0.68908525  0.88196925  1
  Fe  Fe88  1  0.53624435  0.69301853  0.88244326  1
  Fe  Fe89  1  0.53916422  0.18697786  0.54716515  1
  Fe  Fe90  1  0.03329017  0.69349390  0.54918537  1
  Fe  Fe91  1  0.03250740  0.20030428  0.87759422  1
  Fe  Fe92  1  0.81337025  0.96753935  0.29254383  1
  Fe  Fe93  1  0.30403448  0.96909731  0.95595518  1
  Fe  Fe94  1  0.30736789  0.46474092  0.61983902  1
  Fe  Fe95  1  0.29880637  0.97203081  0.62563198  1
  Fe  Fe96  1  0.30852689  0.96339522  0.28681292  1
  Fe  Fe97  1  0.80130863  0.96810237  0.62570580  1
  Fe  Fe98  1  0.80939500  0.46026600  0.61655104  1
  Fe  Fe99  1  0.81077406  0.46119666  0.95360570  1
  Fe  Fe100  1  0.30628110  0.46684222  0.28634544  1
  Fe  Fe101  1  0.31198083  0.46253615  0.95483011  1
  S  S102  1  0.35345747  0.13922325  0.08524503  1
  S  S103  1  0.35760689  0.14236403  0.41587537  1
  S  S104  1  0.36054958  0.14465084  0.75307782  1
  S  S105  1  0.36118212  0.63918375  0.08109462  1
  S  S106  1  0.35549846  0.63678116  0.42016659  1
  S  S107  1  0.36100651  0.63947931  0.75000113  1
  S  S108  1  0.85583062  0.14836218  0.08674559  1
  S  S109  1  0.85843045  0.14391915  0.41482536  1
  S  S110  1  0.86106624  0.13621791  0.74994334  1
  S  S111  1  0.86070300  0.63996176  0.08315349  1
  S  S112  1  0.85944262  0.64326221  0.41898747  1
  S  S113  1  0.86029095  0.63810048  0.74738207  1
  S  S114  1  0.13984534  0.35996358  0.24765161  1
  S  S115  1  0.13920349  0.36064262  0.58434165  1
  S  S116  1  0.14336713  0.36530110  0.91774005  1
  S  S117  1  0.13960063  0.85802707  0.25209774  1
  S  S118  1  0.13828672  0.85683200  0.58073587  1
  S  S119  1  0.14162964  0.85645066  0.91847649  1
  S  S120  1  0.63902575  0.35964325  0.24735678  1
  S  S121  1  0.64331115  0.35755564  0.58611927  1
  S  S122  1  0.64016127  0.36003969  0.91268422  1
  S  S123  1  0.64346473  0.86242343  0.25166462  1
  S  S124  1  0.64556540  0.85806140  0.57802273  1
  S  S125  1  0.64033155  0.85896625  0.92155751  1
  S  S126  1  0.06166617  0.17391208  0.04204755  1
  S  S127  1  0.06752069  0.17337380  0.37573731  1
  S  S128  1  0.06377736  0.16853266  0.70963598  1
  S  S129  1  0.06793633  0.66578616  0.04120802  1
  S  S130  1  0.06505164  0.66744924  0.37738769  1
  S  S131  1  0.06762039  0.66606432  0.70980369  1
  S  S132  1  0.56654552  0.17121523  0.04563455  1
  S  S133  1  0.55968874  0.16399899  0.37559796  1
  S  S134  1  0.56107955  0.16491628  0.70587268  1
  S  S135  1  0.57058805  0.67209672  0.04457011  1
  S  S136  1  0.57513567  0.66402951  0.36947748  1
  S  S137  1  0.56693443  0.66993419  0.71016964  1
  S  S138  1  0.32979536  0.43193844  0.12459071  1
  S  S139  1  0.32987850  0.43026092  0.45984986  1
  S  S140  1  0.32903769  0.43022637  0.78844278  1
  S  S141  1  0.32517331  0.93325276  0.12318368  1
  S  S142  1  0.33126844  0.94147588  0.45864848  1
  S  S143  1  0.33007657  0.93079905  0.79415042  1
  S  S144  1  0.83163718  0.43874058  0.12369896  1
  S  S145  1  0.82960253  0.43547737  0.45496780  1
  S  S146  1  0.83218368  0.43747178  0.79013102  1
  S  S147  1  0.83518648  0.93437712  0.12871666  1
  S  S148  1  0.83197782  0.93418873  0.46169902  1
  S  S149  1  0.83382206  0.92883819  0.79081463  1
  S  S150  1  0.42680673  0.33557072  0.29561548  1
  S  S151  1  0.43478895  0.33461507  0.62493255  1
  S  S152  1  0.43359469  0.32808029  0.95890012  1
  S  S153  1  0.43797517  0.83122252  0.28982230  1
  S  S154  1  0.42892651  0.83956534  0.62904627  1
  S  S155  1  0.42972709  0.82945773  0.95738632  1
  S  S156  1  0.94223827  0.33545358  0.28915171  1
  S  S157  1  0.94024766  0.33569464  0.62412444  1
  S  S158  1  0.93082710  0.32506643  0.95529673  1
  S  S159  1  0.93339820  0.82734654  0.29093652  1
  S  S160  1  0.92948038  0.82874669  0.62457362  1
  S  S161  1  0.93242436  0.82077435  0.95426807  1
  S  S162  1  0.16676170  0.06613219  0.20895594  1
  S  S163  1  0.16929285  0.06938603  0.53960631  1
  S  S164  1  0.16412454  0.06374481  0.87510865  1
  S  S165  1  0.17074778  0.56759313  0.21293441  1
  S  S166  1  0.16646719  0.56615461  0.54430698  1
  S  S167  1  0.17265913  0.56705808  0.87725967  1
  S  S168  1  0.68064841  0.06786363  0.21460458  1
  S  S169  1  0.67397775  0.06581716  0.54281853  1
  S  S170  1  0.65643486  0.06116106  0.87385194  1
  S  S171  1  0.67219120  0.57150151  0.20678500  1
  S  S172  1  0.67258192  0.55985631  0.53746519  1
  S  S173  1  0.67125483  0.56824035  0.87607475  1
  O  O174  1  0.36525597  0.21991750  0.08200506  1
  O  O175  1  0.36894940  0.22109535  0.40748421  1
  O  O176  1  0.37354725  0.22177956  0.74032699  1
  O  O177  1  0.37201035  0.71681548  0.07108823  1
  O  O178  1  0.36009514  0.71621606  0.41654160  1
  O  O179  1  0.37016524  0.71874162  0.74263246  1
  O  O180  1  0.86279561  0.23269794  0.09265845  1
  O  O181  1  0.86801092  0.22091385  0.40194364  1
  O  O182  1  0.86823005  0.20803440  0.73194918  1
  O  O183  1  0.86924249  0.71988733  0.07542080  1
  O  O184  1  0.86517832  0.72537199  0.41699528  1
  O  O185  1  0.87233376  0.71672831  0.73949758  1
  O  O186  1  0.27160678  0.13054608  0.08887431  1
  O  O187  1  0.27685302  0.13635164  0.42160709  1
  O  O188  1  0.28342523  0.13961786  0.76121755  1
  O  O189  1  0.28147193  0.63210707  0.08771734  1
  O  O190  1  0.27603806  0.62196461  0.42907754  1
  O  O191  1  0.28269021  0.63138809  0.76046562  1
  O  O192  1  0.77964893  0.13442095  0.09871942  1
  O  O193  1  0.77713557  0.13429165  0.41629720  1
  O  O194  1  0.78914244  0.12509734  0.76673118  1
  O  O195  1  0.78158257  0.63153163  0.09113461  1
  O  O196  1  0.77905940  0.62907143  0.42440873  1
  O  O197  1  0.77987167  0.63268716  0.75405138  1
  O  O198  1  0.13241696  0.27971256  0.25317854  1
  O  O199  1  0.13050154  0.28103261  0.59073423  1
  O  O200  1  0.13222780  0.28554515  0.92215305  1
  O  O201  1  0.13009923  0.78122751  0.26479870  1
  O  O202  1  0.12980588  0.77604422  0.58709111  1
  O  O203  1  0.13446997  0.77753138  0.92815295  1
  O  O204  1  0.62655619  0.28811663  0.26429873  1
  O  O205  1  0.63146500  0.28102337  0.59842847  1
  O  O206  1  0.63065591  0.27989534  0.91665965  1
  O  O207  1  0.63167944  0.78317725  0.25870537  1
  O  O208  1  0.64360501  0.77634408  0.57666401  1
  O  O209  1  0.62597501  0.78153264  0.93328715  1
  O  O210  1  0.21777044  0.37042814  0.23765834  1
  O  O211  1  0.21803904  0.37003594  0.57549253  1
  O  O212  1  0.22322625  0.37185898  0.90906999  1
  O  O213  1  0.22064111  0.86793832  0.25049061  1
  O  O214  1  0.21764265  0.86618378  0.57303261  1
  O  O215  1  0.22154775  0.86747140  0.91278533  1
  O  O216  1  0.71257070  0.36780980  0.23246620  1
  O  O217  1  0.72437683  0.36483238  0.58343171  1
  O  O218  1  0.71677242  0.36906840  0.89966710  1
  O  O219  1  0.72354635  0.86851976  0.24460230  1
  O  O220  1  0.72819305  0.87423308  0.57056833  1
  O  O221  1  0.71886845  0.86326710  0.91629821  1
  O  O222  1  0.40801201  0.12743290  0.15195775  1
  O  O223  1  0.41438432  0.13509261  0.48514280  1
  O  O224  1  0.42144847  0.13684153  0.82054821  1
  O  O225  1  0.41934240  0.63055063  0.14913951  1
  O  O226  1  0.41553001  0.62190730  0.48270191  1
  O  O227  1  0.42110943  0.62954555  0.81651171  1
  O  O228  1  0.91816173  0.13233171  0.14993825  1
  O  O229  1  0.91311390  0.14210942  0.48764334  1
  O  O230  1  0.92840532  0.12860805  0.81412081  1
  O  O231  1  0.91991051  0.63454886  0.15216984  1
  O  O232  1  0.91715283  0.63502342  0.48874464  1
  O  O233  1  0.91767452  0.62837850  0.81555090  1
  O  O234  1  0.36098707  0.08282603  0.01508926  1
  O  O235  1  0.36401839  0.08224604  0.34801353  1
  O  O236  1  0.36782058  0.08281422  0.68539613  1
  O  O237  1  0.36870219  0.57849786  0.01327285  1
  O  O238  1  0.36088950  0.58083226  0.34754657  1
  O  O239  1  0.36542046  0.58105956  0.68018037  1
  O  O240  1  0.86042491  0.09911151  0.01461365  1
  O  O241  1  0.87376923  0.08293640  0.35193099  1
  O  O242  1  0.86711026  0.06966413  0.68143411  1
  O  O243  1  0.86825277  0.58172874  0.01513905  1
  O  O244  1  0.87186441  0.58926525  0.35275313  1
  O  O245  1  0.86751969  0.57862026  0.67947252  1
  O  O246  1  0.07893467  0.37205027  0.18309244  1
  O  O247  1  0.07975952  0.37092184  0.51741032  1
  O  O248  1  0.08561834  0.38186978  0.85492047  1
  O  O249  1  0.08354290  0.86036071  0.17986485  1
  O  O250  1  0.07980195  0.86258331  0.51027633  1
  O  O251  1  0.08423033  0.85871996  0.84728958  1
  O  O252  1  0.57412338  0.36960262  0.18252588  1
  O  O253  1  0.58747327  0.36258014  0.51491536  1
  O  O254  1  0.57898180  0.37206530  0.84677092  1
  O  O255  1  0.58528127  0.87052865  0.18319885  1
  O  O256  1  0.58903749  0.87201786  0.51272730  1
  O  O257  1  0.58104725  0.86522181  0.85229918  1
  O  O258  1  0.13523763  0.41658934  0.31905772  1
  O  O259  1  0.13234139  0.41933294  0.65319745  1
  O  O260  1  0.13936662  0.42257100  0.98974612  1
  O  O261  1  0.12431925  0.92035659  0.31472299  1
  O  O262  1  0.12777571  0.91476675  0.64589478  1
  O  O263  1  0.13061112  0.91570738  0.98449385  1
  O  O264  1  0.63725170  0.42628454  0.31717384  1
  O  O265  1  0.63152659  0.41950821  0.65120723  1
  O  O266  1  0.63581506  0.41682221  0.98333511  1
  O  O267  1  0.63766635  0.92145169  0.32025794  1
  O  O268  1  0.63861134  0.91110871  0.64818394  1
  O  O269  1  0.62992320  0.92041833  0.98762140  1
  O  O270  1  0.02314743  0.20440811  0.10242096  1
  O  O271  1  0.03175577  0.20175813  0.43715148  1
  O  O272  1  0.03632055  0.20807854  0.77310880  1
  O  O273  1  0.03232970  0.69609417  0.10314469  1
  O  O274  1  0.02538250  0.69603806  0.43613769  1
  O  O275  1  0.03366218  0.69549846  0.77197253  1
  O  O276  1  0.52869570  0.19853584  0.10408556  1
  O  O277  1  0.53030969  0.19888252  0.44307368  1
  O  O278  1  0.52909345  0.20302874  0.76930749  1
  O  O279  1  0.53258831  0.70293776  0.10453588  1
  O  O280  1  0.53877947  0.67747793  0.42735330  1
  O  O281  1  0.53509495  0.70132633  0.77528701  1
  O  O282  1  0.30194096  0.47255870  0.06566046  1
  O  O283  1  0.29757716  0.46192839  0.39637966  1
  O  O284  1  0.29930178  0.46981318  0.72880027  1
  O  O285  1  0.29456485  0.96986298  0.06269370  1
  O  O286  1  0.29413943  0.97732423  0.39687727  1
  O  O287  1  0.30247819  0.96355591  0.73259836  1
  O  O288  1  0.79741419  0.46916336  0.05685829  1
  O  O289  1  0.80131824  0.47457626  0.39653128  1
  O  O290  1  0.79764697  0.47484001  0.72955176  1
  O  O291  1  0.80654272  0.97215843  0.07088907  1
  O  O292  1  0.80682475  0.97518345  0.40387818  1
  O  O293  1  0.80804665  0.95577999  0.72331299  1
  O  O294  1  0.45666578  0.31290253  0.23221590  1
  O  O295  1  0.46956347  0.30491260  0.56333546  1
  O  O296  1  0.47262072  0.30116218  0.89926088  1
  O  O297  1  0.46665421  0.79942997  0.22203533  1
  O  O298  1  0.46350548  0.82691394  0.56998669  1
  O  O299  1  0.46588229  0.79838966  0.89611271  1
  O  O300  1  0.97868340  0.29580918  0.22966879  1
  O  O301  1  0.96794771  0.30246258  0.55632622  1
  O  O302  1  0.97039430  0.30020922  0.89782744  1
  O  O303  1  0.97000090  0.79722388  0.23001489  1
  O  O304  1  0.96881763  0.80232967  0.56484067  1
  O  O305  1  0.97196058  0.78828637  0.89479207  1
  O  O306  1  0.19809788  0.02642582  0.26751422  1
  O  O307  1  0.19763432  0.03190629  0.59855115  1
  O  O308  1  0.19526505  0.02932438  0.93965982  1
  O  O309  1  0.19947442  0.52909793  0.27292816  1
  O  O310  1  0.19708643  0.52965870  0.60553248  1
  O  O311  1  0.20322888  0.53263307  0.93884122  1
  O  O312  1  0.71121881  0.02583200  0.27300990  1
  O  O313  1  0.70536588  0.02949786  0.60252128  1
  O  O314  1  0.68442831  0.03315803  0.93973076  1
  O  O315  1  0.70191226  0.54032647  0.27026977  1
  O  O316  1  0.70530165  0.52061146  0.59658576  1
  O  O317  1  0.70207406  0.53316252  0.93762832  1
  O  O318  1  0.07698436  0.09194747  0.04044334  1
  O  O319  1  0.08681030  0.09193994  0.36864692  1
  O  O320  1  0.06772592  0.08493599  0.70107812  1
  O  O321  1  0.08813310  0.58510480  0.03689196  1
  O  O322  1  0.08037913  0.58440143  0.37137846  1
  O  O323  1  0.08483306  0.58325554  0.70331802  1
  O  O324  1  0.59011815  0.09131413  0.04201431  1
  O  O325  1  0.58352619  0.08513492  0.37844076  1
  O  O326  1  0.56045942  0.08102465  0.69511578  1
  O  O327  1  0.59112888  0.59258328  0.04239810  1
  O  O328  1  0.60138955  0.58232118  0.35590208  1
  O  O329  1  0.59039864  0.58957167  0.70885028  1
  O  O330  1  0.40771297  0.40761371  0.12409179  1
  O  O331  1  0.41204985  0.41327195  0.46752084  1
  O  O332  1  0.40957391  0.41168330  0.79050378  1
  O  O333  1  0.40683602  0.91572237  0.12712042  1
  O  O334  1  0.41331803  0.93538884  0.46327772  1
  O  O335  1  0.41449605  0.91579140  0.80752939  1
  O  O336  1  0.90959950  0.41272741  0.12057653  1
  O  O337  1  0.91239046  0.41847308  0.45739372  1
  O  O338  1  0.91495967  0.43067753  0.79752564  1
  O  O339  1  0.91624648  0.91176529  0.13246689  1
  O  O340  1  0.91517385  0.91818616  0.47179596  1
  O  O341  1  0.91737156  0.91098174  0.79918623  1
  O  O342  1  0.41208538  0.41986982  0.31411527  1
  O  O343  1  0.41702900  0.41718822  0.63152220  1
  O  O344  1  0.41623507  0.41059874  0.96617724  1
  O  O345  1  0.40831660  0.90853183  0.28869678  1
  O  O346  1  0.40402782  0.92113546  0.64690015  1
  O  O347  1  0.41014723  0.90955185  0.96024391  1
  O  O348  1  0.93723451  0.41689386  0.29005466  1
  O  O349  1  0.91952012  0.41760940  0.62510225  1
  O  O350  1  0.90990645  0.40618261  0.95736344  1
  O  O351  1  0.91675437  0.90886853  0.29556021  1
  O  O352  1  0.90851995  0.90972070  0.63031060  1
  O  O353  1  0.91014994  0.89689015  0.95252954  1
  O  O354  1  0.08592723  0.08385129  0.20808650  1
  O  O355  1  0.08934572  0.09112761  0.53790283  1
  O  O356  1  0.09019020  0.09726927  0.88084380  1
  O  O357  1  0.08894543  0.58456453  0.20925693  1
  O  O358  1  0.08345944  0.58127955  0.53837317  1
  O  O359  1  0.09018494  0.58396506  0.87118714  1
  O  O360  1  0.60320550  0.08746008  0.21485757  1
  O  O361  1  0.59110667  0.08123155  0.53934785  1
  O  O362  1  0.57389850  0.08447255  0.87025189  1
  O  O363  1  0.58949593  0.58828459  0.19562315  1
  O  O364  1  0.59014348  0.56789279  0.53040116  1
  O  O365  1  0.59003377  0.58727983  0.87213103  1
  O  O366  1  0.13415683  0.22460482  0.06157442  1
  O  O367  1  0.13849089  0.22668185  0.39251113  1
  O  O368  1  0.14057930  0.21140148  0.72174583  1
  O  O369  1  0.13624250  0.71945280  0.05433994  1
  O  O370  1  0.13702163  0.71881832  0.39594162  1
  O  O371  1  0.13891039  0.71680889  0.72338182  1
  O  O372  1  0.63435447  0.22617824  0.05824908  1
  O  O373  1  0.62660758  0.21678002  0.38454636  1
  O  O374  1  0.63862130  0.20694424  0.72266772  1
  O  O375  1  0.64018575  0.72647756  0.06037088  1
  O  O376  1  0.64408191  0.72109265  0.38739507  1
  O  O377  1  0.63620931  0.72364135  0.72315981  1
  O  O378  1  0.27242070  0.36569459  0.10869450  1
  O  O379  1  0.27871556  0.35939905  0.44773118  1
  O  O380  1  0.27593957  0.35948121  0.77019898  1
  O  O381  1  0.27369910  0.86253593  0.10833390  1
  O  O382  1  0.28365178  0.86532017  0.43772381  1
  O  O383  1  0.28018642  0.85694315  0.77780748  1
  O  O384  1  0.77741282  0.37341157  0.11509152  1
  O  O385  1  0.77896249  0.36443717  0.43942035  1
  O  O386  1  0.78501601  0.36226057  0.77041091  1
  O  O387  1  0.78177025  0.86365680  0.11401657  1
  O  O388  1  0.77976563  0.86141071  0.43836126  1
  O  O389  1  0.78302756  0.85563479  0.77463686  1
  O  O390  1  0.35357784  0.28473715  0.27904607  1
  O  O391  1  0.36366887  0.28317972  0.61027028  1
  O  O392  1  0.36270703  0.27533879  0.93986793  1
  O  O393  1  0.37501527  0.77422407  0.28237281  1
  O  O394  1  0.35949323  0.78152732  0.60958466  1
  O  O395  1  0.36011111  0.77536957  0.94241067  1
  O  O396  1  0.86708533  0.29083056  0.27396296  1
  O  O397  1  0.87184712  0.28603529  0.61615974  1
  O  O398  1  0.86114996  0.27212760  0.94010681  1
  O  O399  1  0.86133146  0.77596700  0.27432922  1
  O  O400  1  0.86015842  0.77337821  0.60621893  1
  O  O401  1  0.86363866  0.76444770  0.93806796  1
  O  O402  1  0.21861524  0.13800197  0.22701381  1
  O  O403  1  0.22315189  0.13999234  0.55495280  1
  O  O404  1  0.22402024  0.12517067  0.88483321  1
  O  O405  1  0.22247914  0.63851466  0.22982954  1
  O  O406  1  0.21698606  0.63807571  0.56102839  1
  O  O407  1  0.22352235  0.63830825  0.89106391  1
  O  O408  1  0.73577667  0.13816175  0.23479384  1
  O  O409  1  0.72323116  0.13771764  0.55678193  1
  O  O410  1  0.70767645  0.13000234  0.88368015  1
  O  O411  1  0.72323957  0.64324706  0.22090926  1
  O  O412  1  0.72187052  0.63495215  0.56011769  1
  O  O413  1  0.72323568  0.63874411  0.88975610  1
  O  O414  1  0.49195057  0.33076509  0.03229821  1
  O  O415  1  0.48792178  0.32785040  0.36384961  1
  O  O416  1  0.49504518  0.33883968  0.69800424  1
  O  O417  1  0.48983735  0.83264687  0.03025071  1
  O  O418  1  0.50504682  0.84598086  0.35797943  1
  O  O419  1  0.48828677  0.83648182  0.70117039  1
  O  O420  1  0.98972388  0.33245768  0.03035748  1
  O  O421  1  0.99731113  0.33532493  0.36426854  1
  O  O422  1  1.00617322  0.34632173  0.69257743  1
  O  O423  1  0.99179511  0.82492724  0.02804259  1
  O  O424  1  0.99129530  0.82806530  0.36347562  1
  O  O425  1  0.98966592  0.83051668  0.69653555  1
  O  O426  1  0.16268450  0.00955202  0.13465831  1
  O  O427  1  0.16317082  0.01103961  0.46501470  1
  O  O428  1  0.14576743  -0.00102833  0.80463282  1
  O  O429  1  0.16890754  0.50890609  0.14041411  1
  O  O430  1  0.16552902  0.50683485  0.47227598  1
  O  O431  1  0.16847497  0.50659463  0.80417180  1
  O  O432  1  0.67953458  0.01109286  0.14081373  1
  O  O433  1  0.66833624  0.00740371  0.46794146  1
  O  O434  1  0.64544930  -0.00249097  0.80384797  1
  O  O435  1  0.67270823  0.50946027  0.13641902  1
  O  O436  1  0.67768640  0.50826881  0.46334138  1
  O  O437  1  0.66538706  0.50730321  0.80297567  1
  O  O438  1  0.00799081  0.17126618  0.30342766  1
  O  O439  1  0.00681794  0.17428242  0.63726870  1
  O  O440  1  0.00458473  0.17193943  0.96954137  1
  O  O441  1  0.00779238  0.66527125  0.30342476  1
  O  O442  1  0.00707844  0.66356828  0.63754604  1
  O  O443  1  0.00610592  0.66047125  0.96851746  1
  O  O444  1  0.49403609  0.15277299  0.30681960  1
  O  O445  1  0.50597262  0.17594575  0.63537074  1
  O  O446  1  0.50572901  0.16385482  0.97064042  1
  O  O447  1  0.51558746  0.66433556  0.29697713  1
  O  O448  1  0.50413919  0.66079545  0.63984542  1
  O  O449  1  0.51074258  0.66823715  0.97154119  1
  O  O450  1  0.33714247  0.49211573  0.19858472  1
  O  O451  1  0.33177248  0.49254678  0.53123972  1
  O  O452  1  0.33190178  0.48838454  0.86137692  1
  O  O453  1  0.32894276  0.99311033  0.19624666  1
  O  O454  1  0.32554212  0.99449112  0.53111691  1
  O  O455  1  0.32639663  0.98978878  0.86491656  1
  O  O456  1  0.84611550  0.50438661  0.19293785  1
  O  O457  1  0.83729231  0.49307239  0.53040765  1
  O  O458  1  0.82720848  0.49223961  0.86275298  1
  O  O459  1  0.84456318  0.99211733  0.20515565  1
  O  O460  1  0.82908208  0.98913941  0.53482268  1
  O  O461  1  0.83234797  0.98959182  0.85784413  1
