# generated using pymatgen
data_Na31Fe20(SO4)36
_symmetry_space_group_name_H-M   'P 1'
_cell_length_a   18.06963065
_cell_length_b   18.06603383
_cell_length_c   19.68655742
_cell_angle_alpha   107.58199765
_cell_angle_beta   107.59309936
_cell_angle_gamma   90.68582365
_symmetry_Int_Tables_number   1
_chemical_formula_structural   Na31Fe20(SO4)36
_chemical_formula_sum   'Na62 Fe40 S72 O288'
_cell_volume   5802.00849291
_cell_formula_units_Z   2
loop_
 _symmetry_equiv_pos_site_id
 _symmetry_equiv_pos_as_xyz
  1  'x, y, z'
loop_
 _atom_site_type_symbol
 _atom_site_label
 _atom_site_symmetry_multiplicity
 _atom_site_fract_x
 _atom_site_fract_y
 _atom_site_fract_z
 _atom_site_occupancy
  Na  Na0  1  0.13444038  0.37749740  0.09905284  1
  Na  Na1  1  0.13442323  0.35312266  0.40655612  1
  Na  Na2  1  0.13188225  0.34771450  0.72582941  1
  Na  Na3  1  0.12809252  0.88338185  0.08434073  1
  Na  Na4  1  0.14331898  0.87260424  0.42792060  1
  Na  Na5  1  0.13611229  0.84702037  0.73427640  1
  Na  Na6  1  0.62955520  0.35923366  0.08100120  1
  Na  Na7  1  0.62945516  0.36174475  0.41598221  1
  Na  Na8  1  0.62778954  0.36673411  0.74712250  1
  Na  Na9  1  0.63216167  0.86466101  0.08029723  1
  Na  Na10  1  0.63861047  0.86841868  0.41585850  1
  Na  Na11  1  0.63011997  0.86665466  0.74685336  1
  Na  Na12  1  0.36636233  0.13350696  0.24176752  1
  Na  Na13  1  0.34463314  0.13523082  0.58268331  1
  Na  Na14  1  0.36794420  0.15004531  0.92920412  1
  Na  Na15  1  0.35893253  0.62683560  0.24308527  1
  Na  Na16  1  0.35948935  0.64437057  0.58827471  1
  Na  Na17  1  0.36431408  0.63678659  0.91688534  1
  Na  Na18  1  0.87095798  0.14522655  0.26162058  1
  Na  Na19  1  0.85787624  0.13473950  0.56877477  1
  Na  Na20  1  0.87674280  0.12869634  0.91925071  1
  Na  Na21  1  0.87527919  0.62487697  0.24847692  1
  Na  Na22  1  0.86884535  0.63565542  0.58793529  1
  Na  Na23  1  0.86744255  0.63152673  0.91464095  1
  Na  Na24  1  0.43685867  -0.00005312  0.73782719  1
  Na  Na25  1  0.99515632  0.51765402  0.75424493  1
  Na  Na26  1  0.50721926  0.45603027  0.15994974  1
  Na  Na27  1  0.99252858  0.04482516  0.41959958  1
  Na  Na28  1  1.02869754  0.49172723  0.38184532  1
  Na  Na29  1  0.48065049  0.01979996  0.08677829  1
  Na  Na30  1  1.02355117  -0.04517522  0.82001436  1
  Na  Na31  1  0.45266297  0.50527433  0.39015526  1
  Na  Na32  1  0.49602865  0.00969376  0.41666102  1
  Na  Na33  1  0.01083517  0.99838780  0.58808709  1
  Na  Na34  1  0.00889853  0.48105879  0.56999344  1
  Na  Na35  1  0.50202710  0.49196605  0.59547121  1
  Na  Na36  1  0.50552416  0.98523057  0.91623810  1
  Na  Na37  1  0.50495759  0.49310014  0.91555736  1
  Na  Na38  1  0.48493819  1.01286296  0.58892135  1
  Na  Na39  1  0.54686140  0.99516207  0.26328039  1
  Na  Na40  1  -0.01280531  1.04145055  0.18918152  1
  Na  Na41  1  0.00708755  0.48099074  0.93721959  1
  Na  Na42  1  0.24204135  0.24591747  0.33402765  1
  Na  Na43  1  0.75886027  0.75355439  0.32652480  1
  Na  Na44  1  0.25005939  0.25139348  0.01246431  1
  Na  Na45  1  0.75882798  0.75504971  -0.00852319  1
  Na  Na46  1  0.75762409  0.25462278  0.64850054  1
  Na  Na47  1  0.24296149  0.75048133  0.01514129  1
  Na  Na48  1  0.73729569  0.23339254  0.35545948  1
  Na  Na49  1  0.25932272  0.76081728  0.32425861  1
  Na  Na50  1  0.74850549  0.24508088  -0.00045254  1
  Na  Na51  1  0.76653641  0.76164637  0.66406338  1
  Na  Na52  1  0.25128304  0.25577744  0.82328073  1
  Na  Na53  1  0.22414866  0.23771665  0.51444702  1
  Na  Na54  1  0.74167664  0.24354363  0.17303927  1
  Na  Na55  1  0.75335229  0.25532789  0.82872497  1
  Na  Na56  1  0.75672077  0.75471847  0.15981451  1
  Na  Na57  1  0.76010944  0.75747472  0.49643767  1
  Na  Na58  1  0.76518137  0.76158993  0.82437376  1
  Na  Na59  1  0.25226361  0.75467238  0.50504540  1
  Na  Na60  1  0.24859463  0.75266800  0.83244246  1
  Na  Na61  1  0.23881095  0.24021324  0.17206819  1
  Fe  Fe62  1  0.45994295  0.31045480  0.78396342  1
  Fe  Fe63  1  0.97013767  0.30006365  0.12615693  1
  Fe  Fe64  1  0.45880214  0.30926981  0.44872337  1
  Fe  Fe65  1  0.46769656  0.80652945  0.12007346  1
  Fe  Fe66  1  0.46329656  0.80459651  0.78239835  1
  Fe  Fe67  1  0.96509314  0.80650757  0.45305882  1
  Fe  Fe68  1  0.46836195  0.81077544  0.45375301  1
  Fe  Fe69  1  0.96886098  0.29902449  0.78150664  1
  Fe  Fe70  1  0.97008150  0.29497219  0.45106393  1
  Fe  Fe71  1  0.96641423  0.81150537  0.12345000  1
  Fe  Fe72  1  0.19233939  0.03289017  0.38044695  1
  Fe  Fe73  1  0.19284736  0.54069924  0.04875862  1
  Fe  Fe74  1  0.20160163  0.53327975  0.37259519  1
  Fe  Fe75  1  0.68789153  0.03671995  0.71313749  1
  Fe  Fe76  1  0.69099059  0.03460686  0.04402035  1
  Fe  Fe77  1  0.69178814  0.53352231  0.38184037  1
  Fe  Fe78  1  0.19827950  0.03078189  0.70840798  1
  Fe  Fe79  1  0.69707321  0.53207146  0.05080176  1
  Fe  Fe80  1  0.69499582  0.53337369  0.71826318  1
  Fe  Fe81  1  0.19282143  0.53816481  0.71212302  1
  Fe  Fe82  1  0.53098918  0.20051543  0.21517282  1
  Fe  Fe83  1  0.03963903  0.18660703  0.87980579  1
  Fe  Fe84  1  0.53084522  0.19586297  0.88208587  1
  Fe  Fe85  1  0.03343934  0.70178449  0.87865052  1
  Fe  Fe86  1  0.53682891  0.69136011  0.54768977  1
  Fe  Fe87  1  0.53463582  0.19509752  0.54907883  1
  Fe  Fe88  1  0.03800631  0.69322415  0.21122841  1
  Fe  Fe89  1  0.03446649  0.69175148  0.54625011  1
  Fe  Fe90  1  0.53321697  0.68746307  0.21266266  1
  Fe  Fe91  1  0.53638427  0.68842893  0.87979777  1
  Fe  Fe92  1  0.30929307  0.96573900  0.28213081  1
  Fe  Fe93  1  0.80667588  0.46313522  0.61781030  1
  Fe  Fe94  1  0.80984706  0.46200589  0.28895981  1
  Fe  Fe95  1  0.30041569  0.97275558  0.96093766  1
  Fe  Fe96  1  0.79899042  0.96988518  0.29072590  1
  Fe  Fe97  1  0.80908941  0.96609121  0.95334551  1
  Fe  Fe98  1  0.30730470  0.46639699  0.61943644  1
  Fe  Fe99  1  0.80798448  0.96782131  0.62191472  1
  Fe  Fe100  1  0.31015261  0.46493300  0.95353256  1
  Fe  Fe101  1  0.81133091  0.46361590  0.95812094  1
  S  S102  1  0.36287681  0.14429143  0.08121574  1
  S  S103  1  0.36066447  0.14098568  0.42246835  1
  S  S104  1  0.35887320  0.14513721  0.75226423  1
  S  S105  1  0.36072540  0.64223347  0.07989199  1
  S  S106  1  0.36123679  0.64847034  0.41958386  1
  S  S107  1  0.36175108  0.63967740  0.75054189  1
  S  S108  1  0.85427580  0.13980891  0.08339953  1
  S  S109  1  0.85669156  0.13943334  0.41382053  1
  S  S110  1  0.85600058  0.14159403  0.74895378  1
  S  S111  1  0.86114494  0.64046265  0.08413314  1
  S  S112  1  0.85982985  0.63802195  0.41562408  1
  S  S113  1  0.85829417  0.63782877  0.75219424  1
  S  S114  1  0.13617301  0.36090311  0.25315855  1
  S  S115  1  0.13869959  0.36556217  0.57860297  1
  S  S116  1  0.13817417  0.36031962  0.91468352  1
  S  S117  1  0.14218044  0.86055572  0.24959223  1
  S  S118  1  0.13688474  0.85864295  0.58188724  1
  S  S119  1  0.14788079  0.85704365  0.91599648  1
  S  S120  1  0.64400013  0.35950110  0.25418612  1
  S  S121  1  0.63798026  0.36276068  0.58552647  1
  S  S122  1  0.63990566  0.36072970  0.91507381  1
  S  S123  1  0.64136058  0.85132064  0.24843520  1
  S  S124  1  0.64286560  0.85740325  0.58368367  1
  S  S125  1  0.63992387  0.85719696  0.91506488  1
  S  S126  1  0.06740202  0.17315056  0.04352116  1
  S  S127  1  0.06764697  0.16497769  0.37083436  1
  S  S128  1  0.06278020  0.16359466  0.70823063  1
  S  S129  1  0.06689148  0.67722590  0.03986206  1
  S  S130  1  0.07174432  0.67538031  0.37678936  1
  S  S131  1  0.06363585  0.66010994  0.70505120  1
  S  S132  1  0.56990759  0.16817113  0.04067744  1
  S  S133  1  0.55899494  0.17148007  0.37836124  1
  S  S134  1  0.56403791  0.17386856  0.71208110  1
  S  S135  1  0.57026405  0.66602171  0.04216481  1
  S  S136  1  0.56930263  0.66929745  0.37798741  1
  S  S137  1  0.57059951  0.66937416  0.71118806  1
  S  S138  1  0.32066926  0.43477182  0.11302389  1
  S  S139  1  0.33194605  0.43937026  0.46023826  1
  S  S140  1  0.32605619  0.43440482  0.78997462  1
  S  S141  1  0.35247601  0.93616225  0.13163065  1
  S  S142  1  0.33781472  0.93808042  0.45758095  1
  S  S143  1  0.32865081  0.92848620  0.79756518  1
  S  S144  1  0.82688348  0.42309158  0.12297348  1
  S  S145  1  0.82981621  0.43018188  0.45677499  1
  S  S146  1  0.83191736  0.42866554  0.79244608  1
  S  S147  1  0.82338429  0.93222487  0.12391120  1
  S  S148  1  0.83015981  0.93047447  0.45818154  1
  S  S149  1  0.82223753  0.93429851  0.78739792  1
  S  S150  1  0.42933063  0.32922403  0.28925213  1
  S  S151  1  0.42921595  0.33016140  0.62091178  1
  S  S152  1  0.43754613  0.33788888  0.95563643  1
  S  S153  1  0.43641150  0.82845478  0.29232617  1
  S  S154  1  0.44103668  0.83281806  0.62231365  1
  S  S155  1  0.43723032  0.82855716  0.95639940  1
  S  S156  1  0.92898346  0.32810073  0.28981460  1
  S  S157  1  0.93203406  0.33552837  0.62512103  1
  S  S158  1  0.93100103  0.32528064  0.95921448  1
  S  S159  1  0.92851393  0.82962082  0.28972167  1
  S  S160  1  0.93338330  0.83079219  0.62397685  1
  S  S161  1  0.93014089  0.82812645  0.95774058  1
  S  S162  1  0.18390618  0.06571472  0.21449405  1
  S  S163  1  0.16615422  0.06099963  0.54291094  1
  S  S164  1  0.17687768  0.06801145  0.87419920  1
  S  S165  1  0.17022679  0.57421733  0.20861543  1
  S  S166  1  0.17030092  0.57123219  0.53825291  1
  S  S167  1  0.17021519  0.57073237  0.87531815  1
  S  S168  1  0.66545790  0.06588438  0.20554752  1
  S  S169  1  0.66206925  0.06288238  0.54353441  1
  S  S170  1  0.66254459  0.06536278  0.87286643  1
  S  S171  1  0.67310611  0.56469017  0.21063437  1
  S  S172  1  0.67150524  0.56761892  0.54578466  1
  S  S173  1  0.67218175  0.56516538  0.87982476  1
  O  O174  1  0.37763442  0.21592060  0.06539886  1
  O  O175  1  0.36445712  0.22045403  0.41437663  1
  O  O176  1  0.36591700  0.22669348  0.75014844  1
  O  O177  1  0.37540383  0.71978898  0.06955660  1
  O  O178  1  0.36996300  0.73130505  0.41922561  1
  O  O179  1  0.37120349  0.71682025  0.73949599  1
  O  O180  1  0.86765103  0.22058612  0.07844269  1
  O  O181  1  0.87130401  0.21620104  0.40029812  1
  O  O182  1  0.86686014  0.22229570  0.74342363  1
  O  O183  1  0.86631285  0.72024377  0.07644925  1
  O  O184  1  0.86800865  0.71711828  0.40698362  1
  O  O185  1  0.86173673  0.71582433  0.74529836  1
  O  O186  1  0.28731828  0.13809757  0.09302856  1
  O  O187  1  0.28374233  0.12816333  0.43300654  1
  O  O188  1  0.28007571  0.13156112  0.75861880  1
  O  O189  1  0.28033754  0.63833025  0.08405070  1
  O  O190  1  0.28161019  0.63692455  0.42557102  1
  O  O191  1  0.28329417  0.63134111  0.76016736  1
  O  O192  1  0.77111289  0.13395140  0.08403680  1
  O  O193  1  0.77750048  0.13352017  0.41686502  1
  O  O194  1  0.77651803  0.13485136  0.75718338  1
  O  O195  1  0.78250793  0.62859547  0.09314954  1
  O  O196  1  0.78062366  0.62970329  0.42403287  1
  O  O197  1  0.78194913  0.62407663  0.76601977  1
  O  O198  1  0.12588958  0.28811541  0.26920630  1
  O  O199  1  0.13282753  0.29048538  0.59006178  1
  O  O200  1  0.13185818  0.28250712  0.92523586  1
  O  O201  1  0.13098584  0.78029432  0.25485018  1
  O  O202  1  0.12247202  0.78141130  0.59263169  1
  O  O203  1  0.13852101  0.77293314  0.91460569  1
  O  O204  1  0.63507487  0.28086468  0.26381850  1
  O  O205  1  0.62836425  0.28492615  0.59620714  1
  O  O206  1  0.63114416  0.28129435  0.92213986  1
  O  O207  1  0.63300182  0.77047692  0.25372356  1
  O  O208  1  0.63604092  0.77838520  0.59293633  1
  O  O209  1  0.63144082  0.77878102  0.92465806  1
  O  O210  1  0.20897116  0.36899886  0.23709070  1
  O  O211  1  0.21617134  0.37867753  0.56735230  1
  O  O212  1  0.21651146  0.37142381  0.90630795  1
  O  O213  1  0.22052094  0.86897263  0.24119382  1
  O  O214  1  0.21127621  0.86402027  0.56875684  1
  O  O215  1  0.23482089  0.86963112  0.92459038  1
  O  O216  1  0.72513113  0.36779540  0.24936667  1
  O  O217  1  0.71799234  0.37135518  0.58089458  1
  O  O218  1  0.71896225  0.36967673  0.90687838  1
  O  O219  1  0.72212008  0.86210454  0.24413120  1
  O  O220  1  0.72366996  0.86796637  0.57952192  1
  O  O221  1  0.71986776  0.86662238  0.90946347  1
  O  O222  1  0.42515714  0.13276301  0.14761160  1
  O  O223  1  0.42169459  0.13501710  0.49121213  1
  O  O224  1  0.41711034  0.13527696  0.82187242  1
  O  O225  1  0.41705422  0.63624017  0.15048016  1
  O  O226  1  0.41901974  0.63773643  0.48834452  1
  O  O227  1  0.42068670  0.63390397  0.81995482  1
  O  O228  1  0.90640401  0.12844294  0.15093058  1
  O  O229  1  0.91620756  0.13202566  0.48041100  1
  O  O230  1  0.91431443  0.13164382  0.81575400  1
  O  O231  1  0.92109424  0.63477794  0.15200722  1
  O  O232  1  0.91868046  0.63073091  0.48374069  1
  O  O233  1  0.92103148  0.62804794  0.81759017  1
  O  O234  1  0.36962158  0.07690143  0.01404137  1
  O  O235  1  0.37310761  0.08312930  0.35600478  1
  O  O236  1  0.37230632  0.09007115  0.68624406  1
  O  O237  1  0.37037308  0.58154159  0.01368007  1
  O  O238  1  0.37209925  0.59484242  0.35213535  1
  O  O239  1  0.36946333  0.57892568  0.68357353  1
  O  O240  1  0.86099347  0.08292603  0.01345151  1
  O  O241  1  0.86665957  0.07771143  0.34530421  1
  O  O242  1  0.86050535  0.08463406  0.67850477  1
  O  O243  1  0.86795235  0.58209587  0.01521805  1
  O  O244  1  0.86749752  0.57931422  0.34730715  1
  O  O245  1  0.86405789  0.57838420  0.68255323  1
  O  O246  1  0.07004007  0.36639699  0.18501912  1
  O  O247  1  0.07755791  0.37242319  0.50974211  1
  O  O248  1  0.07821557  0.36461175  0.84453246  1
  O  O249  1  0.08169276  0.87068347  0.18315780  1
  O  O250  1  0.07334659  0.86925518  0.51626733  1
  O  O251  1  0.10257401  0.86374520  0.84280303  1
  O  O252  1  0.58829405  0.36607061  0.18552361  1
  O  O253  1  0.57997137  0.37083670  0.51756291  1
  O  O254  1  0.58068031  0.37083261  0.84803802  1
  O  O255  1  0.58559580  0.85728926  0.17698301  1
  O  O256  1  0.58689438  0.86206825  0.51280715  1
  O  O257  1  0.58162182  0.86440957  0.84620098  1
  O  O258  1  0.12952331  0.42720234  0.31932711  1
  O  O259  1  0.12927654  0.42870504  0.64472968  1
  O  O260  1  0.12518047  0.42151626  0.97932368  1
  O  O261  1  0.13532136  0.91622752  0.31988524  1
  O  O262  1  0.13167184  0.91950328  0.65092491  1
  O  O263  1  0.12941960  0.90940663  0.97900348  1
  O  O264  1  0.63596108  0.41913311  0.32233258  1
  O  O265  1  0.62796020  0.42328962  0.65301345  1
  O  O266  1  0.63261987  0.41941897  0.98388160  1
  O  O267  1  0.62847631  0.90894306  0.31273003  1
  O  O268  1  0.63003186  0.91646190  0.64891494  1
  O  O269  1  0.62913195  0.91716204  0.98145848  1
  O  O270  1  0.02203414  0.20626132  0.09772090  1
  O  O271  1  0.03506247  0.19776426  0.43377068  1
  O  O272  1  0.03080274  0.19552134  0.77514659  1
  O  O273  1  0.02851883  0.70334977  0.10018365  1
  O  O274  1  0.03086623  0.70032908  0.43559480  1
  O  O275  1  0.02688054  0.68129589  0.76438304  1
  O  O276  1  0.54552733  0.19177142  0.10756790  1
  O  O277  1  0.52307882  0.20857347  0.43998393  1
  O  O278  1  0.52806839  0.20408623  0.77336213  1
  O  O279  1  0.53465834  0.69417149  0.10343643  1
  O  O280  1  0.53109752  0.70098829  0.43772775  1
  O  O281  1  0.53401675  0.69945265  0.77218624  1
  O  O282  1  0.28573511  0.47460316  0.05142471  1
  O  O283  1  0.30729851  0.47707539  0.40140969  1
  O  O284  1  0.29525125  0.46903438  0.72732319  1
  O  O285  1  0.32917654  0.97075451  0.07020743  1
  O  O286  1  0.30379563  0.96564340  0.39062896  1
  O  O287  1  0.30376313  0.96670249  0.73902239  1
  O  O288  1  0.80108616  0.46426730  0.06423216  1
  O  O289  1  0.80057502  0.47134574  0.39890046  1
  O  O290  1  0.80189191  0.46557574  0.73197542  1
  O  O291  1  0.79480934  0.96849033  0.06208291  1
  O  O292  1  0.80457968  0.96285833  0.39612060  1
  O  O293  1  0.79027311  0.97401899  0.72812696  1
  O  O294  1  0.46999451  0.29546113  0.23353589  1
  O  O295  1  0.46889447  0.30134264  0.56197156  1
  O  O296  1  0.47337935  0.30326168  0.89290798  1
  O  O297  1  0.47172631  0.79771074  0.23005538  1
  O  O298  1  0.48096577  0.79743117  0.56429131  1
  O  O299  1  0.47400178  0.79861451  0.89507801  1
  O  O300  1  0.95843449  0.30287597  0.22498633  1
  O  O301  1  0.96451086  0.31669212  0.56287130  1
  O  O302  1  0.96998134  0.29856299  0.90039872  1
  O  O303  1  0.96705011  0.80303852  0.22944463  1
  O  O304  1  0.96246186  0.79443798  0.55760379  1
  O  O305  1  0.97043159  0.80067286  0.90141475  1
  O  O306  1  0.21452521  0.03275267  0.28162329  1
  O  O307  1  0.20396552  0.03029727  0.60553582  1
  O  O308  1  0.20461891  0.02977457  0.93349223  1
  O  O309  1  0.19578717  0.53789259  0.26811464  1
  O  O310  1  0.20310648  0.53988885  0.60269557  1
  O  O311  1  0.19860857  0.53261949  0.93480685  1
  O  O312  1  0.69134110  0.02412904  0.26123361  1
  O  O313  1  0.69653766  0.02968553  0.60776965  1
  O  O314  1  0.69443259  0.02669226  0.93213107  1
  O  O315  1  0.70305064  0.52906232  0.27229796  1
  O  O316  1  0.70188443  0.53138410  0.60718056  1
  O  O317  1  0.70494686  0.52969497  0.94138316  1
  O  O318  1  0.08703999  0.09728627  0.04682273  1
  O  O319  1  0.08854944  0.08465779  0.37284572  1
  O  O320  1  0.08927084  0.08548695  0.70801475  1
  O  O321  1  0.08874222  0.59638500  0.03429410  1
  O  O322  1  0.09578882  0.59652985  0.37372798  1
  O  O323  1  0.07793935  0.57470150  0.69036108  1
  O  O324  1  0.58318549  0.08274364  0.02336191  1
  O  O325  1  0.56834339  0.09027640  0.37704594  1
  O  O326  1  0.58180383  0.09203634  0.70715875  1
  O  O327  1  0.59055819  0.58485356  0.03597797  1
  O  O328  1  0.58726716  0.58880332  0.37689670  1
  O  O329  1  0.58957008  0.58824950  0.70705243  1
  O  O330  1  0.38921410  0.40186158  0.09681854  1
  O  O331  1  0.41562153  0.42195131  0.46904146  1
  O  O332  1  0.40796667  0.41716988  0.79475265  1
  O  O333  1  0.43814387  0.92228903  0.14356240  1
  O  O334  1  0.42041557  0.91864717  0.45923631  1
  O  O335  1  0.41245541  0.91072008  0.80202796  1
  O  O336  1  0.90297243  0.39459314  0.12219961  1
  O  O337  1  0.90848118  0.40699674  0.45696330  1
  O  O338  1  0.91402632  0.41140022  0.79865060  1
  O  O339  1  0.90562018  0.91619474  0.13177665  1
  O  O340  1  0.91366146  0.91392461  0.47137102  1
  O  O341  1  0.89829134  0.91117893  0.78602287  1
  O  O342  1  0.40831265  0.40575654  0.28570416  1
  O  O343  1  0.41313976  0.41205592  0.62505160  1
  O  O344  1  0.41703877  0.41730075  0.95106297  1
  O  O345  1  0.41848358  0.91022188  0.29719916  1
  O  O346  1  0.43199737  0.91424878  0.62497955  1
  O  O347  1  0.42402113  0.91183460  0.96458710  1
  O  O348  1  0.91435801  0.41248290  0.30378366  1
  O  O349  1  0.91571167  0.42067869  0.64194642  1
  O  O350  1  0.91336171  0.40753336  0.96398240  1
  O  O351  1  0.90348194  0.90794156  0.29324197  1
  O  O352  1  0.90884958  0.90899746  0.62061621  1
  O  O353  1  0.90436437  0.90583661  0.95791834  1
  O  O354  1  0.10552467  0.08565518  0.21098901  1
  O  O355  1  0.08193841  0.06239268  0.53333501  1
  O  O356  1  0.09397825  0.08209956  0.86761497  1
  O  O357  1  0.08896140  0.59450559  0.20022182  1
  O  O358  1  0.08614228  0.58349518  0.53166720  1
  O  O359  1  0.08966621  0.59203652  0.87214382  1
  O  O360  1  0.58469825  0.08732495  0.20385672  1
  O  O361  1  0.58199181  0.08582228  0.54687358  1
  O  O362  1  0.58086849  0.08202819  0.87003181  1
  O  O363  1  0.59178310  0.58289742  0.20601026  1
  O  O364  1  0.58967168  0.58454062  0.54131412  1
  O  O365  1  0.59110697  0.58233714  0.87741838  1
  O  O366  1  0.13548358  0.23129293  0.06144816  1
  O  O367  1  0.14037233  0.21573643  0.38610423  1
  O  O368  1  0.12956092  0.21980212  0.72185147  1
  O  O369  1  0.13426535  0.73300580  0.05554664  1
  O  O370  1  0.13992861  0.73240764  0.39539961  1
  O  O371  1  0.13709858  0.70905690  0.72398873  1
  O  O372  1  0.64175758  0.21754471  0.05213188  1
  O  O373  1  0.63198713  0.21991120  0.39468291  1
  O  O374  1  0.63501401  0.22584323  0.72763939  1
  O  O375  1  0.63998465  0.71964126  0.05655700  1
  O  O376  1  0.64080015  0.72130001  0.39404947  1
  O  O377  1  0.64088452  0.72203738  0.72619261  1
  O  O378  1  0.26059496  0.37190490  0.10157714  1
  O  O379  1  0.28090202  0.36743806  0.44309676  1
  O  O380  1  0.27447395  0.36476690  0.77668661  1
  O  O381  1  0.30379404  0.86366780  0.11516393  1
  O  O382  1  0.28843379  0.86727055  0.44733382  1
  O  O383  1  0.27843691  0.85725692  0.78234793  1
  O  O384  1  0.76703721  0.35767782  0.10598753  1
  O  O385  1  0.77319401  0.36374334  0.44213500  1
  O  O386  1  0.77884144  0.35757620  0.77490230  1
  O  O387  1  0.77187230  0.85885941  0.10391060  1
  O  O388  1  0.77907524  0.85712165  0.44118230  1
  O  O389  1  0.76564249  0.86518140  0.77064850  1
  O  O390  1  0.36115425  0.27465238  0.27837716  1
  O  O391  1  0.35783823  0.27891368  0.60353114  1
  O  O392  1  0.36574802  0.28664510  0.93911034  1
  O  O393  1  0.36752043  0.77644103  0.27988504  1
  O  O394  1  0.36752278  0.78449684  0.60443274  1
  O  O395  1  0.36491976  0.77794583  0.93831988  1
  O  O396  1  0.85698986  0.27825886  0.27493013  1
  O  O397  1  0.86103701  0.28399739  0.60915937  1
  O  O398  1  0.85814411  0.27359513  0.93987996  1
  O  O399  1  0.86092886  0.77072622  0.27139652  1
  O  O400  1  0.86367750  0.77731093  0.61233007  1
  O  O401  1  0.86050955  0.77137764  0.94052446  1
  O  O402  1  0.23777850  0.13763061  0.23368536  1
  O  O403  1  0.20746779  0.13777564  0.55700260  1
  O  O404  1  0.22627397  0.14231697  0.89405360  1
  O  O405  1  0.22460567  0.64367254  0.22442749  1
  O  O406  1  0.21750120  0.64355635  0.55069912  1
  O  O407  1  0.22512399  0.64021835  0.89202947  1
  O  O408  1  0.71967014  0.13614729  0.22326248  1
  O  O409  1  0.71368942  0.13251900  0.55597665  1
  O  O410  1  0.71376175  0.13707273  0.88908584  1
  O  O411  1  0.72606347  0.63451675  0.22483505  1
  O  O412  1  0.72326529  0.63898149  0.56140084  1
  O  O413  1  0.72283330  0.63666361  0.89405517  1
  O  O414  1  0.49776905  0.34589608  0.02688309  1
  O  O415  1  0.48812688  0.33915744  0.36728185  1
  O  O416  1  0.48737931  0.33233015  0.69456675  1
  O  O417  1  0.49565348  0.82619819  0.02792290  1
  O  O418  1  0.49890814  0.83276743  0.36433697  1
  O  O419  1  0.49518325  0.83255478  0.69749531  1
  O  O420  1  0.98642354  0.32666704  0.03334160  1
  O  O421  1  0.99100264  0.32494920  0.35863610  1
  O  O422  1  0.99341232  0.33199763  0.69498261  1
  O  O423  1  0.98581190  0.83604017  0.03432899  1
  O  O424  1  0.98775951  0.83332098  0.36256644  1
  O  O425  1  0.99610850  0.83993160  0.69393701  1
  O  O426  1  0.18900801  0.00472090  0.14851499  1
  O  O427  1  0.17446868  0.00513926  0.47131465  1
  O  O428  1  0.17768457  0.01112188  0.80172189  1
  O  O429  1  0.16773535  0.51485332  0.13533084  1
  O  O430  1  0.16835604  0.50957163  0.46673111  1
  O  O431  1  0.16400801  0.51194879  0.80090995  1
  O  O432  1  0.65746477  0.00952420  0.12879972  1
  O  O433  1  0.65031356  0.00095718  0.47244738  1
  O  O434  1  0.65963162  0.00746807  0.79928509  1
  O  O435  1  0.66984336  0.50404131  0.13814797  1
  O  O436  1  0.67035476  0.50819094  0.47390886  1
  O  O437  1  0.66964645  0.50569194  0.80734452  1
  O  O438  1  0.00797788  0.15580077  0.29831301  1
  O  O439  1  -0.00233188  0.15483980  0.63985614  1
  O  O440  1  0.01167960  0.16808000  0.96600592  1
  O  O441  1  0.01254623  0.67193679  0.30390874  1
  O  O442  1  0.00603425  0.66453609  0.63359532  1
  O  O443  1  0.00588125  0.67154533  0.96686710  1
  O  O444  1  0.50264099  0.17075957  0.30444974  1
  O  O445  1  0.50433026  0.17069887  0.63964513  1
  O  O446  1  0.50691273  0.17398392  0.97315148  1
  O  O447  1  0.51124567  0.66553613  0.30432688  1
  O  O448  1  0.51030415  0.66515748  0.63834009  1
  O  O449  1  0.50965111  0.66255675  0.96948700  1
  O  O450  1  0.33908581  0.49637225  0.18524660  1
  O  O451  1  0.33498003  0.49772787  0.53450267  1
  O  O452  1  0.32974917  0.49629706  0.86195023  1
  O  O453  1  0.35138727  0.99516446  0.20326899  1
  O  O454  1  0.34655008  1.00176874  0.52713287  1
  O  O455  1  0.33584817  0.98684670  0.87304367  1
  O  O456  1  0.83473378  0.48341314  0.19649219  1
  O  O457  1  0.83870702  0.49048676  0.53186274  1
  O  O458  1  0.83424626  0.48756279  0.86572270  1
  O  O459  1  0.82059424  0.98988163  0.19465077  1
  O  O460  1  0.82525395  0.99010268  0.52807737  1
  O  O461  1  0.82530740  0.99276090  0.86108347  1
