# generated using pymatgen
data_Na31Fe20(SO4)36
_symmetry_space_group_name_H-M   'P 1'
_cell_length_a   18.08144578
_cell_length_b   18.08190701
_cell_length_c   19.70616175
_cell_angle_alpha   107.57567081
_cell_angle_beta   107.58619378
_cell_angle_gamma   90.76714497
_symmetry_Int_Tables_number   1
_chemical_formula_structural   Na31Fe20(SO4)36
_chemical_formula_sum   'Na62 Fe40 S72 O288'
_cell_volume   5816.11780387
_cell_formula_units_Z   2
loop_
 _symmetry_equiv_pos_site_id
 _symmetry_equiv_pos_as_xyz
  1  'x, y, z'
loop_
 _atom_site_type_symbol
 _atom_site_label
 _atom_site_symmetry_multiplicity
 _atom_site_fract_x
 _atom_site_fract_y
 _atom_site_fract_z
 _atom_site_occupancy
  Na  Na0  1  0.13008563  0.36764736  0.08098433  1
  Na  Na1  1  0.13197702  0.36962031  0.42050280  1
  Na  Na2  1  0.14195703  0.36770315  0.74855456  1
  Na  Na3  1  0.13921659  0.86953181  0.08962900  1
  Na  Na4  1  0.13334059  0.86472906  0.41813236  1
  Na  Na5  1  0.11723821  0.83021906  0.72980652  1
  Na  Na6  1  0.65029350  0.37011387  0.09439959  1
  Na  Na7  1  0.63777175  0.36822671  0.41737138  1
  Na  Na8  1  0.64248753  0.37086482  0.76339956  1
  Na  Na9  1  0.63813846  0.86496245  0.08062661  1
  Na  Na10  1  0.62773464  0.86698595  0.41562685  1
  Na  Na11  1  0.62571358  0.85638394  0.73624391  1
  Na  Na12  1  0.35910388  0.13520845  0.24708053  1
  Na  Na13  1  0.36593806  0.13752656  0.58642334  1
  Na  Na14  1  0.36648845  0.12436693  0.91266741  1
  Na  Na15  1  0.36238498  0.62754202  0.24257595  1
  Na  Na16  1  0.36720639  0.64835246  0.59015882  1
  Na  Na17  1  0.35468178  0.62959535  0.89792919  1
  Na  Na18  1  0.86897006  0.14200434  0.25574181  1
  Na  Na19  1  0.86765575  0.13440871  0.58141754  1
  Na  Na20  1  0.86842962  0.12794373  0.91540002  1
  Na  Na21  1  0.85834795  0.62283432  0.23271252  1
  Na  Na22  1  0.87475051  0.64427218  0.59434781  1
  Na  Na23  1  0.85413432  0.63001783  0.91271809  1
  Na  Na24  1  1.00120297  0.50532535  0.75369739  1
  Na  Na25  1  0.49803045  0.00242493  0.07974912  1
  Na  Na26  1  0.47743235  0.50304467  0.75851035  1
  Na  Na27  1  0.98916342  0.01618379  0.42328418  1
  Na  Na28  1  0.98757232  0.53525347  0.42104036  1
  Na  Na29  1  0.49142816  0.54826237  0.42509762  1
  Na  Na30  1  0.49096360  -0.00296506  0.77234117  1
  Na  Na31  1  0.92886804  0.50124797  0.04882437  1
  Na  Na32  1  0.99354152  0.01010550  0.06777964  1
  Na  Na33  1  0.57589833  0.50026618  0.96141757  1
  Na  Na34  1  0.00633774  0.97577810  0.60444504  1
  Na  Na35  1  0.49102903  0.51632577  0.58542102  1
  Na  Na36  1  0.50656287  0.98637057  0.57504915  1
  Na  Na37  1  0.52096871  0.49484258  0.23358980  1
  Na  Na38  1  0.01596148  0.98834484  0.24669316  1
  Na  Na39  1  0.04002247  0.48562688  0.58160238  1
  Na  Na40  1  0.45976164  1.01380772  0.30848488  1
  Na  Na41  1  0.01464260  0.95117967  0.84155630  1
  Na  Na42  1  0.25936249  0.75260372  -0.01691768  1
  Na  Na43  1  0.75889153  0.25807914  0.66166007  1
  Na  Na44  1  0.24249531  0.24336794  0.34272281  1
  Na  Na45  1  0.75030172  0.24999287  0.00462241  1
  Na  Na46  1  0.75007500  0.74832916  0.33003113  1
  Na  Na47  1  0.22804738  0.71836473  0.68122763  1
  Na  Na48  1  0.25713978  0.25135402  -0.00566860  1
  Na  Na49  1  0.25275697  0.75671470  0.32851173  1
  Na  Na50  1  0.74710492  0.74970073  0.66857857  1
  Na  Na51  1  0.76959874  0.26745201  0.32224293  1
  Na  Na52  1  0.24092955  0.24155640  0.51619995  1
  Na  Na53  1  0.26207324  0.26062757  0.81833014  1
  Na  Na54  1  0.76915764  0.26230312  0.48935107  1
  Na  Na55  1  0.74216902  0.74128186  0.84329542  1
  Na  Na56  1  0.76167473  0.26147781  0.83252210  1
  Na  Na57  1  0.75391103  0.75628697  0.15371219  1
  Na  Na58  1  0.74535717  0.75218267  0.50355320  1
  Na  Na59  1  0.24864478  0.24780255  0.16602346  1
  Na  Na60  1  0.23669654  0.74266502  0.50649053  1
  Na  Na61  1  0.26372594  0.76668361  0.16223845  1
  Fe  Fe62  1  0.46761943  0.30834078  0.79029980  1
  Fe  Fe63  1  0.96737116  0.80162219  0.45812508  1
  Fe  Fe64  1  0.46683958  0.30533861  0.11976878  1
  Fe  Fe65  1  0.96576950  0.31419919  0.79329294  1
  Fe  Fe66  1  0.96129000  0.80932196  0.11435507  1
  Fe  Fe67  1  0.46203048  0.81245302  0.12172506  1
  Fe  Fe68  1  0.96422530  0.31074975  0.12174573  1
  Fe  Fe69  1  0.46489796  0.79948268  0.45273175  1
  Fe  Fe70  1  0.46747317  0.80534311  0.78621358  1
  Fe  Fe71  1  0.46497667  0.31124597  0.45489653  1
  Fe  Fe72  1  0.18265521  0.53686001  0.04191121  1
  Fe  Fe73  1  0.20172239  0.02919479  0.37900152  1
  Fe  Fe74  1  0.69181687  0.03342007  0.38147524  1
  Fe  Fe75  1  0.18131486  0.53647803  0.37164689  1
  Fe  Fe76  1  0.19393438  0.03034026  0.04497997  1
  Fe  Fe77  1  0.69079291  0.03768715  0.04709552  1
  Fe  Fe78  1  0.69257060  0.53190890  0.71540366  1
  Fe  Fe79  1  0.68995962  0.03918764  0.71610974  1
  Fe  Fe80  1  0.19472122  0.03515291  0.71533508  1
  Fe  Fe81  1  0.69419648  0.53746705  0.38339831  1
  Fe  Fe82  1  0.53385562  0.19242613  0.88567077  1
  Fe  Fe83  1  0.53452568  0.68650037  0.20591033  1
  Fe  Fe84  1  0.03204731  0.19613428  0.21520232  1
  Fe  Fe85  1  0.03122068  0.69850821  0.87638105  1
  Fe  Fe86  1  0.03798245  0.18555824  0.87665272  1
  Fe  Fe87  1  0.03196462  0.69175109  0.20846723  1
  Fe  Fe88  1  0.53532177  0.19333117  0.54728562  1
  Fe  Fe89  1  0.03588968  0.20054291  0.54663901  1
  Fe  Fe90  1  0.53728944  0.19363857  0.21621093  1
  Fe  Fe91  1  0.53881330  0.69360444  0.88373121  1
  Fe  Fe92  1  0.30305537  0.46846209  0.62097520  1
  Fe  Fe93  1  0.80639505  0.96196769  0.95005174  1
  Fe  Fe94  1  0.30773699  0.95788872  0.95016660  1
  Fe  Fe95  1  0.80973430  0.46640874  0.61997469  1
  Fe  Fe96  1  0.80463650  0.96999670  0.62232370  1
  Fe  Fe97  1  0.80997267  0.46464375  0.28638958  1
  Fe  Fe98  1  0.30544421  0.46532988  0.28566597  1
  Fe  Fe99  1  0.30628478  0.96550996  0.61911869  1
  Fe  Fe100  1  0.80601623  0.96529259  0.28370541  1
  Fe  Fe101  1  0.30646857  0.46923714  0.95252519  1
  S  S102  1  0.36180145  0.13779807  0.08262325  1
  S  S103  1  0.36219095  0.14505040  0.41837477  1
  S  S104  1  0.36286846  0.13820614  0.75207947  1
  S  S105  1  0.35434671  0.64052327  0.08231320  1
  S  S106  1  0.35174350  0.64002572  0.41486458  1
  S  S107  1  0.36598087  0.63875619  0.74661229  1
  S  S108  1  0.86049169  0.13778988  0.08125495  1
  S  S109  1  0.85892826  0.13767004  0.41755031  1
  S  S110  1  0.85961642  0.14256350  0.75121393  1
  S  S111  1  0.85693031  0.64887310  0.08435453  1
  S  S112  1  0.85483814  0.64359870  0.41630285  1
  S  S113  1  0.85860835  0.64007770  0.75382459  1
  S  S114  1  0.14272446  0.35638665  0.24933462  1
  S  S115  1  0.14570303  0.35829383  0.58337397  1
  S  S116  1  0.14430930  0.35615502  0.91550991  1
  S  S117  1  0.13705575  0.85875212  0.24833441  1
  S  S118  1  0.14113177  0.86072051  0.58568045  1
  S  S119  1  0.14731926  0.85478432  0.91915816  1
  S  S120  1  0.64038819  0.36144020  0.25350212  1
  S  S121  1  0.64121887  0.35750316  0.57999257  1
  S  S122  1  0.64389410  0.34866741  0.91790137  1
  S  S123  1  0.63962372  0.86095300  0.24935957  1
  S  S124  1  0.63658474  0.86467761  0.58147752  1
  S  S125  1  0.63911841  0.86258230  0.91765236  1
  S  S126  1  0.06918105  0.16703238  0.04132748  1
  S  S127  1  0.06987861  0.16029101  0.37429026  1
  S  S128  1  0.06914211  0.17029247  0.70889067  1
  S  S129  1  0.07068143  0.67974247  0.04348454  1
  S  S130  1  0.06216855  0.67214957  0.37227929  1
  S  S131  1  0.05793522  0.65901797  0.71018173  1
  S  S132  1  0.56717832  0.16995243  0.04486361  1
  S  S133  1  0.56974728  0.17262333  0.37834276  1
  S  S134  1  0.56621716  0.17083714  0.70932739  1
  S  S135  1  0.56305795  0.67872275  0.04824645  1
  S  S136  1  0.56329811  0.66819713  0.37113478  1
  S  S137  1  0.56802934  0.66931093  0.70842395  1
  S  S138  1  0.32997361  0.42968431  0.12324887  1
  S  S139  1  0.33128666  0.43493788  0.45678131  1
  S  S140  1  0.33824478  0.43150080  0.79416463  1
  S  S141  1  0.33539282  0.93918100  0.12583631  1
  S  S142  1  0.32995737  0.93128249  0.45791987  1
  S  S143  1  0.32486993  0.92595440  0.78661864  1
  S  S144  1  0.83605968  0.43103807  0.12625802  1
  S  S145  1  0.83790481  0.44405654  0.46069050  1
  S  S146  1  0.82871277  0.43324789  0.78891479  1
  S  S147  1  0.83131629  0.93839253  0.12674002  1
  S  S148  1  0.82991205  0.93291777  0.45816805  1
  S  S149  1  0.81647728  0.93240997  0.78607950  1
  S  S150  1  0.43266234  0.33135312  0.29133205  1
  S  S151  1  0.43690343  0.33305871  0.62591458  1
  S  S152  1  0.42813431  0.32507482  0.95720934  1
  S  S153  1  0.43097040  0.81885190  0.28691575  1
  S  S154  1  0.43135515  0.83787379  0.62542605  1
  S  S155  1  0.43588112  0.82892815  0.95918212  1
  S  S156  1  0.93870217  0.33015042  0.29376227  1
  S  S157  1  0.93459983  0.32873910  0.62673916  1
  S  S158  1  0.93671486  0.32027721  0.95287913  1
  S  S159  1  0.93167864  0.83505221  0.29490327  1
  S  S160  1  0.92821857  0.83925438  0.62795124  1
  S  S161  1  0.93589196  0.83250673  0.95625833  1
  S  S162  1  0.16652046  0.06883884  0.20704267  1
  S  S163  1  0.17278030  0.06813378  0.54183039  1
  S  S164  1  0.17242472  0.06259701  0.87622981  1
  S  S165  1  0.16853216  0.56775467  0.20695956  1
  S  S166  1  0.17174844  0.56491640  0.53786630  1
  S  S167  1  0.16459532  0.56672561  0.87639123  1
  S  S168  1  0.67102182  0.06942167  0.21128363  1
  S  S169  1  0.66920179  0.07044251  0.54383557  1
  S  S170  1  0.66899601  0.06650112  0.87643967  1
  S  S171  1  0.67160373  0.56458735  0.21009112  1
  S  S172  1  0.66678303  0.56279972  0.54394696  1
  S  S173  1  0.66165101  0.56580213  0.87125514  1
  O  O174  1  0.37011910  0.21671725  0.07417649  1
  O  O175  1  0.37018938  0.22758915  0.41601652  1
  O  O176  1  0.37297653  0.21825768  0.74847613  1
  O  O177  1  0.36074054  0.72291559  0.08082924  1
  O  O178  1  0.36349952  0.71993384  0.40937284  1
  O  O179  1  0.37865620  0.71583032  0.73400174  1
  O  O180  1  0.87160420  0.21426710  0.06986039  1
  O  O181  1  0.86192906  0.21401163  0.40729229  1
  O  O182  1  0.87011601  0.22367010  0.74782157  1
  O  O183  1  0.86784517  0.73286085  0.08618837  1
  O  O184  1  0.86566960  0.72312834  0.40889858  1
  O  O185  1  0.85944365  0.71351796  0.73809321  1
  O  O186  1  0.28282378  0.12933356  0.09113726  1
  O  O187  1  0.28171179  0.13364846  0.42311175  1
  O  O188  1  0.28555437  0.12883094  0.76368224  1
  O  O189  1  0.27798335  0.62837184  0.09481190  1
  O  O190  1  0.26938463  0.63107202  0.41493014  1
  O  O191  1  0.28908138  0.63124011  0.75362947  1
  O  O192  1  0.78064609  0.12866304  0.08585050  1
  O  O193  1  0.78222196  0.12340293  0.42995848  1
  O  O194  1  0.78075325  0.13456992  0.76042316  1
  O  O195  1  0.78488940  0.63768847  0.10045603  1
  O  O196  1  0.77247200  0.63795407  0.41978500  1
  O  O197  1  0.78160019  0.62393695  0.76473579  1
  O  O198  1  0.13374176  0.27735568  0.25823553  1
  O  O199  1  0.13639721  0.27436136  0.58185772  1
  O  O200  1  0.13724322  0.27616510  0.92225853  1
  O  O201  1  0.12441177  0.77983280  0.25671984  1
  O  O202  1  0.13632418  0.78567195  0.59828085  1
  O  O203  1  0.12997483  0.77587814  0.92645982  1
  O  O204  1  0.62979581  0.28331427  0.26330018  1
  O  O205  1  0.63295267  0.27833791  0.58829444  1
  O  O206  1  0.63140513  0.26510807  0.91781943  1
  O  O207  1  0.63185524  0.78114377  0.25535092  1
  O  O208  1  0.63296611  0.79038658  0.59559250  1
  O  O209  1  0.62937726  0.78537069  0.92779161  1
  O  O210  1  0.22319802  0.36537197  0.24335922  1
  O  O211  1  0.22738052  0.36769653  0.57820469  1
  O  O212  1  0.22342347  0.36776732  0.90760458  1
  O  O213  1  0.21200267  0.86492818  0.23596794  1
  O  O214  1  0.21831789  0.87383544  0.57407323  1
  O  O215  1  0.23179416  0.85914080  0.92538248  1
  O  O216  1  0.72018725  0.36940993  0.24877721  1
  O  O217  1  0.71955587  0.36599826  0.57002792  1
  O  O218  1  0.71952027  0.35837486  0.90780645  1
  O  O219  1  0.71823905  0.87141862  0.23978769  1
  O  O220  1  0.71363832  0.87822903  0.57005460  1
  O  O221  1  0.71811396  0.86956259  0.90869950  1
  O  O222  1  0.42153207  0.13146769  0.15129420  1
  O  O223  1  0.41915940  0.13732221  0.48790047  1
  O  O224  1  0.42374052  0.12471883  0.81717041  1
  O  O225  1  0.41670486  0.62766635  0.14537078  1
  O  O226  1  0.40651959  0.62925142  0.48210092  1
  O  O227  1  0.42672761  0.63231157  0.81526076  1
  O  O228  1  0.91824972  0.13167350  0.15119644  1
  O  O229  1  0.92151298  0.13116629  0.48504614  1
  O  O230  1  0.91865345  0.12935663  0.81609979  1
  O  O231  1  0.92336055  0.63516977  0.14725351  1
  O  O232  1  0.91002630  0.63346304  0.48300375  1
  O  O233  1  0.91907361  0.64158163  0.82697763  1
  O  O234  1  0.37031443  0.07813831  0.01532914  1
  O  O235  1  0.37222073  0.09133736  0.35065826  1
  O  O236  1  0.36752936  0.08098494  0.68185866  1
  O  O237  1  0.35740464  0.58708501  0.00955315  1
  O  O238  1  0.36313060  0.58231155  0.34626449  1
  O  O239  1  0.37723991  0.57736252  0.68006403  1
  O  O240  1  0.87231620  0.07552337  0.01597517  1
  O  O241  1  0.86784503  0.07616317  0.35045587  1
  O  O242  1  0.86358116  0.08726066  0.67982318  1
  O  O243  1  0.86184395  0.59669610  0.01340773  1
  O  O244  1  0.86237712  0.58515029  0.34705265  1
  O  O245  1  0.87318144  0.57588116  0.69252991  1
  O  O246  1  0.08614993  0.36083410  0.17918531  1
  O  O247  1  0.08934614  0.37071503  0.51754510  1
  O  O248  1  0.08502857  0.36307636  0.84768170  1
  O  O249  1  0.07347547  0.87129611  0.18429558  1
  O  O250  1  0.08046592  0.86590792  0.51636729  1
  O  O251  1  0.09957159  0.86351502  0.84858042  1
  O  O252  1  0.58222568  0.36838945  0.18395016  1
  O  O253  1  0.58179673  0.36464049  0.51155870  1
  O  O254  1  0.58170990  0.36078865  0.85187107  1
  O  O255  1  0.57985401  0.87248707  0.18430892  1
  O  O256  1  0.57578694  0.86742578  0.51110107  1
  O  O257  1  0.58026419  0.87034855  0.84905859  1
  O  O258  1  0.13475141  0.41556329  0.31640170  1
  O  O259  1  0.13864859  0.41154622  0.65300306  1
  O  O260  1  0.13754747  0.41364222  0.98470575  1
  O  O261  1  0.13264735  0.91789094  0.31876053  1
  O  O262  1  0.13109865  0.92426896  0.65084643  1
  O  O263  1  0.13405335  0.91464404  0.98482998  1
  O  O264  1  0.62861133  0.42150179  0.31922612  1
  O  O265  1  0.63285857  0.41603634  0.64753541  1
  O  O266  1  0.63584848  0.40045194  0.98775201  1
  O  O267  1  0.63520754  0.91813096  0.32046679  1
  O  O268  1  0.62406337  0.92880723  0.64499616  1
  O  O269  1  0.63298379  0.92348380  0.98559604  1
  O  O270  1  0.03227077  0.19661030  0.10164902  1
  O  O271  1  0.03168771  0.18080908  0.43232245  1
  O  O272  1  0.02988888  0.19565550  0.76821402  1
  O  O273  1  0.03038465  0.70940161  0.10167136  1
  O  O274  1  0.02532184  0.69967524  0.43156108  1
  O  O275  1  0.02861932  0.69266201  0.77761212  1
  O  O276  1  0.53297871  0.20351346  0.10790231  1
  O  O277  1  0.53133936  0.20175804  0.43781158  1
  O  O278  1  0.52931406  0.19859214  0.76955256  1
  O  O279  1  0.52017437  0.71372918  0.10501301  1
  O  O280  1  0.52467596  0.69426802  0.42935921  1
  O  O281  1  0.54117613  0.70495006  0.77610709  1
  O  O282  1  0.30413252  0.46593534  0.06267247  1
  O  O283  1  0.30263988  0.47096511  0.39563336  1
  O  O284  1  0.32368665  0.46676193  0.73375756  1
  O  O285  1  0.30198229  0.97323046  0.06266044  1
  O  O286  1  0.30213964  0.96981080  0.40007234  1
  O  O287  1  0.29853492  0.96801726  0.72894650  1
  O  O288  1  0.81479684  0.46772207  0.06825632  1
  O  O289  1  0.79739666  0.47680235  0.39771764  1
  O  O290  1  0.79366208  0.46104974  0.72097388  1
  O  O291  1  0.79859328  0.97097853  0.06340982  1
  O  O292  1  0.79903634  0.96517820  0.39414186  1
  O  O293  1  0.78581001  0.97380571  0.72760745  1
  O  O294  1  0.46819665  0.30066451  0.22944004  1
  O  O295  1  0.47664315  0.30341329  0.56698185  1
  O  O296  1  0.46767191  0.29511792  0.89824858  1
  O  O297  1  0.47127641  0.78853387  0.22789110  1
  O  O298  1  0.46584542  0.81595883  0.56457441  1
  O  O299  1  0.46953713  0.79844398  0.89630470  1
  O  O300  1  0.96952836  0.29894882  0.22611483  1
  O  O301  1  0.97147331  0.29944608  0.56807724  1
  O  O302  1  0.97869889  0.28767996  0.89510111  1
  O  O303  1  0.96786693  0.80613783  0.23453129  1
  O  O304  1  0.96133696  0.81809654  0.56476605  1
  O  O305  1  0.97625606  0.80259532  0.89972041  1
  O  O306  1  0.18901065  0.03557543  0.26856270  1
  O  O307  1  0.20166101  0.03386910  0.60490874  1
  O  O308  1  0.20274065  0.02334949  0.93561620  1
  O  O309  1  0.19602994  0.52529030  0.26434591  1
  O  O310  1  0.20522485  0.52823032  0.59676255  1
  O  O311  1  0.19498944  0.53331965  0.94155019  1
  O  O312  1  0.69906592  0.03165660  0.27170927  1
  O  O313  1  0.70212806  0.03746639  0.60691396  1
  O  O314  1  0.70070094  0.02940762  0.93660747  1
  O  O315  1  0.69944732  0.52923235  0.27388817  1
  O  O316  1  0.70647866  0.52953181  0.60614932  1
  O  O317  1  0.68344044  0.53283980  0.93186741  1
  O  O318  1  0.08847057  0.08588229  0.03819285  1
  O  O319  1  0.09033359  0.07758122  0.36386713  1
  O  O320  1  0.08859374  0.08841367  0.70192510  1
  O  O321  1  0.08445839  0.59806717  0.03829551  1
  O  O322  1  0.07976426  0.59009964  0.36761509  1
  O  O323  1  0.06081299  0.57446675  0.69858043  1
  O  O324  1  0.58460072  0.08933343  0.04489105  1
  O  O325  1  0.58736352  0.09106721  0.37344350  1
  O  O326  1  0.58192785  0.08770811  0.70161199  1
  O  O327  1  0.58176314  0.60349163  0.05655762  1
  O  O328  1  0.58367468  0.58639852  0.36786474  1
  O  O329  1  0.58611306  0.58727549  0.70499594  1
  O  O330  1  0.41217784  0.41087420  0.13361956  1
  O  O331  1  0.41411539  0.41784423  0.46263515  1
  O  O332  1  0.42277528  0.41532958  0.81319364  1
  O  O333  1  0.41455643  0.91632983  0.12204718  1
  O  O334  1  0.40960740  0.90803421  0.46110035  1
  O  O335  1  0.40618896  0.90781014  0.79100332  1
  O  O336  1  0.91988274  0.41313531  0.13806410  1
  O  O337  1  0.91996608  0.44096062  0.46558858  1
  O  O338  1  0.90941524  0.41397292  0.78906665  1
  O  O339  1  0.91330946  0.92185224  0.12974434  1
  O  O340  1  0.91311066  0.91904053  0.46615154  1
  O  O341  1  0.89207908  0.90901282  0.78433718  1
  O  O342  1  0.41534894  0.41308499  0.29678919  1
  O  O343  1  0.41803810  0.41385815  0.62760575  1
  O  O344  1  0.40548796  0.40334404  0.95898545  1
  O  O345  1  0.40766788  0.89502651  0.28545180  1
  O  O346  1  0.41756968  0.92327069  0.64163881  1
  O  O347  1  0.41367651  0.90899794  0.96122634  1
  O  O348  1  0.91566216  0.41025316  0.29850944  1
  O  O349  1  0.91446665  0.40985264  0.63066516  1
  O  O350  1  0.91672888  0.39657842  0.94877922  1
  O  O351  1  0.91810216  0.91944419  0.30175732  1
  O  O352  1  0.90499575  0.92140025  0.63430429  1
  O  O353  1  0.91395506  0.91256239  0.95570693  1
  O  O354  1  0.08239373  0.08552547  0.19248545  1
  O  O355  1  0.09185681  0.08847822  0.53655410  1
  O  O356  1  0.09135195  0.08030700  0.87440446  1
  O  O357  1  0.08898417  0.58770728  0.20270193  1
  O  O358  1  0.09031192  0.57661682  0.53291624  1
  O  O359  1  0.08779602  0.59827909  0.87901056  1
  O  O360  1  0.58881498  0.08706643  0.20435968  1
  O  O361  1  0.58793731  0.08704690  0.54161768  1
  O  O362  1  0.58948921  0.08758961  0.87676082  1
  O  O363  1  0.59139280  0.58792657  0.21001412  1
  O  O364  1  0.58445570  0.56720651  0.53989334  1
  O  O365  1  0.57731683  0.58476407  0.85883873  1
  O  O366  1  0.14046474  0.21925286  0.05701449  1
  O  O367  1  0.14030639  0.21498671  0.39298745  1
  O  O368  1  0.13958626  0.22397251  0.72818343  1
  O  O369  1  0.14388280  0.73065514  0.06397992  1
  O  O370  1  0.13515711  0.72336496  0.38979446  1
  O  O371  1  0.13537314  0.70223798  0.73020968  1
  O  O372  1  0.63663883  0.22020159  0.05559133  1
  O  O373  1  0.64059176  0.22493792  0.39463012  1
  O  O374  1  0.63840444  0.22127788  0.72544483  1
  O  O375  1  0.63197981  0.73365362  0.06499772  1
  O  O376  1  0.63391179  0.72180995  0.38802319  1
  O  O377  1  0.64003421  0.71835206  0.71989504  1
  O  O378  1  0.27680559  0.35832329  0.10585046  1
  O  O379  1  0.27958779  0.36362936  0.44042479  1
  O  O380  1  0.28541823  0.36017977  0.77389579  1
  O  O381  1  0.28285269  0.86896735  0.11165954  1
  O  O382  1  0.27491245  0.86227855  0.44337661  1
  O  O383  1  0.27115766  0.85628545  0.76780739  1
  O  O384  1  0.78471936  0.35875030  0.10963205  1
  O  O385  1  0.79320252  0.36696910  0.44304193  1
  O  O386  1  0.77871201  0.36006645  0.77447813  1
  O  O387  1  0.78100414  0.86917826  0.11662212  1
  O  O388  1  0.77956559  0.86075244  0.44310583  1
  O  O389  1  0.75933901  0.86503679  0.77003750  1
  O  O390  1  0.36133224  0.27897291  0.27512422  1
  O  O391  1  0.36762461  0.27908855  0.60899658  1
  O  O392  1  0.35889705  0.26839127  0.93894059  1
  O  O393  1  0.36186462  0.76233441  0.26963833  1
  O  O394  1  0.35864692  0.78764691  0.60734069  1
  O  O395  1  0.36965090  0.77451048  0.94910365  1
  O  O396  1  0.86962248  0.27562993  0.27824093  1
  O  O397  1  0.86225292  0.27616933  0.60993830  1
  O  O398  1  0.86779967  0.26413777  0.93557285  1
  O  O399  1  0.85744332  0.78712970  0.27748224  1
  O  O400  1  0.85730426  0.78483783  0.60962118  1
  O  O401  1  0.86656187  0.77971572  0.94250581  1
  O  O402  1  0.21857904  0.14101967  0.22391608  1
  O  O403  1  0.22748002  0.13584260  0.55568233  1
  O  O404  1  0.22484902  0.13401708  0.89474417  1
  O  O405  1  0.22421657  0.63746405  0.22751180  1
  O  O406  1  0.22135293  0.63938450  0.55558821  1
  O  O407  1  0.22262376  0.63063124  0.88797662  1
  O  O408  1  0.72369795  0.13969730  0.22842513  1
  O  O409  1  0.71957667  0.14146192  0.55635403  1
  O  O410  1  0.72336236  0.13477939  0.88975281  1
  O  O411  1  0.72472642  0.63576872  0.22819704  1
  O  O412  1  0.71044240  0.63862283  0.55803227  1
  O  O413  1  0.71209558  0.63644761  0.88321564  1
  O  O414  1  0.48710134  0.32903807  0.03043773  1
  O  O415  1  0.49216763  0.33220769  0.36293580  1
  O  O416  1  0.49469672  0.33894538  0.70079594  1
  O  O417  1  0.49873764  0.83909824  0.03216723  1
  O  O418  1  0.48877976  0.82279278  0.36100429  1
  O  O419  1  0.49055863  0.83399766  0.69642380  1
  O  O420  1  0.99317509  0.32567282  0.02830435  1
  O  O421  1  1.00231981  0.33223668  0.36048376  1
  O  O422  1  0.99162939  0.33304662  0.70150454  1
  O  O423  1  0.99375966  0.84479814  0.03344534  1
  O  O424  1  0.98871229  0.83557743  0.36796876  1
  O  O425  1  0.98830208  0.84408370  0.69830099  1
  O  O426  1  0.17051943  0.00898614  0.13664902  1
  O  O427  1  0.16905682  0.00593652  0.47009120  1
  O  O428  1  0.16824814  0.00581795  0.80268002  1
  O  O429  1  0.16729813  0.51025245  0.13340806  1
  O  O430  1  0.17274263  0.50946529  0.46327804  1
  O  O431  1  0.14964907  0.50158238  0.80715823  1
  O  O432  1  0.66851943  0.00964056  0.13849146  1
  O  O433  1  0.66573500  0.00947815  0.47191053  1
  O  O434  1  0.65846000  0.00698744  0.80148801  1
  O  O435  1  0.66617013  0.50484016  0.14007592  1
  O  O436  1  0.66927059  0.50666514  0.47073586  1
  O  O437  1  0.65931446  0.50454960  0.79786314  1
  O  O438  1  0.01165328  0.15899365  0.30073284  1
  O  O439  1  0.01116286  0.16853601  0.63574202  1
  O  O440  1  0.01106337  0.16303691  0.96790725  1
  O  O441  1  0.00565031  0.67037113  0.29862600  1
  O  O442  1  0.00233136  0.67272289  0.64521335  1
  O  O443  1  0.01470150  0.68251326  0.97085653  1
  O  O444  1  0.50999722  0.16908253  0.30508067  1
  O  O445  1  0.50741811  0.17024750  0.63691144  1
  O  O446  1  0.50446508  0.16410527  0.97307044  1
  O  O447  1  0.50611837  0.66081121  0.29576115  1
  O  O448  1  0.50433711  0.66419516  0.63986757  1
  O  O449  1  0.50734821  0.67018542  0.97173163  1
  O  O450  1  0.32942490  0.48863086  0.19529801  1
  O  O451  1  0.33568678  0.49369420  0.53006910  1
  O  O452  1  0.32979062  0.49129525  0.86261063  1
  O  O453  1  0.34601457  0.99985764  0.19761679  1
  O  O454  1  0.33781305  0.99047249  0.53351506  1
  O  O455  1  0.32803912  0.98450892  0.86034568  1
  O  O456  1  0.83464558  0.48783716  0.20015639  1
  O  O457  1  0.83137773  0.49826332  0.53278764  1
  O  O458  1  0.83071925  0.49449434  0.85665727  1
  O  O459  1  0.83709852  1.00035201  0.19936776  1
  O  O460  1  0.82857852  0.99395032  0.52831283  1
  O  O461  1  0.82171443  0.99185548  0.86027070  1
