# generated using pymatgen
data_Na31Fe20(SO4)36
_symmetry_space_group_name_H-M   'P 1'
_cell_length_a   18.07002145
_cell_length_b   18.07002692
_cell_length_c   19.71367322
_cell_angle_alpha   107.58419715
_cell_angle_beta   107.57114357
_cell_angle_gamma   90.71644516
_symmetry_Int_Tables_number   1
_chemical_formula_structural   Na31Fe20(SO4)36
_chemical_formula_sum   'Na62 Fe40 S72 O288'
_cell_volume   5811.73217057
_cell_formula_units_Z   2
loop_
 _symmetry_equiv_pos_site_id
 _symmetry_equiv_pos_as_xyz
  1  'x, y, z'
loop_
 _atom_site_type_symbol
 _atom_site_label
 _atom_site_symmetry_multiplicity
 _atom_site_fract_x
 _atom_site_fract_y
 _atom_site_fract_z
 _atom_site_occupancy
  Na  Na0  1  0.12744741  0.36627054  0.07719352  1
  Na  Na1  1  0.17744128  0.34596705  0.42235317  1
  Na  Na2  1  0.15720968  0.34633927  0.77487113  1
  Na  Na3  1  0.13559337  0.86162629  0.07883668  1
  Na  Na4  1  0.13272382  0.85911112  0.41366272  1
  Na  Na5  1  0.13363446  0.86650736  0.75183487  1
  Na  Na6  1  0.62868322  0.37294016  0.08159651  1
  Na  Na7  1  0.62058598  0.36450438  0.41343325  1
  Na  Na8  1  0.64254673  0.37172991  0.76225501  1
  Na  Na9  1  0.64183086  0.86835188  0.09055159  1
  Na  Na10  1  0.62435887  0.86683712  0.41262738  1
  Na  Na11  1  0.62373162  0.87274495  0.74571398  1
  Na  Na12  1  0.36859632  0.15766507  0.27844050  1
  Na  Na13  1  0.36154344  0.14274040  0.57983967  1
  Na  Na14  1  0.36564836  0.13901977  0.91579767  1
  Na  Na15  1  0.37753449  0.63273016  0.25216287  1
  Na  Na16  1  0.37376225  0.63646012  0.57744210  1
  Na  Na17  1  0.36748467  0.62768855  0.91930600  1
  Na  Na18  1  0.85675343  0.12801447  0.23801015  1
  Na  Na19  1  0.86951517  0.13898606  0.58979343  1
  Na  Na20  1  0.86276196  0.13660538  0.91427404  1
  Na  Na21  1  0.86301833  0.62943503  0.24810601  1
  Na  Na22  1  0.86192402  0.63476186  0.58363324  1
  Na  Na23  1  0.86688577  0.63020129  0.92086614  1
  Na  Na24  1  0.98093589  0.01183528  0.08204907  1
  Na  Na25  1  0.54249554  -0.01346079  0.02420560  1
  Na  Na26  1  0.46828984  0.51936494  0.08505895  1
  Na  Na27  1  0.99048634  0.01868360  0.74889419  1
  Na  Na28  1  1.03867522  0.47296422  0.39506865  1
  Na  Na29  1  0.98864451  0.01174469  0.41500846  1
  Na  Na30  1  0.49034355  0.53653326  0.42283998  1
  Na  Na31  1  1.02121849  0.45752733  0.77009573  1
  Na  Na32  1  0.48801166  0.50346956  0.76256542  1
  Na  Na33  1  0.03432512  0.49428660  0.23636680  1
  Na  Na34  1  0.00900334  0.99346420  0.91566009  1
  Na  Na35  1  0.01562930  0.98877047  0.25032607  1
  Na  Na36  1  0.51714552  0.46610007  0.57592233  1
  Na  Na37  1  0.01075827  0.98714730  0.58015198  1
  Na  Na38  1  0.01246753  0.48961684  0.58391436  1
  Na  Na39  1  0.49834786  0.98728822  0.58889568  1
  Na  Na40  1  0.49814714  0.98178930  0.25636198  1
  Na  Na41  1  -0.01284619  0.47653545  0.93175009  1
  Na  Na42  1  0.25559784  0.74819450  0.32910376  1
  Na  Na43  1  0.74327763  0.74195977  0.00757509  1
  Na  Na44  1  0.76735503  0.26494444  0.66926331  1
  Na  Na45  1  0.73270371  0.73926242  0.33907110  1
  Na  Na46  1  0.24946488  0.74550501  0.66819611  1
  Na  Na47  1  0.74554144  0.24850418  0.33082108  1
  Na  Na48  1  0.25903638  0.25794758  0.65903569  1
  Na  Na49  1  0.72936849  0.73946010  0.67300389  1
  Na  Na50  1  0.75218835  0.25835716  -0.00168562  1
  Na  Na51  1  0.25603702  0.27207906  -0.02024642  1
  Na  Na52  1  0.74120419  0.23955434  0.15949019  1
  Na  Na53  1  0.24484034  0.74194290  0.49875534  1
  Na  Na54  1  0.26296322  0.75639074  0.15099902  1
  Na  Na55  1  0.72706305  0.73769805  0.50950808  1
  Na  Na56  1  0.76820436  0.26825565  0.83339152  1
  Na  Na57  1  0.24333933  0.74208453  0.84647274  1
  Na  Na58  1  0.24611399  0.25030188  0.17190972  1
  Na  Na59  1  0.74005996  0.74338998  0.84034890  1
  Na  Na60  1  0.73338827  0.73469069  0.17530257  1
  Na  Na61  1  0.75165123  0.25044061  0.49993113  1
  Fe  Fe62  1  0.46656861  0.80745417  0.78755263  1
  Fe  Fe63  1  0.96367849  0.80877666  0.78376229  1
  Fe  Fe64  1  0.96843171  0.30187235  0.44978015  1
  Fe  Fe65  1  0.46087903  0.31571530  0.12006984  1
  Fe  Fe66  1  0.96068854  0.80494063  0.44875874  1
  Fe  Fe67  1  0.96539833  0.80297082  0.11555396  1
  Fe  Fe68  1  0.96524807  0.30595482  0.11957390  1
  Fe  Fe69  1  0.46210296  0.31536203  0.79251647  1
  Fe  Fe70  1  0.46666713  0.79664856  0.12149112  1
  Fe  Fe71  1  0.46865400  0.79733958  0.45449101  1
  Fe  Fe72  1  0.19584156  0.03709820  0.72038382  1
  Fe  Fe73  1  0.68575176  0.53399476  0.37558508  1
  Fe  Fe74  1  0.69577604  0.53449928  0.71411513  1
  Fe  Fe75  1  0.19660520  0.53107066  0.71735713  1
  Fe  Fe76  1  0.69045656  0.04406613  0.71383345  1
  Fe  Fe77  1  0.70157467  0.52945064  0.04428858  1
  Fe  Fe78  1  0.19417028  0.03467712  0.05157848  1
  Fe  Fe79  1  0.69127823  0.03688660  0.37878584  1
  Fe  Fe80  1  0.19600561  0.03418174  0.38580490  1
  Fe  Fe81  1  0.19465779  0.53310851  0.03992034  1
  Fe  Fe82  1  0.53686447  0.69281609  0.87993485  1
  Fe  Fe83  1  0.52906454  0.19353504  0.20979011  1
  Fe  Fe84  1  0.03739835  0.18971089  0.21725440  1
  Fe  Fe85  1  0.03948247  0.19380221  0.55364093  1
  Fe  Fe86  1  0.52982835  0.20090446  0.54243420  1
  Fe  Fe87  1  0.03367793  0.69214361  0.87907413  1
  Fe  Fe88  1  0.03051865  0.20036952  0.88127526  1
  Fe  Fe89  1  0.03474643  0.68625607  0.54296130  1
  Fe  Fe90  1  0.53344052  0.19445022  0.88091626  1
  Fe  Fe91  1  0.03521743  0.68906695  0.21178194  1
  Fe  Fe92  1  0.80757156  0.46235340  0.28789393  1
  Fe  Fe93  1  0.29988131  0.46930754  0.29331111  1
  Fe  Fe94  1  0.80338522  0.96672001  0.61471654  1
  Fe  Fe95  1  0.79793088  0.97271968  0.95152914  1
  Fe  Fe96  1  0.31254993  0.96500020  0.95911799  1
  Fe  Fe97  1  0.30849330  0.96662222  0.62590223  1
  Fe  Fe98  1  0.30910836  0.96510976  0.28998997  1
  Fe  Fe99  1  0.81733788  0.46290819  0.62436097  1
  Fe  Fe100  1  0.30958899  0.46756361  0.61219503  1
  Fe  Fe101  1  0.80286205  0.96689402  0.27946935  1
  S  S102  1  0.35506528  0.14405281  0.08273717  1
  S  S103  1  0.35901180  0.13724560  0.41989064  1
  S  S104  1  0.35930059  0.14259191  0.75004542  1
  S  S105  1  0.35527036  0.63882464  0.08174394  1
  S  S106  1  0.35515363  0.64211824  0.41047058  1
  S  S107  1  0.35973515  0.64178164  0.75189371  1
  S  S108  1  0.86170442  0.13887406  0.08456088  1
  S  S109  1  0.86243647  0.13754447  0.41579819  1
  S  S110  1  0.86322968  0.13699493  0.74779001  1
  S  S111  1  0.86167906  0.64136182  0.08392233  1
  S  S112  1  0.85627293  0.64104699  0.41860616  1
  S  S113  1  0.85931337  0.64476448  0.74773779  1
  S  S114  1  0.13754365  0.35694154  0.25336756  1
  S  S115  1  0.14096664  0.36099209  0.57827258  1
  S  S116  1  0.13055289  0.36431968  0.91692342  1
  S  S117  1  0.13872214  0.86013477  0.24997522  1
  S  S118  1  0.13711616  0.85948562  0.58414812  1
  S  S119  1  0.13824750  0.86191865  0.91588214  1
  S  S120  1  0.64106267  0.35812989  0.25079441  1
  S  S121  1  0.64855640  0.35824776  0.58812056  1
  S  S122  1  0.64028121  0.35907323  0.91607369  1
  S  S123  1  0.64034194  0.86101811  0.24816138  1
  S  S124  1  0.63871396  0.86695424  0.58341026  1
  S  S125  1  0.64091011  0.85846910  0.91578519  1
  S  S126  1  0.06480679  0.16477238  0.04165475  1
  S  S127  1  0.06543935  0.16156393  0.37397732  1
  S  S128  1  0.06904102  0.16077918  0.70633279  1
  S  S129  1  0.06837188  0.67134819  0.04108652  1
  S  S130  1  0.05909722  0.66707870  0.37424626  1
  S  S131  1  0.06775187  0.67124299  0.70908455  1
  S  S132  1  0.56536742  0.18091063  0.04687804  1
  S  S133  1  0.57024837  0.17018040  0.37397836  1
  S  S134  1  0.56906843  0.17701759  0.70904826  1
  S  S135  1  0.57262238  0.67091262  0.04250616  1
  S  S136  1  0.56790063  0.67193286  0.37693706  1
  S  S137  1  0.56472734  0.66793370  0.70801899  1
  S  S138  1  0.31889337  0.43110916  0.12489500  1
  S  S139  1  0.34208696  0.44669261  0.45946143  1
  S  S140  1  0.32778388  0.43765684  0.78540972  1
  S  S141  1  0.32943147  0.93105062  0.12612640  1
  S  S142  1  0.32582574  0.92398405  0.45927275  1
  S  S143  1  0.32554498  0.92876059  0.79204294  1
  S  S144  1  0.83520123  0.43290204  0.13160914  1
  S  S145  1  0.83624050  0.43039768  0.45925755  1
  S  S146  1  0.83660067  0.43949718  0.79056058  1
  S  S147  1  0.83731664  0.93117359  0.12261017  1
  S  S148  1  0.83063037  0.93426006  0.45488026  1
  S  S149  1  0.82980992  0.93288677  0.78933802  1
  S  S150  1  0.42791431  0.33699308  0.28934551  1
  S  S151  1  0.43713627  0.33655158  0.62995819  1
  S  S152  1  0.43192777  0.33377128  0.95814503  1
  S  S153  1  0.43124608  0.83374979  0.29292719  1
  S  S154  1  0.42752276  0.83202964  0.62514216  1
  S  S155  1  0.43401317  0.82584635  0.95828994  1
  S  S156  1  0.93006837  0.32221037  0.28804864  1
  S  S157  1  0.94250701  0.32751345  0.62181373  1
  S  S158  1  0.92809917  0.32468049  0.96112542  1
  S  S159  1  0.93142576  0.83311711  0.29023173  1
  S  S160  1  0.93015418  0.83266129  0.62105679  1
  S  S161  1  0.93203026  0.83468092  0.95581376  1
  S  S162  1  0.16857517  0.06373841  0.20846007  1
  S  S163  1  0.16692518  0.06224330  0.54392355  1
  S  S164  1  0.16643373  0.06760394  0.87875668  1
  S  S165  1  0.17401980  0.56875630  0.20639119  1
  S  S166  1  0.16786829  0.56440142  0.54386014  1
  S  S167  1  0.16290391  0.56770081  0.87114611  1
  S  S168  1  0.66613299  0.06793130  0.20783817  1
  S  S169  1  0.67337367  0.07747455  0.54443872  1
  S  S170  1  0.67116040  0.07324589  0.87423030  1
  S  S171  1  0.67120460  0.56120258  0.20812988  1
  S  S172  1  0.67341224  0.55786673  0.54412819  1
  S  S173  1  0.67326547  0.57016969  0.87612442  1
  O  O174  1  0.36093673  0.22115044  0.07113384  1
  O  O175  1  0.36409711  0.21070430  0.40610517  1
  O  O176  1  0.36877558  0.22191998  0.74259307  1
  O  O177  1  0.36502396  0.72272368  0.08385946  1
  O  O178  1  0.37337353  0.71579621  0.39431452  1
  O  O179  1  0.36894037  0.72347669  0.74958319  1
  O  O180  1  0.87086193  0.21844712  0.07768048  1
  O  O181  1  0.86987639  0.21553030  0.40561630  1
  O  O182  1  0.87212516  0.21164428  0.73574429  1
  O  O183  1  0.86959313  0.72231484  0.07606355  1
  O  O184  1  0.86313247  0.71943965  0.40771251  1
  O  O185  1  0.86911504  0.72219988  0.73546054  1
  O  O186  1  0.27623499  0.13133103  0.09070631  1
  O  O187  1  0.28299612  0.12141388  0.43330963  1
  O  O188  1  0.28147692  0.13124812  0.75930355  1
  O  O189  1  0.27146386  0.62942248  0.08326203  1
  O  O190  1  0.27587316  0.64200774  0.41464045  1
  O  O191  1  0.28086511  0.63238419  0.76053598  1
  O  O192  1  0.78728451  0.12762910  0.09624504  1
  O  O193  1  0.78461468  0.12947439  0.42605227  1
  O  O194  1  0.78609167  0.12851023  0.76054176  1
  O  O195  1  0.78210629  0.63416391  0.09281049  1
  O  O196  1  0.77750206  0.63116436  0.42699916  1
  O  O197  1  0.77771594  0.63773864  0.75071705  1
  O  O198  1  0.13010442  0.27372974  0.25124817  1
  O  O199  1  0.13298023  0.28254144  0.58832820  1
  O  O200  1  0.11855165  0.28983315  0.93520561  1
  O  O201  1  0.12926155  0.78290325  0.26143820  1
  O  O202  1  0.12706004  0.77985105  0.59093071  1
  O  O203  1  0.12748633  0.78266174  0.92111561  1
  O  O204  1  0.62638535  0.27812493  0.25581559  1
  O  O205  1  0.63530041  0.27894782  0.59410955  1
  O  O206  1  0.62817144  0.28076490  0.92619787  1
  O  O207  1  0.63862433  0.78378916  0.25665691  1
  O  O208  1  0.63640165  0.79182952  0.59652527  1
  O  O209  1  0.63708029  0.77553968  0.91748425  1
  O  O210  1  0.21853512  0.37165514  0.24987360  1
  O  O211  1  0.21904785  0.37199686  0.57032855  1
  O  O212  1  0.20884757  0.36765966  0.91037867  1
  O  O213  1  0.21748218  0.86934765  0.24245454  1
  O  O214  1  0.21608427  0.86857651  0.57691917  1
  O  O215  1  0.21675091  0.87201851  0.90772935  1
  O  O216  1  0.72258399  0.36191432  0.24614251  1
  O  O217  1  0.73206798  0.36377690  0.58765517  1
  O  O218  1  0.71477459  0.36464911  0.90230159  1
  O  O219  1  0.71638326  0.87573102  0.23376371  1
  O  O220  1  0.71485714  0.87870173  0.56851368  1
  O  O221  1  0.71934754  0.87195693  0.90704898  1
  O  O222  1  0.41408916  0.14046988  0.15270763  1
  O  O223  1  0.42132489  0.13237138  0.48844607  1
  O  O224  1  0.41966139  0.13362924  0.81634469  1
  O  O225  1  0.40862204  0.62584566  0.14858892  1
  O  O226  1  0.41344656  0.63399706  0.47679283  1
  O  O227  1  0.41945679  0.62933091  0.81735045  1
  O  O228  1  0.92621232  0.12794010  0.14946255  1
  O  O229  1  0.92298378  0.12898450  0.48282788  1
  O  O230  1  0.92400334  0.12622317  0.81432766  1
  O  O231  1  0.91900492  0.63981878  0.15625693  1
  O  O232  1  0.91522903  0.63789567  0.48892032  1
  O  O233  1  0.91401555  0.64266262  0.81995773  1
  O  O234  1  0.36399063  0.08279121  0.01600250  1
  O  O235  1  0.36605825  0.07300304  0.35318987  1
  O  O236  1  0.36383639  0.08444572  0.67932314  1
  O  O237  1  0.36470145  0.58545416  0.01346499  1
  O  O238  1  0.36063266  0.57683490  0.34198723  1
  O  O239  1  0.36650612  0.58717718  0.68150773  1
  O  O240  1  0.87012018  0.08138726  0.01461293  1
  O  O241  1  0.87002226  0.07741217  0.34767761  1
  O  O242  1  0.87006904  0.07287587  0.68072679  1
  O  O243  1  0.87123931  0.58352939  0.01924687  1
  O  O244  1  0.86606006  0.58115537  0.35270001  1
  O  O245  1  0.87196927  0.58390731  0.68360014  1
  O  O246  1  0.08142399  0.36822385  0.18428133  1
  O  O247  1  0.08136271  0.36543935  0.50829863  1
  O  O248  1  0.07028255  0.36900199  0.84965938  1
  O  O249  1  0.07940211  0.86608492  0.18072813  1
  O  O250  1  0.07771039  0.86866364  0.51619938  1
  O  O251  1  0.07816319  0.87278268  0.84865377  1
  O  O252  1  0.58587121  0.37088701  0.18437683  1
  O  O253  1  0.59554814  0.36989965  0.52091118  1
  O  O254  1  0.57668804  0.36896713  0.85144871  1
  O  O255  1  0.57698046  0.86880372  0.18250545  1
  O  O256  1  0.57579560  0.87243283  0.51633359  1
  O  O257  1  0.58102679  0.86585026  0.84774163  1
  O  O258  1  0.12411908  0.40910091  0.32042578  1
  O  O259  1  0.12851316  0.42126408  0.64365981  1
  O  O260  1  0.12232004  0.42890062  0.98413794  1
  O  O261  1  0.12834451  0.92190019  0.31595105  1
  O  O262  1  0.12802614  0.91829483  0.65199655  1
  O  O263  1  0.12951916  0.92069275  0.98413645  1
  O  O264  1  0.63731787  0.41550886  0.32145015  1
  O  O265  1  0.63876160  0.41718468  0.65623987  1
  O  O266  1  0.63806463  0.41872237  0.98658825  1
  O  O267  1  0.63448962  0.92123180  0.31748349  1
  O  O268  1  0.63121246  0.93011730  0.64984778  1
  O  O269  1  0.63271140  0.91120128  0.98485531  1
  O  O270  1  0.02943027  0.19608414  0.10298040  1
  O  O271  1  0.03168605  0.19411221  0.43671522  1
  O  O272  1  0.04110625  0.18861612  0.77100243  1
  O  O273  1  0.03101162  0.69803523  0.10249144  1
  O  O274  1  0.02296867  0.70143859  0.43643247  1
  O  O275  1  0.03086056  0.70227842  0.76972626  1
  O  O276  1  0.52384266  0.21246242  0.10510726  1
  O  O277  1  0.53919440  0.19484242  0.43681906  1
  O  O278  1  0.53195416  0.20290272  0.76941709  1
  O  O279  1  0.53162874  0.69831511  0.09850978  1
  O  O280  1  0.53685055  0.70263704  0.44096890  1
  O  O281  1  0.52937712  0.69791161  0.77139470  1
  O  O282  1  0.28989892  0.47130716  0.06791550  1
  O  O283  1  0.29755431  0.47377238  0.39447466  1
  O  O284  1  0.29921217  0.46914563  0.71831721  1
  O  O285  1  0.30003518  0.96860967  0.06472562  1
  O  O286  1  0.29438079  0.95740524  0.39632040  1
  O  O287  1  0.29635645  0.96882700  0.73268396  1
  O  O288  1  0.80579416  0.46996880  0.07341752  1
  O  O289  1  0.80535859  0.46673009  0.39897995  1
  O  O290  1  0.80007102  0.47718354  0.72910005  1
  O  O291  1  0.81828262  0.96388513  0.06068219  1
  O  O292  1  0.80061396  0.96864715  0.39278973  1
  O  O293  1  0.79911623  0.96593366  0.72665426  1
  O  O294  1  0.46237389  0.31305767  0.22513997  1
  O  O295  1  0.47424344  0.30707109  0.57121382  1
  O  O296  1  0.46991898  0.29801373  0.89770827  1
  O  O297  1  0.46908311  0.81309498  0.23421467  1
  O  O298  1  0.46006514  0.80641086  0.56318483  1
  O  O299  1  0.47395636  0.79891331  0.89915132  1
  O  O300  1  0.96660759  0.29346225  0.22712588  1
  O  O301  1  0.97027406  0.29327077  0.55386128  1
  O  O302  1  0.95605342  0.28760436  0.89636276  1
  O  O303  1  0.96889089  0.80347519  0.23074242  1
  O  O304  1  0.96653490  0.80229880  0.56051840  1
  O  O305  1  0.96773762  0.80315023  0.89432072  1
  O  O306  1  0.19968183  0.03036628  0.27128922  1
  O  O307  1  0.19626349  0.02627284  0.60513406  1
  O  O308  1  0.19555328  0.03076991  0.93929357  1
  O  O309  1  0.19854078  0.52484552  0.26118467  1
  O  O310  1  0.20321627  0.53787183  0.61131634  1
  O  O311  1  0.18791200  0.53558105  0.93343764  1
  O  O312  1  0.70267396  0.03728989  0.27386774  1
  O  O313  1  0.70457167  0.04078924  0.60576618  1
  O  O314  1  0.70038632  0.03472362  0.93217077  1
  O  O315  1  0.70446546  0.52461093  0.27078416  1
  O  O316  1  0.71230291  0.52288686  0.60542072  1
  O  O317  1  0.69534610  0.53768046  0.93794274  1
  O  O318  1  0.08060959  0.08161065  0.03822770  1
  O  O319  1  0.08103284  0.07853021  0.37176551  1
  O  O320  1  0.08354315  0.07538504  0.69653986  1
  O  O321  1  0.08797251  0.59018475  0.03250376  1
  O  O322  1  0.06907348  0.58510049  0.36760205  1
  O  O323  1  0.08598722  0.58998502  0.70354018  1
  O  O324  1  0.59241618  0.10708202  0.05289496  1
  O  O325  1  0.58670818  0.08620433  0.35961547  1
  O  O326  1  0.58377489  0.09300568  0.69697595  1
  O  O327  1  0.59981136  0.59417713  0.04331420  1
  O  O328  1  0.59223008  0.59247292  0.38067100  1
  O  O329  1  0.58975081  0.58833674  0.70771669  1
  O  O330  1  0.40047270  0.41594552  0.12771600  1
  O  O331  1  0.42554385  0.45279191  0.46668283  1
  O  O332  1  0.41029428  0.42024326  0.79202388  1
  O  O333  1  0.40849222  0.90783266  0.12858278  1
  O  O334  1  0.40667756  0.90515025  0.46564057  1
  O  O335  1  0.40410863  0.90715013  0.79443088  1
  O  O336  1  0.91743883  0.41423724  0.13838443  1
  O  O337  1  0.91777891  0.41174666  0.46232915  1
  O  O338  1  0.91115142  0.41458896  0.78191708  1
  O  O339  1  0.92184752  0.91407028  0.13788727  1
  O  O340  1  0.91389535  0.91793156  0.46043321  1
  O  O341  1  0.91391825  0.91872765  0.79582179  1
  O  O342  1  0.39957428  0.41685477  0.29538971  1
  O  O343  1  0.41942993  0.41934656  0.63256067  1
  O  O344  1  0.41719935  0.41303097  0.96048354  1
  O  O345  1  0.41446921  0.91761484  0.30526047  1
  O  O346  1  0.41126489  0.91578731  0.63593279  1
  O  O347  1  0.41582018  0.90785088  0.96343381  1
  O  O348  1  0.91424874  0.40473601  0.29720701  1
  O  O349  1  0.92502415  0.40986520  0.62533970  1
  O  O350  1  0.91306661  0.40442388  0.96585943  1
  O  O351  1  0.91548968  0.91614679  0.29559307  1
  O  O352  1  0.91592448  0.91612631  0.62696174  1
  O  O353  1  0.91629212  0.91686641  0.95958936  1
  O  O354  1  0.08456662  0.07727907  0.20294006  1
  O  O355  1  0.08340680  0.07813600  0.53756073  1
  O  O356  1  0.08325637  0.08295117  0.87218365  1
  O  O357  1  0.09444225  0.59148652  0.20815918  1
  O  O358  1  0.08449773  0.58086383  0.54117495  1
  O  O359  1  0.07962194  0.58662809  0.86086321  1
  O  O360  1  0.58755065  0.09052480  0.20963487  1
  O  O361  1  0.59459823  0.09820704  0.54306810  1
  O  O362  1  0.59217391  0.09505738  0.87199442  1
  O  O363  1  0.58980781  0.57082532  0.19875204  1
  O  O364  1  0.59178803  0.56359212  0.54050800  1
  O  O365  1  0.59064215  0.58944632  0.86084606  1
  O  O366  1  0.13677660  0.21402161  0.05649876  1
  O  O367  1  0.13564503  0.20907532  0.38375388  1
  O  O368  1  0.13934750  0.20745911  0.71290762  1
  O  O369  1  0.13688878  0.72665231  0.05873290  1
  O  O370  1  0.13222703  0.71721653  0.39239653  1
  O  O371  1  0.13905581  0.72404347  0.72609782  1
  O  O372  1  0.63220484  0.23898567  0.06205125  1
  O  O373  1  0.64333025  0.22097160  0.38983769  1
  O  O374  1  0.64323843  0.22677416  0.72909564  1
  O  O375  1  0.64086606  0.72936614  0.05919158  1
  O  O376  1  0.63995347  0.72489258  0.39236544  1
  O  O377  1  0.63511152  0.72381218  0.72690825  1
  O  O378  1  0.26776450  0.35778521  0.10526576  1
  O  O379  1  0.30767190  0.36949283  0.45015828  1
  O  O380  1  0.27793456  0.36414963  0.76616145  1
  O  O381  1  0.27250195  0.86463936  0.11110227  1
  O  O382  1  0.27243000  0.85354449  0.44463101  1
  O  O383  1  0.26927534  0.85952693  0.77349865  1
  O  O384  1  0.78396245  0.36102998  0.11717786  1
  O  O385  1  0.78462174  0.35927981  0.44503056  1
  O  O386  1  0.78082387  0.37071112  0.77614151  1
  O  O387  1  0.78480525  0.86075003  0.10680691  1
  O  O388  1  0.78083795  0.86304554  0.44135540  1
  O  O389  1  0.78155861  0.86025022  0.77579985  1
  O  O390  1  0.36016178  0.27975285  0.27067581  1
  O  O391  1  0.36598618  0.28641631  0.61690329  1
  O  O392  1  0.36275046  0.27943674  0.94280139  1
  O  O393  1  0.35769621  0.78225598  0.27145058  1
  O  O394  1  0.35508784  0.78132182  0.61060563  1
  O  O395  1  0.36318778  0.77283393  0.93877930  1
  O  O396  1  0.85869609  0.27025410  0.27135950  1
  O  O397  1  0.87020352  0.27818451  0.60852224  1
  O  O398  1  0.85677204  0.27498704  0.95233081  1
  O  O399  1  0.85963906  0.78319427  0.27566865  1
  O  O400  1  0.85738007  0.78362896  0.60537313  1
  O  O401  1  0.86088171  0.78405253  0.94191867  1
  O  O402  1  0.21604287  0.13496983  0.21959186  1
  O  O403  1  0.21644698  0.13399734  0.55946186  1
  O  O404  1  0.21681635  0.13869989  0.89383876  1
  O  O405  1  0.22849978  0.63862703  0.22509568  1
  O  O406  1  0.21398911  0.63781136  0.55433822  1
  O  O407  1  0.21499698  0.63579129  0.88151017  1
  O  O408  1  0.71954437  0.13760164  0.22039898  1
  O  O409  1  0.72918842  0.14611032  0.55925975  1
  O  O410  1  0.72575589  0.14283731  0.88878994  1
  O  O411  1  0.72278819  0.63589122  0.23043338  1
  O  O412  1  0.71900156  0.63515924  0.56318145  1
  O  O413  1  0.72733206  0.64137772  0.89310059  1
  O  O414  1  0.49078485  0.33603890  0.03273930  1
  O  O415  1  0.48968577  0.34228333  0.35833423  1
  O  O416  1  0.49531784  0.34447529  0.70574960  1
  O  O417  1  0.49175512  0.82836025  0.03141237  1
  O  O418  1  0.48759148  0.82963419  0.36434559  1
  O  O419  1  0.48736345  0.83015869  0.69608356  1
  O  O420  1  0.99150622  0.32358613  0.03195489  1
  O  O421  1  0.99093082  0.32223400  0.35912996  1
  O  O422  1  1.00642983  0.32949082  0.68853762  1
  O  O423  1  0.99182360  0.83780463  0.02875919  1
  O  O424  1  0.99051400  0.83665997  0.36405408  1
  O  O425  1  0.98910058  0.83433214  0.69392573  1
  O  O426  1  0.16549271  0.00198906  0.13647168  1
  O  O427  1  0.16383626  0.00240693  0.47121719  1
  O  O428  1  0.16405554  0.00779645  0.80561906  1
  O  O429  1  0.16498443  0.51425980  0.12976859  1
  O  O430  1  0.16356888  0.50085690  0.47586835  1
  O  O431  1  0.15802481  0.50325353  0.79899490  1
  O  O432  1  0.65877897  0.00458352  0.13845198  1
  O  O433  1  0.66993241  0.01650457  0.47203059  1
  O  O434  1  0.66591045  0.01454159  0.79916500  1
  O  O435  1  0.68142368  0.50621552  0.13852702  1
  O  O436  1  0.67903914  0.50441530  0.47177615  1
  O  O437  1  0.67678260  0.51017081  0.80590349  1
  O  O438  1  0.00304145  0.15456160  0.30099653  1
  O  O439  1  0.00529329  0.15784913  0.63487988  1
  O  O440  1  0.00567261  0.15963773  0.96818640  1
  O  O441  1  0.00212030  0.67136256  0.30274709  1
  O  O442  1  0.00829398  0.66993274  0.63677047  1
  O  O443  1  0.00723536  0.67136308  0.96991600  1
  O  O444  1  0.50972874  0.17440740  0.30441917  1
  O  O445  1  0.51137188  0.18031137  0.63799010  1
  O  O446  1  0.50685335  0.17126792  0.97178883  1
  O  O447  1  0.51039709  0.66342692  0.30494856  1
  O  O448  1  0.50604564  0.66209744  0.63738763  1
  O  O449  1  0.51585724  0.66327353  0.96621692  1
  O  O450  1  0.31956886  0.48552916  0.19964891  1
  O  O451  1  0.33283137  0.50400543  0.53028586  1
  O  O452  1  0.32417600  0.49821453  0.85149619  1
  O  O453  1  0.33607753  0.99259404  0.19908381  1
  O  O454  1  0.32773687  0.98577299  0.53063185  1
  O  O455  1  0.32792264  0.98749488  0.86497544  1
  O  O456  1  0.84024078  0.49099174  0.20699231  1
  O  O457  1  0.84207948  0.48971817  0.53327076  1
  O  O458  1  0.84909156  0.49859725  0.86375856  1
  O  O459  1  0.83431942  0.99220786  0.19282311  1
  O  O460  1  0.83450379  0.99497855  0.52721397  1
  O  O461  1  0.83175345  0.99308973  0.86129298  1
