# generated using pymatgen
data_Na31Fe20(SO4)36
_symmetry_space_group_name_H-M   'P 1'
_cell_length_a   18.08898697
_cell_length_b   18.09113618
_cell_length_c   19.73402406
_cell_angle_alpha   107.59178095
_cell_angle_beta   107.57592002
_cell_angle_gamma   90.75534673
_symmetry_Int_Tables_number   1
_chemical_formula_structural   Na31Fe20(SO4)36
_chemical_formula_sum   'Na62 Fe40 S72 O288'
_cell_volume   5829.68561318
_cell_formula_units_Z   2
loop_
 _symmetry_equiv_pos_site_id
 _symmetry_equiv_pos_as_xyz
  1  'x, y, z'
loop_
 _atom_site_type_symbol
 _atom_site_label
 _atom_site_symmetry_multiplicity
 _atom_site_fract_x
 _atom_site_fract_y
 _atom_site_fract_z
 _atom_site_occupancy
  Na  Na0  1  0.14555167  0.36642007  0.08925223  1
  Na  Na1  1  0.13785643  0.36694268  0.41694758  1
  Na  Na2  1  0.13216473  0.36491887  0.74808320  1
  Na  Na3  1  0.12911833  0.87642873  0.08716058  1
  Na  Na4  1  0.13225944  0.85350350  0.40918104  1
  Na  Na5  1  0.13465333  0.87184761  0.75520560  1
  Na  Na6  1  0.63853397  0.36456540  0.09061919  1
  Na  Na7  1  0.63657669  0.34807804  0.40248208  1
  Na  Na8  1  0.62358677  0.37034959  0.74616928  1
  Na  Na9  1  0.63366207  0.86708545  0.07910014  1
  Na  Na10  1  0.63546093  0.86639998  0.41719189  1
  Na  Na11  1  0.63609426  0.86018221  0.74457717  1
  Na  Na12  1  0.37354546  0.13999762  0.26107167  1
  Na  Na13  1  0.35792278  0.12887115  0.57538486  1
  Na  Na14  1  0.36226423  0.12460293  0.91364148  1
  Na  Na15  1  0.36097487  0.63550088  0.24559592  1
  Na  Na16  1  0.32735701  0.63021561  0.54531716  1
  Na  Na17  1  0.36768994  0.62981356  0.91287775  1
  Na  Na18  1  0.86684056  0.19586451  0.27767953  1
  Na  Na19  1  0.86503387  0.13376312  0.57963974  1
  Na  Na20  1  0.87167074  0.13586009  0.92736645  1
  Na  Na21  1  0.86749584  0.62046080  0.24510865  1
  Na  Na22  1  0.86706536  0.63950320  0.58860069  1
  Na  Na23  1  0.87344647  0.63091184  0.92012552  1
  Na  Na24  1  0.49047809  0.51647248  0.06310601  1
  Na  Na25  1  1.00014350  0.02588199  0.40308900  1
  Na  Na26  1  0.48868083  0.01870021  0.41496538  1
  Na  Na27  1  1.01202317  0.49889554  0.42265215  1
  Na  Na28  1  0.46655457  0.00882452  0.04700948  1
  Na  Na29  1  0.98187916  0.50292894  0.76548372  1
  Na  Na30  1  0.98271211  0.05454554  0.20604115  1
  Na  Na31  1  0.48617746  0.00245542  0.76706869  1
  Na  Na32  1  0.51848173  0.45746609  0.46402266  1
  Na  Na33  1  0.01371982  0.45926392  0.57375404  1
  Na  Na34  1  0.00948579  0.98569191  0.58906918  1
  Na  Na35  1  0.04251866  0.49635286  1.04655533  1
  Na  Na36  1  0.50654998  0.99201280  0.58583002  1
  Na  Na37  1  0.02081412  0.99655922  0.90807465  1
  Na  Na38  1  0.05323721  0.50002080  0.26898094  1
  Na  Na39  1  0.50039947  0.48750780  0.26554236  1
  Na  Na40  1  0.51081841  0.99508649  0.23835623  1
  Na  Na41  1  0.43834444  0.51238589  0.62188042  1
  Na  Na42  1  0.25352111  0.75507345  0.65416782  1
  Na  Na43  1  0.75450638  0.25669864  0.65941084  1
  Na  Na44  1  0.24072175  0.74584778  0.00641448  1
  Na  Na45  1  0.75074954  0.74930068  0.33102042  1
  Na  Na46  1  0.21807105  0.71102532  0.33915561  1
  Na  Na47  1  0.25996442  0.26302643  0.66023381  1
  Na  Na48  1  0.25121918  0.25102431  0.33578818  1
  Na  Na49  1  0.74016580  0.23521501  0.01349722  1
  Na  Na50  1  0.75383687  0.74871013  -0.00624373  1
  Na  Na51  1  0.24608008  0.24643159  0.00082542  1
  Na  Na52  1  0.77008266  0.26044137  0.48235024  1
  Na  Na53  1  0.27227293  0.27499210  0.49938259  1
  Na  Na54  1  0.74252668  0.74291612  0.51113922  1
  Na  Na55  1  0.24859500  0.25298866  0.83369038  1
  Na  Na56  1  0.75707833  0.75633918  0.81982702  1
  Na  Na57  1  0.24090616  0.23860398  0.17217637  1
  Na  Na58  1  0.22441302  0.72744077  0.16875637  1
  Na  Na59  1  0.74740643  0.24982824  0.83497931  1
  Na  Na60  1  0.75670662  0.75151756  0.16260720  1
  Na  Na61  1  0.26140131  0.76420527  0.83068692  1
  Fe  Fe62  1  0.96269353  0.80593726  0.78470187  1
  Fe  Fe63  1  0.96811590  0.80507031  0.12447151  1
  Fe  Fe64  1  0.46374051  0.30764906  0.12115283  1
  Fe  Fe65  1  0.97225799  0.29902261  0.12266576  1
  Fe  Fe66  1  0.46417569  0.80834984  0.78520597  1
  Fe  Fe67  1  0.96492772  0.30839227  0.78981864  1
  Fe  Fe68  1  0.96309333  0.80349873  0.44926768  1
  Fe  Fe69  1  0.46274298  0.31593023  0.79368854  1
  Fe  Fe70  1  0.46580793  0.80592210  0.44782416  1
  Fe  Fe71  1  0.46622704  0.80930588  0.11166915  1
  Fe  Fe72  1  0.69366186  0.53263757  0.37841413  1
  Fe  Fe73  1  0.69318578  0.53341407  0.04506467  1
  Fe  Fe74  1  0.20042981  0.53057315  0.71152258  1
  Fe  Fe75  1  0.69507879  0.03509694  0.38114694  1
  Fe  Fe76  1  0.69359503  0.03524921  0.71515690  1
  Fe  Fe77  1  0.68773298  0.03519581  0.04560218  1
  Fe  Fe78  1  0.20128703  0.03095443  0.04287591  1
  Fe  Fe79  1  0.19065442  0.03206871  0.37410806  1
  Fe  Fe80  1  0.68733477  0.53457227  0.71019856  1
  Fe  Fe81  1  0.19460581  0.03481290  0.71296492  1
  Fe  Fe82  1  0.03329472  0.18870358  0.87541139  1
  Fe  Fe83  1  0.03244338  0.20039691  0.54538134  1
  Fe  Fe84  1  0.03359941  0.68978284  0.54832687  1
  Fe  Fe85  1  0.53123116  0.19876120  0.54764221  1
  Fe  Fe86  1  0.53522634  0.69226348  0.54639051  1
  Fe  Fe87  1  0.03592332  0.69327983  0.88026159  1
  Fe  Fe88  1  0.53676514  0.19474967  0.21581892  1
  Fe  Fe89  1  0.53448934  0.68592414  0.87313070  1
  Fe  Fe90  1  0.53330262  0.69696078  0.21088086  1
  Fe  Fe91  1  0.53355359  0.19457383  0.88320019  1
  Fe  Fe92  1  0.80534463  0.96824928  0.28471748  1
  Fe  Fe93  1  0.30407187  0.46818376  0.28971781  1
  Fe  Fe94  1  0.81209904  0.46449402  0.95874898  1
  Fe  Fe95  1  0.81046008  0.96455471  0.62320639  1
  Fe  Fe96  1  0.82408033  0.44743952  0.28900595  1
  Fe  Fe97  1  0.80472895  0.46559212  0.61407844  1
  Fe  Fe98  1  0.30524406  0.96217262  0.61395239  1
  Fe  Fe99  1  0.81059938  0.96627251  0.95641206  1
  Fe  Fe100  1  0.29669592  0.47194399  0.95960652  1
  Fe  Fe101  1  0.30771975  0.96158047  0.27917681  1
  S  S102  1  0.36142028  0.14341703  0.08503556  1
  S  S103  1  0.36001525  0.13388611  0.41836998  1
  S  S104  1  0.36032780  0.13989212  0.74886071  1
  S  S105  1  0.36026986  0.64696742  0.08138331  1
  S  S106  1  0.36673714  0.63991102  0.40992479  1
  S  S107  1  0.35688088  0.64423372  0.74715875  1
  S  S108  1  0.85372348  0.13859511  0.08516047  1
  S  S109  1  0.86130284  0.13886132  0.41624928  1
  S  S110  1  0.85645056  0.14189237  0.74921703  1
  S  S111  1  0.85775477  0.64007694  0.08287390  1
  S  S112  1  0.85456574  0.63819295  0.41576720  1
  S  S113  1  0.85872576  0.63700028  0.74855138  1
  S  S114  1  0.14742686  0.35506521  0.24511726  1
  S  S115  1  0.14422532  0.35714763  0.58826411  1
  S  S116  1  0.13626248  0.35674366  0.91742220  1
  S  S117  1  0.14424965  0.85730566  0.24979223  1
  S  S118  1  0.13702815  0.86130721  0.58280060  1
  S  S119  1  0.13921834  0.85987521  0.91361446  1
  S  S120  1  0.63746785  0.36274556  0.24903277  1
  S  S121  1  0.64479973  0.35902356  0.58005520  1
  S  S122  1  0.64253478  0.35855501  0.91970874  1
  S  S123  1  0.63999777  0.86213858  0.24798532  1
  S  S124  1  0.63791208  0.86184590  0.58269960  1
  S  S125  1  0.64250238  0.85872492  0.91270814  1
  S  S126  1  0.07002796  0.16658878  0.03804066  1
  S  S127  1  0.07089142  0.16735438  0.37472481  1
  S  S128  1  0.06598739  0.17026709  0.70746786  1
  S  S129  1  0.06805642  0.67973257  0.04206233  1
  S  S130  1  0.05556491  0.66811778  0.38109431  1
  S  S131  1  0.07050999  0.67205298  0.71150102  1
  S  S132  1  0.56310942  0.16872612  0.04094951  1
  S  S133  1  0.56966783  0.16262723  0.37678738  1
  S  S134  1  0.56631821  0.16789331  0.70968619  1
  S  S135  1  0.57005207  0.67215557  0.04032864  1
  S  S136  1  0.57235524  0.67298745  0.37411372  1
  S  S137  1  0.56435115  0.66961837  0.70650375  1
  S  S138  1  0.33505169  0.43357371  0.12610135  1
  S  S139  1  0.33273902  0.43384459  0.45668104  1
  S  S140  1  0.32443498  0.43340876  0.79695731  1
  S  S141  1  0.33729324  0.93611210  0.12284788  1
  S  S142  1  0.33299917  0.92675042  0.45393593  1
  S  S143  1  0.32842078  0.93371839  0.78495816  1
  S  S144  1  0.82689738  0.42526264  0.12040641  1
  S  S145  1  0.83258624  0.43887177  0.45783984  1
  S  S146  1  0.82554063  0.43113267  0.79099770  1
  S  S147  1  0.82736835  0.92886766  0.12185049  1
  S  S148  1  0.82832865  0.93079529  0.45868498  1
  S  S149  1  0.82950221  0.93353888  0.79233259  1
  S  S150  1  0.43267396  0.33077677  0.29150955  1
  S  S151  1  0.43231853  0.32237154  0.62840124  1
  S  S152  1  0.42872940  0.32781776  0.95831886  1
  S  S153  1  0.43564790  0.83318601  0.28771232  1
  S  S154  1  0.43291984  0.83168388  0.62326465  1
  S  S155  1  0.43852490  0.82510316  0.94972511  1
  S  S156  1  0.94862752  0.35504749  0.29397618  1
  S  S157  1  0.93171977  0.33141176  0.62665367  1
  S  S158  1  0.93253250  0.32544963  0.95752598  1
  S  S159  1  0.92725937  0.83579206  0.29343611  1
  S  S160  1  0.93189253  0.83146549  0.62399192  1
  S  S161  1  0.92921630  0.82716699  0.95513110  1
  S  S162  1  0.18003103  0.06820217  0.20902686  1
  S  S163  1  0.16669181  0.06643100  0.54159884  1
  S  S164  1  0.16758298  0.06856176  0.87174418  1
  S  S165  1  0.17352292  0.56058539  0.20835686  1
  S  S166  1  0.15845181  0.56348216  0.54681826  1
  S  S167  1  0.17079327  0.56947009  0.87182636  1
  S  S168  1  0.67022674  0.06883843  0.20803167  1
  S  S169  1  0.66839716  0.06579879  0.54332965  1
  S  S170  1  0.66933572  0.06676432  0.87477018  1
  S  S171  1  0.66266802  0.57026066  0.20446121  1
  S  S172  1  0.67147603  0.56866580  0.54141311  1
  S  S173  1  0.67474085  0.56673747  0.87577235  1
  O  O174  1  0.36804093  0.22451767  0.07986142  1
  O  O175  1  0.36411028  0.21108622  0.41014741  1
  O  O176  1  0.37001197  0.22043719  0.74573103  1
  O  O177  1  0.37510783  0.72243504  0.06743110  1
  O  O178  1  0.38108198  0.71436240  0.39406171  1
  O  O179  1  0.36179504  0.72914659  0.75175820  1
  O  O180  1  0.86957709  0.21529725  0.07458926  1
  O  O181  1  0.86642722  0.21506371  0.40655791  1
  O  O182  1  0.86566860  0.22153809  0.74230219  1
  O  O183  1  0.86584701  0.71915358  0.07344690  1
  O  O184  1  0.86374081  0.71736513  0.40788493  1
  O  O185  1  0.87024498  0.71638814  0.74306425  1
  O  O186  1  0.28169944  0.13283042  0.09118161  1
  O  O187  1  0.28349790  0.11875710  0.43001281  1
  O  O188  1  0.28225411  0.13071025  0.75893205  1
  O  O189  1  0.28208488  0.64226277  0.08663472  1
  O  O190  1  0.28996983  0.63634409  0.41892245  1
  O  O191  1  0.27750973  0.62983451  0.75632521  1
  O  O192  1  0.76819002  0.13098215  0.07646231  1
  O  O193  1  0.78398612  0.12488724  0.42823038  1
  O  O194  1  0.77647252  0.13269204  0.75579659  1
  O  O195  1  0.77354228  0.63053299  0.08207509  1
  O  O196  1  0.77559505  0.63150738  0.42562370  1
  O  O197  1  0.77929667  0.62845181  0.75525364  1
  O  O198  1  0.14775704  0.27455365  0.24606532  1
  O  O199  1  0.12646174  0.28407101  0.60560042  1
  O  O200  1  0.12888767  0.27347991  0.91748832  1
  O  O201  1  0.13866218  0.77997916  0.25775023  1
  O  O202  1  0.12728632  0.78478646  0.59453525  1
  O  O203  1  0.12906218  0.78131309  0.92258586  1
  O  O204  1  0.62889130  0.28533116  0.25960107  1
  O  O205  1  0.63265268  0.28011057  0.58776024  1
  O  O206  1  0.63207013  0.27904634  0.92713657  1
  O  O207  1  0.63042451  0.78292717  0.25525346  1
  O  O208  1  0.62779880  0.78336664  0.59007154  1
  O  O209  1  0.63577456  0.77903201  0.91945891  1
  O  O210  1  0.22537444  0.37323630  0.23251776  1
  O  O211  1  0.22467154  0.35863266  0.58743594  1
  O  O212  1  0.21777283  0.36918317  0.91532353  1
  O  O213  1  0.22019073  0.86971298  0.23505157  1
  O  O214  1  0.21549310  0.86949721  0.57471741  1
  O  O215  1  0.21210678  0.86821253  0.89837524  1
  O  O216  1  0.71364503  0.37646711  0.23994418  1
  O  O217  1  0.72894634  0.36605682  0.58111109  1
  O  O218  1  0.72236774  0.36734292  0.91349229  1
  O  O219  1  0.71849541  0.87008413  0.23918014  1
  O  O220  1  0.71640373  0.87126448  0.57422033  1
  O  O221  1  0.72182660  0.87050643  0.90522023  1
  O  O222  1  0.41987343  0.13613958  0.15438699  1
  O  O223  1  0.42204606  0.12563604  0.48561727  1
  O  O224  1  0.42092152  0.12727406  0.81415826  1
  O  O225  1  0.41919030  0.64270162  0.15220444  1
  O  O226  1  0.42684328  0.63509608  0.47918006  1
  O  O227  1  0.41606999  0.63159364  0.81256495  1
  O  O228  1  0.90001205  0.13343622  0.15768857  1
  O  O229  1  0.92189515  0.13185277  0.48486087  1
  O  O230  1  0.91376467  0.13378058  0.81729610  1
  O  O231  1  0.91055263  0.63447589  0.15191501  1
  O  O232  1  0.91330081  0.63063049  0.48388204  1
  O  O233  1  0.91740611  0.62560032  0.81528832  1
  O  O234  1  0.37155155  0.08774030  0.01832552  1
  O  O235  1  0.37082184  0.07381330  0.35124048  1
  O  O236  1  0.36564299  0.08276044  0.67856628  1
  O  O237  1  0.37198499  0.58294168  0.01766851  1
  O  O238  1  0.37505899  0.57566539  0.34383634  1
  O  O239  1  0.36196669  0.59584063  0.67555808  1
  O  O240  1  0.86878422  0.07729041  0.02095912  1
  O  O241  1  0.86990121  0.07663897  0.35006830  1
  O  O242  1  0.86308497  0.08382631  0.68023143  1
  O  O243  1  0.86727992  0.58091477  0.01495483  1
  O  O244  1  0.85801713  0.57852149  0.34670562  1
  O  O245  1  0.86712334  0.57833867  0.68033779  1
  O  O246  1  0.08549276  0.36333015  0.17770386  1
  O  O247  1  0.08803664  0.36402616  0.52026167  1
  O  O248  1  0.08108737  0.36396234  0.84643520  1
  O  O249  1  0.08128196  0.86821677  0.18560433  1
  O  O250  1  0.07734916  0.86978626  0.51509130  1
  O  O251  1  0.07262634  0.86985947  0.84989608  1
  O  O252  1  0.57609306  0.36900209  0.18094522  1
  O  O253  1  0.59383691  0.36734065  0.51060905  1
  O  O254  1  0.58463996  0.36469764  0.85083924  1
  O  O255  1  0.58081173  0.87258369  0.18129356  1
  O  O256  1  0.57829198  0.87182504  0.51533783  1
  O  O257  1  0.58341582  0.86612957  0.84462232  1
  O  O258  1  0.13971844  0.41068880  0.31309339  1
  O  O259  1  0.13494100  0.42274335  0.65529542  1
  O  O260  1  0.12279742  0.40961668  0.98334778  1
  O  O261  1  0.14167291  0.91693330  0.32080921  1
  O  O262  1  0.12783556  0.92310810  0.64964048  1
  O  O263  1  0.13490053  0.91914422  0.98385205  1
  O  O264  1  0.62587622  0.42282326  0.31593970  1
  O  O265  1  0.63538773  0.41797994  0.64784297  1
  O  O266  1  0.63422591  0.41748871  0.98742813  1
  O  O267  1  0.63312411  0.92041529  0.31703632  1
  O  O268  1  0.62955410  0.92147298  0.65054921  1
  O  O269  1  0.63479930  0.91674816  0.98136942  1
  O  O270  1  0.03091073  0.19419859  0.09477886  1
  O  O271  1  0.04661834  0.18344570  0.44301765  1
  O  O272  1  0.02498891  0.19612401  0.76546655  1
  O  O273  1  0.02624741  0.70806904  0.09749423  1
  O  O274  1  0.02470423  0.70696960  0.44795137  1
  O  O275  1  0.03202470  0.69851224  0.77178174  1
  O  O276  1  0.52780257  0.20024468  0.10273183  1
  O  O277  1  0.53312090  0.18093561  0.43609276  1
  O  O278  1  0.53172540  0.19643383  0.77160975  1
  O  O279  1  0.53451632  0.70484678  0.10192823  1
  O  O280  1  0.54113304  0.70556497  0.43803688  1
  O  O281  1  0.52615035  0.70089422  0.76631262  1
  O  O282  1  0.31460571  0.47353130  0.06921364  1
  O  O283  1  0.31586933  0.45906189  0.38733277  1
  O  O284  1  0.29635624  0.47346334  0.73929720  1
  O  O285  1  0.30551777  0.97242936  0.06430497  1
  O  O286  1  0.30497056  0.96145926  0.39257804  1
  O  O287  1  0.29900803  0.96871756  0.72082462  1
  O  O288  1  0.80141490  0.47097783  0.06516634  1
  O  O289  1  0.79492497  0.46940025  0.39270862  1
  O  O290  1  0.79790988  0.47050243  0.73235617  1
  O  O291  1  0.79563109  0.96616880  0.06171494  1
  O  O292  1  0.79811407  0.96539708  0.39675682  1
  O  O293  1  0.79970810  0.97019810  0.73066814  1
  O  O294  1  0.46704332  0.29835785  0.22840170  1
  O  O295  1  0.47423400  0.29554382  0.57261362  1
  O  O296  1  0.46718078  0.29926426  0.89780661  1
  O  O297  1  0.47259744  0.80578245  0.22672072  1
  O  O298  1  0.46675281  0.80100462  0.56058233  1
  O  O299  1  0.47862333  0.79008106  0.89133755  1
  O  O300  1  0.96779587  0.30737814  0.22758614  1
  O  O301  1  0.96722772  0.30423290  0.56692642  1
  O  O302  1  0.96822576  0.29632886  0.89542170  1
  O  O303  1  0.95761701  0.81254958  0.23024202  1
  O  O304  1  0.96730260  0.79970824  0.56284137  1
  O  O305  1  0.96614433  0.79549558  0.89436440  1
  O  O306  1  0.21013502  0.02881498  0.26909017  1
  O  O307  1  0.19997961  0.02939080  0.60211456  1
  O  O308  1  0.19129844  0.03575902  0.93371867  1
  O  O309  1  0.21317240  0.52778693  0.27159883  1
  O  O310  1  0.19049267  0.53429573  0.61252097  1
  O  O311  1  0.19494993  0.52912427  0.92792800  1
  O  O312  1  0.69998114  0.03063916  0.26862359  1
  O  O313  1  0.69938509  0.02892895  0.60379084  1
  O  O314  1  0.69749930  0.02921413  0.93433247  1
  O  O315  1  0.68610531  0.53875107  0.26755701  1
  O  O316  1  0.70161402  0.53160864  0.60234364  1
  O  O317  1  0.70124233  0.52575892  0.93354981  1
  O  O318  1  0.09364481  0.08675012  0.03348125  1
  O  O319  1  0.08835465  0.08214415  0.35594173  1
  O  O320  1  0.08527646  0.08878974  0.69948636  1
  O  O321  1  0.09666229  0.60556864  0.04435485  1
  O  O322  1  0.07488870  0.59104781  0.38681399  1
  O  O323  1  0.09157323  0.59130192  0.70527702  1
  O  O324  1  0.57998501  0.08734113  0.03811352  1
  O  O325  1  0.58457829  0.07716390  0.36063325  1
  O  O326  1  0.58477874  0.08545970  0.70400917  1
  O  O327  1  0.58851151  0.59185129  0.03950778  1
  O  O328  1  0.58916683  0.59135452  0.36911306  1
  O  O329  1  0.58131687  0.58823109  0.70304883  1
  O  O330  1  0.41924486  0.41761970  0.13999162  1
  O  O331  1  0.41271742  0.41267074  0.47664791  1
  O  O332  1  0.40402761  0.41332037  0.79986875  1
  O  O333  1  0.41951826  0.91862920  0.12319117  1
  O  O334  1  0.41835482  0.91552544  0.46391515  1
  O  O335  1  0.40741430  0.90922886  0.78316347  1
  O  O336  1  0.90550720  0.40287946  0.12277203  1
  O  O337  1  0.91392122  0.42986404  0.46149258  1
  O  O338  1  0.90606024  0.41091397  0.79319688  1
  O  O339  1  0.90756397  0.90995926  0.12461879  1
  O  O340  1  0.90997093  0.91251123  0.46524893  1
  O  O341  1  0.91040410  0.91432071  0.79714035  1
  O  O342  1  0.40643876  0.40870716  0.28700710  1
  O  O343  1  0.40720216  0.39870130  0.63130998  1
  O  O344  1  0.40716461  0.40738200  0.96304504  1
  O  O345  1  0.42137035  0.91682984  0.29633238  1
  O  O346  1  0.41857123  0.91550798  0.62954564  1
  O  O347  1  0.41973087  0.90196422  0.94635747  1
  O  O348  1  0.94755221  0.44038217  0.29662191  1
  O  O349  1  0.91357582  0.41436286  0.63343824  1
  O  O350  1  0.91637212  0.40773350  0.96439362  1
  O  O351  1  0.90968793  0.91948733  0.30820031  1
  O  O352  1  0.91559246  0.91336283  0.62653661  1
  O  O353  1  0.91026519  0.90699530  0.95519506  1
  O  O354  1  0.10159077  0.08686259  0.20432866  1
  O  O355  1  0.08435382  0.07998007  0.53824005  1
  O  O356  1  0.08387157  0.08387473  0.85833609  1
  O  O357  1  0.09825502  0.58240853  0.21708417  1
  O  O358  1  0.07583892  0.58159187  0.54459561  1
  O  O359  1  0.08819447  0.58685932  0.86109406  1
  O  O360  1  0.58779796  0.08520426  0.20461213  1
  O  O361  1  0.58652573  0.08233623  0.53962388  1
  O  O362  1  0.58873047  0.08791116  0.87010802  1
  O  O363  1  0.57913416  0.58840981  0.19117222  1
  O  O364  1  0.59077343  0.58752049  0.53885991  1
  O  O365  1  0.59735598  0.59241330  0.87580815  1
  O  O366  1  0.13938003  0.22171604  0.05261387  1
  O  O367  1  0.14224195  0.21930865  0.39038093  1
  O  O368  1  0.13732088  0.22394320  0.72907565  1
  O  O369  1  0.13411501  0.73942865  0.05680192  1
  O  O370  1  0.12481437  0.72049908  0.39329577  1
  O  O371  1  0.13933621  0.72731953  0.72845823  1
  O  O372  1  0.63275297  0.22021661  0.05416899  1
  O  O373  1  0.64221872  0.21331875  0.39653395  1
  O  O374  1  0.63735233  0.21971419  0.72459768  1
  O  O375  1  0.64083993  0.72430897  0.05513348  1
  O  O376  1  0.64368000  0.72399107  0.38740311  1
  O  O377  1  0.63575457  0.72120993  0.72361971  1
  O  O378  1  0.28307403  0.36087297  0.10367555  1
  O  O379  1  0.27475541  0.36519427  0.43800164  1
  O  O380  1  0.27078396  0.36169433  0.77821351  1
  O  O381  1  0.28866339  0.86451466  0.11116851  1
  O  O382  1  0.28573544  0.85417420  0.43954967  1
  O  O383  1  0.27335993  0.86399609  0.76722752  1
  O  O384  1  0.76876787  0.35726630  0.09726881  1
  O  O385  1  0.78471764  0.36700734  0.44651626  1
  O  O386  1  0.77186294  0.36025527  0.77322579  1
  O  O387  1  0.77392524  0.85794997  0.10539746  1
  O  O388  1  0.77599960  0.86011714  0.44380355  1
  O  O389  1  0.77628425  0.86388852  0.77616494  1
  O  O390  1  0.36485520  0.27656762  0.27974854  1
  O  O391  1  0.36413127  0.26343808  0.60941220  1
  O  O392  1  0.35998754  0.27165326  0.94062162  1
  O  O393  1  0.36382488  0.78289925  0.26984485  1
  O  O394  1  0.36157922  0.78298820  0.61034757  1
  O  O395  1  0.36929015  0.77112124  0.93538661  1
  O  O396  1  0.86622309  0.33014197  0.28667323  1
  O  O397  1  0.86033714  0.27903620  0.61072262  1
  O  O398  1  0.86047204  0.27379980  0.93938840  1
  O  O399  1  0.85581215  0.78409085  0.27919969  1
  O  O400  1  0.85999264  0.78178308  0.60943148  1
  O  O401  1  0.85752853  0.77431972  0.93757310  1
  O  O402  1  0.23637747  0.13806045  0.22903802  1
  O  O403  1  0.21636053  0.13925455  0.55894781  1
  O  O404  1  0.21926627  0.14071055  0.88824763  1
  O  O405  1  0.22674486  0.63085278  0.22079654  1
  O  O406  1  0.20631876  0.63575098  0.55924439  1
  O  O407  1  0.22348689  0.64128304  0.89112138  1
  O  O408  1  0.72095352  0.13848965  0.22253727  1
  O  O409  1  0.71996513  0.13679219  0.55886866  1
  O  O410  1  0.72330479  0.13673024  0.89070950  1
  O  O411  1  0.71568352  0.64084139  0.21944770  1
  O  O412  1  0.72397174  0.63808737  0.55601405  1
  O  O413  1  0.73215165  0.63407009  0.89215458  1
  O  O414  1  0.48910121  0.33096143  0.03040429  1
  O  O415  1  0.49557797  0.34314049  0.36230622  1
  O  O416  1  0.48945981  0.32565446  0.70391035  1
  O  O417  1  0.49725500  0.83125904  0.02475155  1
  O  O418  1  0.49515742  0.83346913  0.35974891  1
  O  O419  1  0.49425502  0.83453681  0.69524008  1
  O  O420  1  0.99153148  0.32467633  0.02838238  1
  O  O421  1  1.00492132  0.35188594  0.36344904  1
  O  O422  1  0.98965905  0.33580282  0.70113278  1
  O  O423  1  0.98646081  0.83118274  0.02828651  1
  O  O424  1  0.98881717  0.83390835  0.36349465  1
  O  O425  1  0.99049088  0.83437188  0.69685843  1
  O  O426  1  0.18221256  0.01021481  0.13696548  1
  O  O427  1  0.16488434  0.00879616  0.46842210  1
  O  O428  1  0.17154987  0.00934446  0.80134335  1
  O  O429  1  0.16297507  0.50064692  0.13564063  1
  O  O430  1  0.15270962  0.50099370  0.47807190  1
  O  O431  1  0.17042566  0.51302584  0.79655314  1
  O  O432  1  0.66501041  0.00754612  0.13495000  1
  O  O433  1  0.66476638  0.00711056  0.46977635  1
  O  O434  1  0.66478240  0.00714019  0.80142796  1
  O  O435  1  0.66361716  0.50880003  0.13413630  1
  O  O436  1  0.66490957  0.50750676  0.46830781  1
  O  O437  1  0.66714542  0.50857909  0.80099755  1
  O  O438  1  0.00524547  0.17117478  0.31104424  1
  O  O439  1  0.00854182  0.17085158  0.63503463  1
  O  O440  1  0.01116998  0.15846967  0.96187417  1
  O  O441  1  -0.00725041  0.66244531  0.31230911  1
  O  O442  1  0.00904846  0.67166128  0.64075659  1
  O  O443  1  0.00980611  0.66947970  0.96496004  1
  O  O444  1  0.51200496  0.16771864  0.30583237  1
  O  O445  1  0.50721541  0.16340183  0.63672012  1
  O  O446  1  0.50280273  0.16493367  0.96801937  1
  O  O447  1  0.51131037  0.67043531  0.30267977  1
  O  O448  1  0.50566884  0.66648281  0.63363508  1
  O  O449  1  0.51049826  0.66743370  0.96789919  1
  O  O450  1  0.33130905  0.48938711  0.19884757  1
  O  O451  1  0.32501363  0.49997391  0.51839453  1
  O  O452  1  0.32729219  0.48996387  0.87096119  1
  O  O453  1  0.34757978  0.99407778  0.19928690  1
  O  O454  1  0.33279547  0.98702087  0.52622613  1
  O  O455  1  0.33527627  0.99377659  0.85486458  1
  O  O456  1  0.82718696  0.48044361  0.19445882  1
  O  O457  1  0.83098855  0.49964949  0.52899769  1
  O  O458  1  0.83020276  0.48784288  0.86521971  1
  O  O459  1  0.83138248  0.98779971  0.19467442  1
  O  O460  1  0.83059028  0.99127418  0.53077893  1
  O  O461  1  0.83253456  0.99451514  0.86427354  1
