# generated using pymatgen
data_Na31Fe20(SO4)36
_symmetry_space_group_name_H-M   'P 1'
_cell_length_a   18.06384851
_cell_length_b   18.06611836
_cell_length_c   19.69373326
_cell_angle_alpha   107.55858469
_cell_angle_beta   107.58895960
_cell_angle_gamma   90.68621220
_symmetry_Int_Tables_number   1
_chemical_formula_structural   Na31Fe20(SO4)36
_chemical_formula_sum   'Na62 Fe40 S72 O288'
_cell_volume   5803.28532845
_cell_formula_units_Z   2
loop_
 _symmetry_equiv_pos_site_id
 _symmetry_equiv_pos_as_xyz
  1  'x, y, z'
loop_
 _atom_site_type_symbol
 _atom_site_label
 _atom_site_symmetry_multiplicity
 _atom_site_fract_x
 _atom_site_fract_y
 _atom_site_fract_z
 _atom_site_occupancy
  Na  Na0  1  0.12989051  0.34310268  0.05482281  1
  Na  Na1  1  0.13740709  0.37144146  0.42728638  1
  Na  Na2  1  0.13342579  0.37043787  0.75171867  1
  Na  Na3  1  0.13471447  0.86246566  0.08043066  1
  Na  Na4  1  0.13454405  0.86052938  0.40981151  1
  Na  Na5  1  0.12116765  0.87182196  0.75139885  1
  Na  Na6  1  0.63445235  0.36225678  0.08418394  1
  Na  Na7  1  0.64647112  0.35636098  0.42696429  1
  Na  Na8  1  0.62702300  0.36657200  0.73305016  1
  Na  Na9  1  0.66020119  0.86576807  0.10523616  1
  Na  Na10  1  0.63356032  0.86496978  0.41322349  1
  Na  Na11  1  0.63642253  0.86557983  0.75054332  1
  Na  Na12  1  0.36371753  0.13325945  0.24899604  1
  Na  Na13  1  0.37104544  0.13547221  0.58552789  1
  Na  Na14  1  0.36309984  0.13909057  0.92128626  1
  Na  Na15  1  0.36370116  0.64533495  0.25722198  1
  Na  Na16  1  0.36592621  0.62737193  0.58297864  1
  Na  Na17  1  0.37450591  0.64132730  0.92648556  1
  Na  Na18  1  0.86091487  0.11843143  0.24206074  1
  Na  Na19  1  0.85620106  0.13905600  0.58051669  1
  Na  Na20  1  0.88047601  0.11897565  0.91186936  1
  Na  Na21  1  0.85870798  0.63351286  0.23987976  1
  Na  Na22  1  0.87624844  0.63889426  0.59786718  1
  Na  Na23  1  0.86060081  0.62729588  0.90157756  1
  Na  Na24  1  0.98548898  0.00387656  0.08340453  1
  Na  Na25  1  0.51417021  0.47480311  0.44976807  1
  Na  Na26  1  0.49674838  0.52241792  0.07707477  1
  Na  Na27  1  0.96512025  0.00877646  0.39209867  1
  Na  Na28  1  0.99827631  0.50856455  0.07232403  1
  Na  Na29  1  0.48786827  0.04038813  0.43857456  1
  Na  Na30  1  0.98660228  0.50800004  0.42244978  1
  Na  Na31  1  0.51698904  -0.01787572  0.08786149  1
  Na  Na32  1  0.49747125  0.01129861  0.73474092  1
  Na  Na33  1  -0.01509265  1.00638844  0.60732416  1
  Na  Na34  1  0.51021733  0.49816852  0.89366721  1
  Na  Na35  1  0.50496672  0.49476212  0.25239390  1
  Na  Na36  1  0.00914873  0.50723837  0.87993723  1
  Na  Na37  1  0.00181458  0.48638128  0.61330948  1
  Na  Na38  1  0.01143199  0.49057563  0.24787235  1
  Na  Na39  1  0.50160156  0.49365905  0.64951904  1
  Na  Na40  1  0.50706776  0.96008109  0.24652331  1
  Na  Na41  1  0.54303275  0.99025423  0.92869213  1
  Na  Na42  1  0.25053825  0.74990968  0.66516378  1
  Na  Na43  1  0.74950334  0.24005435  0.00073914  1
  Na  Na44  1  0.76922629  0.75463868  0.66753906  1
  Na  Na45  1  0.75080337  0.74279494  0.00371680  1
  Na  Na46  1  0.25427640  0.25783964  0.32861785  1
  Na  Na47  1  0.26935992  0.76490148  0.00101612  1
  Na  Na48  1  0.24995381  0.25675450  0.66733924  1
  Na  Na49  1  0.73618221  0.23138225  0.34460463  1
  Na  Na50  1  0.76120763  0.76981233  0.31128903  1
  Na  Na51  1  0.74173865  0.25048080  0.65450429  1
  Na  Na52  1  0.73990154  0.23199767  0.17227243  1
  Na  Na53  1  0.25743217  0.75317952  0.83191760  1
  Na  Na54  1  0.25786609  0.75821236  0.48803057  1
  Na  Na55  1  0.75081615  0.73981262  0.82839815  1
  Na  Na56  1  0.75142737  0.24836674  0.82922232  1
  Na  Na57  1  0.75495452  0.75372810  0.49322988  1
  Na  Na58  1  0.24819670  0.74568415  0.17436578  1
  Na  Na59  1  0.22636711  0.24002087  0.85462270  1
  Na  Na60  1  0.25438737  0.25693103  0.15501847  1
  Na  Na61  1  0.25912485  0.26417774  0.50019323  1
  Fe  Fe62  1  0.96232274  0.81292548  0.12395680  1
  Fe  Fe63  1  0.46065928  0.30718746  0.11599903  1
  Fe  Fe64  1  0.95787012  0.30822901  0.45239137  1
  Fe  Fe65  1  0.96477108  0.80899017  0.44962835  1
  Fe  Fe66  1  0.46523821  0.30408225  0.78257813  1
  Fe  Fe67  1  0.46768262  0.29470955  0.45964211  1
  Fe  Fe68  1  0.96571476  0.29967622  0.78677307  1
  Fe  Fe69  1  0.96799224  0.30383036  0.11439898  1
  Fe  Fe70  1  0.46647642  0.81191221  0.78808779  1
  Fe  Fe71  1  0.46380243  0.81485305  0.45712313  1
  Fe  Fe72  1  0.19482105  0.53709684  0.04770959  1
  Fe  Fe73  1  0.69567741  0.03171076  0.37956042  1
  Fe  Fe74  1  0.19115130  0.03485809  0.71889556  1
  Fe  Fe75  1  0.68874447  0.03511957  0.70789269  1
  Fe  Fe76  1  0.69378890  0.53627407  0.04790952  1
  Fe  Fe77  1  0.18507941  0.03681757  0.04117391  1
  Fe  Fe78  1  0.19790958  0.53547075  0.38332682  1
  Fe  Fe79  1  0.20481389  0.53117334  0.71023512  1
  Fe  Fe80  1  0.18508798  0.03377218  0.37709006  1
  Fe  Fe81  1  0.69212602  0.53599198  0.38233712  1
  Fe  Fe82  1  0.53745307  0.69373170  0.88056650  1
  Fe  Fe83  1  0.03565798  0.70295833  0.87565392  1
  Fe  Fe84  1  0.53461020  0.19220630  0.88163436  1
  Fe  Fe85  1  0.53172002  0.70454489  0.21560986  1
  Fe  Fe86  1  0.53617978  0.69251376  0.55036569  1
  Fe  Fe87  1  0.53071190  0.18994774  0.21232640  1
  Fe  Fe88  1  0.03957905  0.69091736  0.21470275  1
  Fe  Fe89  1  0.03358852  0.69454632  0.54737780  1
  Fe  Fe90  1  0.02945363  0.19369903  0.54694731  1
  Fe  Fe91  1  0.03429230  0.19370063  0.21588928  1
  Fe  Fe92  1  0.81127169  0.96274789  0.62659458  1
  Fe  Fe93  1  0.30706316  0.46657033  0.95054675  1
  Fe  Fe94  1  0.31087865  0.96568358  0.95555056  1
  Fe  Fe95  1  0.80314659  0.96567445  0.95370048  1
  Fe  Fe96  1  0.80388109  0.46398610  0.28351517  1
  Fe  Fe97  1  0.30200918  0.96847224  0.61752912  1
  Fe  Fe98  1  0.31068937  0.46657897  0.28782815  1
  Fe  Fe99  1  0.30480633  0.96490786  0.28429071  1
  Fe  Fe100  1  0.80215593  0.46569470  0.94681960  1
  Fe  Fe101  1  0.80005710  0.46792845  0.62409474  1
  S  S102  1  0.35589277  0.14240859  0.08172201  1
  S  S103  1  0.34929689  0.13918342  0.41381873  1
  S  S104  1  0.35787244  0.14011100  0.75213534  1
  S  S105  1  0.36266745  0.63889875  0.08651056  1
  S  S106  1  0.36313430  0.64160244  0.41877263  1
  S  S107  1  0.36535137  0.64419773  0.75209208  1
  S  S108  1  0.86023266  0.14051661  0.08156753  1
  S  S109  1  0.85745861  0.14068805  0.41577444  1
  S  S110  1  0.85623127  0.14012041  0.74470083  1
  S  S111  1  0.86552657  0.63506241  0.08339808  1
  S  S112  1  0.85889604  0.63910675  0.41192685  1
  S  S113  1  0.86952427  0.63256790  0.74990641  1
  S  S114  1  0.13910961  0.36281911  0.25057956  1
  S  S115  1  0.13273003  0.36063145  0.58261114  1
  S  S116  1  0.13646974  0.36874568  0.91383424  1
  S  S117  1  0.14150022  0.85751592  0.24827246  1
  S  S118  1  0.13939651  0.86044222  0.58165960  1
  S  S119  1  0.14693508  0.85886722  0.92173608  1
  S  S120  1  0.63784475  0.35978232  0.25065052  1
  S  S121  1  0.63251533  0.37105871  0.58002819  1
  S  S122  1  0.63943277  0.36006737  0.91877506  1
  S  S123  1  0.64086293  0.86130444  0.25184842  1
  S  S124  1  0.64152330  0.85573029  0.58465867  1
  S  S125  1  0.64389713  0.85809254  0.91797211  1
  S  S126  1  0.06541986  0.16984889  0.04710158  1
  S  S127  1  0.06524515  0.17405671  0.37840636  1
  S  S128  1  0.06888372  0.17313065  0.70930504  1
  S  S129  1  0.06883225  0.66770514  0.04073903  1
  S  S130  1  0.06620219  0.66495666  0.37445211  1
  S  S131  1  0.07967503  0.66795533  0.70688596  1
  S  S132  1  0.56192698  0.17017358  0.04413884  1
  S  S133  1  0.56255140  0.16326290  0.37221757  1
  S  S134  1  0.56430438  0.17116019  0.71058399  1
  S  S135  1  0.57183423  0.66425143  0.04192110  1
  S  S136  1  0.56655927  0.67022676  0.37715047  1
  S  S137  1  0.56758929  0.67651505  0.71404329  1
  S  S138  1  0.32999052  0.43287552  0.12633965  1
  S  S139  1  0.33187883  0.43153578  0.45529468  1
  S  S140  1  0.33107364  0.43343893  0.79310824  1
  S  S141  1  0.33292195  0.94075697  0.12476419  1
  S  S142  1  0.32689530  0.93560220  0.45818389  1
  S  S143  1  0.33220142  0.93545941  0.79216273  1
  S  S144  1  0.82955686  0.42978522  0.12228791  1
  S  S145  1  0.82996441  0.43549789  0.45792753  1
  S  S146  1  0.82764113  0.42240467  0.78778982  1
  S  S147  1  0.83655281  0.93381857  0.12114382  1
  S  S148  1  0.83194815  0.93450684  0.45917871  1
  S  S149  1  0.82526321  0.92992134  0.78812177  1
  S  S150  1  0.43350782  0.32971060  0.29024035  1
  S  S151  1  0.42514399  0.32698934  0.62377156  1
  S  S152  1  0.43271249  0.33343529  0.95753837  1
  S  S153  1  0.43170289  0.83442014  0.29629913  1
  S  S154  1  0.43033824  0.83223608  0.62403055  1
  S  S155  1  0.44191690  0.83449570  0.95978765  1
  S  S156  1  0.93152052  0.33369770  0.29111760  1
  S  S157  1  0.92256237  0.32743104  0.62254296  1
  S  S158  1  0.92803808  0.33419520  0.95725331  1
  S  S159  1  0.93663131  0.82383061  0.28784908  1
  S  S160  1  0.93417163  0.82547000  0.61976507  1
  S  S161  1  0.92873351  0.82507671  0.95749723  1
  S  S162  1  0.16821324  0.06784334  0.20890154  1
  S  S163  1  0.16557859  0.06849655  0.54150242  1
  S  S164  1  0.17186023  0.06472965  0.87874447  1
  S  S165  1  0.17003262  0.56409838  0.20677100  1
  S  S166  1  0.16998370  0.57009854  0.54062975  1
  S  S167  1  0.18001197  0.57769713  0.87753903  1
  S  S168  1  0.66453540  0.06594059  0.20999969  1
  S  S169  1  0.67252585  0.06028137  0.54324075  1
  S  S170  1  0.66804059  0.06422362  0.87191851  1
  S  S171  1  0.66593707  0.56672859  0.21072370  1
  S  S172  1  0.67534349  0.57425536  0.54222134  1
  S  S173  1  0.66925824  0.56340673  0.87420668  1
  O  O174  1  0.36524216  0.22122444  0.07351847  1
  O  O175  1  0.36151575  0.21853560  0.40636637  1
  O  O176  1  0.36676720  0.21808029  0.74266202  1
  O  O177  1  0.36837967  0.71239871  0.07179831  1
  O  O178  1  0.37202881  0.72161367  0.41410181  1
  O  O179  1  0.36899963  0.72657601  0.74778692  1
  O  O180  1  0.87547929  0.21859215  0.07198107  1
  O  O181  1  0.86528709  0.22217215  0.41134844  1
  O  O182  1  0.86635050  0.21705616  0.73121025  1
  O  O183  1  0.87400606  0.71503846  0.07888483  1
  O  O184  1  0.86891811  0.71764786  0.40400795  1
  O  O185  1  0.87806782  0.70402443  0.73088622  1
  O  O186  1  0.27627927  0.13230875  0.08768875  1
  O  O187  1  0.26739959  0.13306500  0.41681151  1
  O  O188  1  0.27887745  0.13072523  0.75944820  1
  O  O189  1  0.28466261  0.62657743  0.09740300  1
  O  O190  1  0.28371088  0.63073897  0.42619110  1
  O  O191  1  0.28511760  0.63158591  0.75739264  1
  O  O192  1  0.78284427  0.13651385  0.08943586  1
  O  O193  1  0.77798795  0.13002291  0.42271792  1
  O  O194  1  0.77189683  0.13277640  0.74279799  1
  O  O195  1  0.78933698  0.62354139  0.09561374  1
  O  O196  1  0.77932164  0.63048263  0.41826121  1
  O  O197  1  0.79690310  0.62487277  0.76710732  1
  O  O198  1  0.12973678  0.28619694  0.26293782  1
  O  O199  1  0.12093457  0.28290529  0.59375543  1
  O  O200  1  0.13113959  0.29294591  0.92448924  1
  O  O201  1  0.13503588  0.77857307  0.25657107  1
  O  O202  1  0.13066974  0.78140376  0.58938476  1
  O  O203  1  0.13570482  0.78158169  0.93475011  1
  O  O204  1  0.62923858  0.27988465  0.25640005  1
  O  O205  1  0.63205599  0.29584614  0.59344005  1
  O  O206  1  0.63024676  0.28154801  0.92847956  1
  O  O207  1  0.62639823  0.78502557  0.26675859  1
  O  O208  1  0.63125286  0.77835274  0.59619478  1
  O  O209  1  0.63616730  0.77525260  0.91841635  1
  O  O210  1  0.21866965  0.37019694  0.24346686  1
  O  O211  1  0.20693253  0.36600993  0.56866462  1
  O  O212  1  0.21390357  0.38124625  0.90200709  1
  O  O213  1  0.22037007  0.86912740  0.23976639  1
  O  O214  1  0.22005284  0.86970569  0.57620700  1
  O  O215  1  0.23129656  0.86379368  0.92218719  1
  O  O216  1  0.71570812  0.36864937  0.23942963  1
  O  O217  1  0.70849914  0.38643737  0.56556989  1
  O  O218  1  0.71770550  0.36704483  0.90925966  1
  O  O219  1  0.71961774  0.86523527  0.24720829  1
  O  O220  1  0.72261578  0.86220569  0.58007468  1
  O  O221  1  0.72244194  0.86797626  0.90743308  1
  O  O222  1  0.41299582  0.13709537  0.15220116  1
  O  O223  1  0.40452161  0.12853275  0.48043893  1
  O  O224  1  0.41718212  0.13273313  0.82046985  1
  O  O225  1  0.42257512  0.63541397  0.15704099  1
  O  O226  1  0.42155953  0.63117335  0.48614301  1
  O  O227  1  0.42161564  0.63980437  0.82409460  1
  O  O228  1  0.92063377  0.13126181  0.14906619  1
  O  O229  1  0.91595625  0.13301494  0.48543354  1
  O  O230  1  0.90842024  0.13801400  0.81559550  1
  O  O231  1  0.92802892  0.62198210  0.14763242  1
  O  O232  1  0.91721584  0.62909621  0.47992307  1
  O  O233  1  0.93549541  0.62711622  0.81656567  1
  O  O234  1  0.36822295  0.08315717  0.01621976  1
  O  O235  1  0.35836240  0.08100047  0.34508819  1
  O  O236  1  0.36753361  0.07960700  0.68501019  1
  O  O237  1  0.37398536  0.57364366  0.02299359  1
  O  O238  1  0.37000343  0.58397131  0.34933233  1
  O  O239  1  0.37895309  0.58948736  0.68720154  1
  O  O240  1  0.86735953  0.07959568  0.01299860  1
  O  O241  1  0.86894273  0.08518079  0.34963176  1
  O  O242  1  0.86869149  0.07857038  0.67942227  1
  O  O243  1  0.87091476  0.57816663  0.01243273  1
  O  O244  1  0.86750837  0.57902809  0.34403877  1
  O  O245  1  0.87520332  0.56531186  0.68350135  1
  O  O246  1  0.08032500  0.36968865  0.18161355  1
  O  O247  1  0.06827154  0.37057569  0.51771359  1
  O  O248  1  0.07477169  0.37713744  0.84656081  1
  O  O249  1  0.08283170  0.86395702  0.17966275  1
  O  O250  1  0.08274101  0.86702837  0.51196446  1
  O  O251  1  0.09432275  0.86313934  0.85203551  1
  O  O252  1  0.57686382  0.37132348  0.18512226  1
  O  O253  1  0.57108411  0.36865663  0.50629277  1
  O  O254  1  0.57929204  0.36962560  0.85224201  1
  O  O255  1  0.58133454  0.86879512  0.18542214  1
  O  O256  1  0.58557757  0.85893694  0.51303302  1
  O  O257  1  0.58433267  0.87045932  0.85085993  1
  O  O258  1  0.12926602  0.42502503  0.31648631  1
  O  O259  1  0.12851309  0.42185570  0.65208751  1
  O  O260  1  0.12924849  0.43114738  0.98136448  1
  O  O261  1  0.13366845  0.91628588  0.31654514  1
  O  O262  1  0.12960222  0.91961971  0.64860993  1
  O  O263  1  0.13740426  0.91913394  0.98875788  1
  O  O264  1  0.63273081  0.41766459  0.32080088  1
  O  O265  1  0.61914766  0.43365055  0.64092594  1
  O  O266  1  0.63362678  0.41954652  0.98794688  1
  O  O267  1  0.63188269  0.92327146  0.32073079  1
  O  O268  1  0.62996693  0.91691390  0.64907121  1
  O  O269  1  0.63648926  0.91264643  0.98648946  1
  O  O270  1  0.03630184  0.20520489  0.11498408  1
  O  O271  1  0.02639000  0.20390999  0.43786475  1
  O  O272  1  0.03443507  0.20408281  0.76939553  1
  O  O273  1  0.03270274  0.69524021  0.10180263  1
  O  O274  1  0.02908481  0.69579857  0.43461696  1
  O  O275  1  0.05032443  0.69517623  0.77042873  1
  O  O276  1  0.52598233  0.20731550  0.10513082  1
  O  O277  1  0.52511544  0.18989371  0.43137317  1
  O  O278  1  0.53149140  0.20193573  0.77693772  1
  O  O279  1  0.53970258  0.68456144  0.10470889  1
  O  O280  1  0.53105355  0.69715782  0.43878676  1
  O  O281  1  0.52791886  0.71130700  0.77291087  1
  O  O282  1  0.29791718  0.46510665  0.06302755  1
  O  O283  1  0.30039478  0.46632557  0.39075270  1
  O  O284  1  0.30264205  0.46854461  0.73297370  1
  O  O285  1  0.29565250  0.97741042  0.06502572  1
  O  O286  1  0.29498127  0.97118166  0.39643898  1
  O  O287  1  0.29806229  0.96927376  0.72945655  1
  O  O288  1  0.79954943  0.46457581  0.06060749  1
  O  O289  1  0.80159652  0.47309781  0.39692817  1
  O  O290  1  0.79823546  0.44900330  0.72188713  1
  O  O291  1  0.81347186  0.96788359  0.05756578  1
  O  O292  1  0.79988270  0.97351167  0.40217262  1
  O  O293  1  0.79031314  0.97296211  0.73127505  1
  O  O294  1  0.46724062  0.29891169  0.22723786  1
  O  O295  1  0.45850545  0.29678434  0.56181293  1
  O  O296  1  0.46865648  0.30214620  0.89651642  1
  O  O297  1  0.46645651  0.80620511  0.23560413  1
  O  O298  1  0.46799767  0.80300549  0.56383627  1
  O  O299  1  0.47379132  0.80256874  0.89463778  1
  O  O300  1  0.96816298  0.30326672  0.23072387  1
  O  O301  1  0.95997845  0.29825757  0.56152569  1
  O  O302  1  0.96049223  0.30838237  0.89550937  1
  O  O303  1  0.97572824  0.79034459  0.22796826  1
  O  O304  1  0.96645195  0.79615308  0.55330608  1
  O  O305  1  0.96576931  0.79798463  0.89872147  1
  O  O306  1  0.19649599  0.02961115  0.26898873  1
  O  O307  1  0.19659957  0.03267847  0.60345729  1
  O  O308  1  0.20831410  0.02435737  0.93777062  1
  O  O309  1  0.20256506  0.53160406  0.27032294  1
  O  O310  1  0.19512619  0.53675149  0.60174141  1
  O  O311  1  0.21003934  0.54313304  0.94063037  1
  O  O312  1  0.68794638  0.04095527  0.27803499  1
  O  O313  1  0.70627838  0.01809150  0.60016734  1
  O  O314  1  0.69965844  0.02719232  0.93089390  1
  O  O315  1  0.69645100  0.52733907  0.27006970  1
  O  O316  1  0.71291576  0.54643062  0.60567101  1
  O  O317  1  0.70252070  0.53169968  0.94088703  1
  O  O318  1  0.08211347  0.08845682  0.04638351  1
  O  O319  1  0.08264569  0.09301991  0.37532684  1
  O  O320  1  0.08898251  0.09172020  0.70493271  1
  O  O321  1  0.08414236  0.58370456  0.03309761  1
  O  O322  1  0.08355293  0.58256926  0.37035257  1
  O  O323  1  0.10013874  0.58604659  0.69681175  1
  O  O324  1  0.57169985  0.08911753  0.04073617  1
  O  O325  1  0.58420308  0.08184282  0.36883524  1
  O  O326  1  0.58845888  0.09218173  0.71270648  1
  O  O327  1  0.58360048  0.57721808  0.02503055  1
  O  O328  1  0.58343150  0.58688050  0.36787939  1
  O  O329  1  0.58613938  0.59943585  0.71630225  1
  O  O330  1  0.41288964  0.41693758  0.13101786  1
  O  O331  1  0.40720524  0.40096823  0.45003695  1
  O  O332  1  0.41102819  0.40940152  0.79757654  1
  O  O333  1  0.41406257  0.93080854  0.12679997  1
  O  O334  1  0.40830871  0.91903224  0.46188081  1
  O  O335  1  0.41469116  0.92112460  0.79531256  1
  O  O336  1  0.91268650  0.41439969  0.13042044  1
  O  O337  1  0.91419836  0.42249666  0.46618202  1
  O  O338  1  0.91036126  0.40501110  0.79873080  1
  O  O339  1  0.92143116  0.91911701  0.13211383  1
  O  O340  1  0.91369605  0.91715890  0.45941360  1
  O  O341  1  0.90274465  0.91427570  0.78773981  1
  O  O342  1  0.42041119  0.41367611  0.29742875  1
  O  O343  1  0.40342379  0.40542662  0.62996399  1
  O  O344  1  0.41818180  0.41659033  0.96420415  1
  O  O345  1  0.41548929  0.91796343  0.30351744  1
  O  O346  1  0.40854640  0.91237325  0.62732614  1
  O  O347  1  0.41911209  0.91503731  0.95972536  1
  O  O348  1  0.91615317  0.41717097  0.29583613  1
  O  O349  1  0.90357733  0.40864917  0.62475325  1
  O  O350  1  0.90778694  0.41701786  0.96738563  1
  O  O351  1  0.91986293  0.90232593  0.28957159  1
  O  O352  1  0.91191487  0.90571148  0.62184690  1
  O  O353  1  0.90532937  0.90573822  0.96244185  1
  O  O354  1  0.08711340  0.08706767  0.20416571  1
  O  O355  1  0.08320051  0.08430491  0.53491289  1
  O  O356  1  0.09593930  0.08399405  0.88182058  1
  O  O357  1  0.08669721  0.57901111  0.20261328  1
  O  O358  1  0.08664131  0.58854466  0.52779972  1
  O  O359  1  0.09974848  0.59740505  0.87434414  1
  O  O360  1  0.58215553  0.08940041  0.19915449  1
  O  O361  1  0.59245839  0.07156853  0.54078185  1
  O  O362  1  0.58593651  0.08227983  0.87130647  1
  O  O363  1  0.58398067  0.58312883  0.20708153  1
  O  O364  1  0.59350045  0.59040735  0.54016910  1
  O  O365  1  0.59104811  0.58874216  0.87759649  1
  O  O366  1  0.13808814  0.21863036  0.06154192  1
  O  O367  1  0.13607731  0.22722421  0.39578555  1
  O  O368  1  0.13971092  0.22461232  0.72172137  1
  O  O369  1  0.14264725  0.71732902  0.05986678  1
  O  O370  1  0.13723379  0.71596326  0.38972695  1
  O  O371  1  0.14806461  0.72140969  0.71672046  1
  O  O372  1  0.63601319  0.21906110  0.06084188  1
  O  O373  1  0.63176348  0.21670116  0.38613679  1
  O  O374  1  0.63337700  0.22566580  0.72564479  1
  O  O375  1  0.64513672  0.71151920  0.05740041  1
  O  O376  1  0.63836427  0.72132229  0.39408296  1
  O  O377  1  0.63753222  0.73006245  0.72885216  1
  O  O378  1  0.28049026  0.36295451  0.11577673  1
  O  O379  1  0.27339792  0.36510658  0.44070203  1
  O  O380  1  0.27673245  0.36517479  0.78128737  1
  O  O381  1  0.28524716  0.86662833  0.11004743  1
  O  O382  1  0.27609139  0.86474970  0.44457408  1
  O  O383  1  0.28308177  0.86274350  0.77761962  1
  O  O384  1  0.77916203  0.35786538  0.10759338  1
  O  O385  1  0.78106268  0.36183211  0.43733771  1
  O  O386  1  0.77609756  0.35296225  0.77822755  1
  O  O387  1  0.78796874  0.85869336  0.09887123  1
  O  O388  1  0.78197366  0.86123140  0.44281902  1
  O  O389  1  0.77028135  0.85895064  0.76887327  1
  O  O390  1  0.35891348  0.28157040  0.27260377  1
  O  O391  1  0.35659215  0.27138918  0.61172569  1
  O  O392  1  0.36060122  0.28429196  0.94250221  1
  O  O393  1  0.35992514  0.78452654  0.28218021  1
  O  O394  1  0.36103700  0.77742285  0.60790309  1
  O  O395  1  0.37149890  0.78160878  0.94549371  1
  O  O396  1  0.85923820  0.28446788  0.27594157  1
  O  O397  1  0.85200780  0.27623908  0.60699852  1
  O  O398  1  0.85879411  0.28171548  0.94583340  1
  O  O399  1  0.86806089  0.76899052  0.27225819  1
  O  O400  1  0.86283018  0.77191745  0.60166181  1
  O  O401  1  0.85922372  0.77036974  0.94306460  1
  O  O402  1  0.22137510  0.13922759  0.22679713  1
  O  O403  1  0.21653707  0.14050705  0.55777849  1
  O  O404  1  0.22818746  0.13205114  0.89203698  1
  O  O405  1  0.21809174  0.63565079  0.21867717  1
  O  O406  1  0.22202870  0.64099926  0.55457067  1
  O  O407  1  0.23351125  0.64786176  0.89280611  1
  O  O408  1  0.71904684  0.13557874  0.22387936  1
  O  O409  1  0.72328368  0.13286836  0.56291606  1
  O  O410  1  0.71785550  0.13630550  0.88563745  1
  O  O411  1  0.71807376  0.63726659  0.22780158  1
  O  O412  1  0.72223387  0.64425625  0.54622277  1
  O  O413  1  0.72332553  0.63261241  0.88820501  1
  O  O414  1  0.49239798  0.33544388  0.03051397  1
  O  O415  1  0.49189472  0.32757810  0.36076462  1
  O  O416  1  0.48835069  0.32806600  0.69568546  1
  O  O417  1  0.50407381  0.84231438  0.02963948  1
  O  O418  1  0.49131208  0.83638817  0.36949117  1
  O  O419  1  0.49050246  0.83853456  0.69743344  1
  O  O420  1  0.99133573  0.33924302  0.02986120  1
  O  O421  1  0.98984437  0.33775120  0.36501872  1
  O  O422  1  0.98388383  0.33088897  0.69435143  1
  O  O423  1  0.98844983  0.83129619  0.03215656  1
  O  O424  1  0.99638462  0.82559561  0.36173303  1
  O  O425  1  0.99477107  0.82673339  0.68747069  1
  O  O426  1  0.16659529  0.00939433  0.13652608  1
  O  O427  1  0.16530768  0.00887892  0.46956654  1
  O  O428  1  0.16799975  0.00485595  0.80384087  1
  O  O429  1  0.16564752  0.50272065  0.13470770  1
  O  O430  1  0.17067187  0.50875135  0.46928492  1
  O  O431  1  0.17764989  0.51654729  0.80629802  1
  O  O432  1  0.66023229  0.00142753  0.14279930  1
  O  O433  1  0.67453587  0.00603044  0.46815640  1
  O  O434  1  0.65953926  0.00638048  0.79664681  1
  O  O435  1  0.66251997  0.50831972  0.13673356  1
  O  O436  1  0.66546989  0.50952771  0.46868386  1
  O  O437  1  0.66031891  0.50022691  0.80550630  1
  O  O438  1  0.00727563  0.17195387  0.30498999  1
  O  O439  1  0.00775006  0.16495703  0.63468618  1
  O  O440  1  0.00385683  0.17053241  0.98047069  1
  O  O441  1  0.00743977  0.65963031  0.30037559  1
  O  O442  1  0.01524797  0.66397989  0.63514602  1
  O  O443  1  0.01189042  0.66688308  0.96801488  1
  O  O444  1  0.50288495  0.15806041  0.29801916  1
  O  O445  1  0.50223051  0.16343701  0.64160928  1
  O  O446  1  0.50568867  0.17234764  0.97087563  1
  O  O447  1  0.50717849  0.67058262  0.30549224  1
  O  O448  1  0.50870706  0.67252853  0.63944855  1
  O  O449  1  0.51110312  0.66929016  0.97246312  1
  O  O450  1  0.33559020  0.49521506  0.19910558  1
  O  O451  1  0.34354608  0.49369611  0.52558414  1
  O  O452  1  0.34050822  0.49537070  0.86777804  1
  O  O453  1  0.33319180  0.99634151  0.19929318  1
  O  O454  1  0.32916872  0.99601566  0.53058474  1
  O  O455  1  0.33429604  0.99438290  0.86423777  1
  O  O456  1  0.82948767  0.48995742  0.19407916  1
  O  O457  1  0.82845830  0.49230215  0.53010277  1
  O  O458  1  0.82879575  0.48733251  0.85732910  1
  O  O459  1  0.83026247  0.99028224  0.18847896  1
  O  O460  1  0.84004946  0.99005628  0.53565286  1
  O  O461  1  0.82385361  0.98513069  0.86340104  1
